MODEL 1
REMARK VINA RESULT:    -7.828      0.000      0.000
REMARK INTER + INTRA:         -12.392
REMARK INTER:                 -11.260
REMARK INTRA:                  -1.133
REMARK UNBOUND:                -1.133
REMARK  Name = 
REMARK  8 active torsions:
REMARK  status: ('A' for Active; 'I' for Inactive)
REMARK    1  A    between atoms: N_1  and  C_2
REMARK    2  A    between atoms: C_2  and  C_3
REMARK    3  A    between atoms: C_2  and  C_24
REMARK    4  A    between atoms: C_3  and  C_4
REMARK    5  A    between atoms: C_7  and  C_8
REMARK    6  A    between atoms: C_8  and  N_9
REMARK    7  A    between atoms: C_10  and  C_12
REMARK    8  A    between atoms: C_24  and  C_26
REMARK                            x       y       z     vdW  Elec       q    Type
REMARK                         _______ _______ _______ _____ _____    ______ ____
ROOT
ATOM      1  C   UNL     1      45.653   4.614  12.122  0.00  0.00    +0.000 A 
ATOM      2  C   UNL     1      46.109   5.876  11.715  0.00  0.00    +0.000 A 
ATOM      3  C   UNL     1      47.013   6.599  12.502  0.00  0.00    +0.000 A 
ATOM      4  C   UNL     1      47.493   6.071  13.707  0.00  0.00    +0.000 A 
ATOM      5  C   UNL     1      47.028   4.817  14.121  0.00  0.00    +0.000 A 
ATOM      6  C   UNL     1      46.124   4.093  13.334  0.00  0.00    +0.000 A 
ENDROOT
BRANCH   1   7
ATOM      7  C   UNL     1      44.636   3.860  11.292  0.00  0.00    +0.000 C 
BRANCH   7   8
ATOM      8  C   UNL     1      44.738   3.975   9.756  0.00  0.00    +0.000 C 
BRANCH   8   9
ATOM      9  N   UNL     1      43.623   4.736   9.152  0.00  0.00    +0.000 NA
ATOM     10  H   UNL     1      43.827   4.948   8.178  0.00  0.00    +0.000 HD
ATOM     11  H   UNL     1      43.573   5.639   9.636  0.00  0.00    +0.000 HD
ENDBRANCH   8   9
BRANCH   8  12
ATOM     12  C   UNL     1      44.831   2.598   9.070  0.00  0.00    +0.000 C 
ATOM     13  O   UNL     1      43.997   1.714   9.285  0.00  0.00    +0.000 OA
BRANCH  12  14
ATOM     14  C   UNL     1      45.958   2.293   8.132  0.00  0.00    +0.000 A 
ATOM     15  C   UNL     1      46.622   3.263   7.380  0.00  0.00    +0.000 A 
ATOM     16  C   UNL     1      47.631   2.849   6.523  0.00  0.00    +0.000 A 
ATOM     17  N   UNL     1      48.019   1.566   6.380  0.00  0.00    +0.000 NA
ATOM     18  C   UNL     1      47.366   0.645   7.117  0.00  0.00    +0.000 A 
ATOM     19  C   UNL     1      46.344   0.955   7.994  0.00  0.00    +0.000 A 
ENDBRANCH  12  14
ENDBRANCH   8  12
ENDBRANCH   7   8
ENDBRANCH   1   7
BRANCH   4  20
ATOM     20  C   UNL     1      48.452   6.852  14.567  0.00  0.00    +0.000 C 
BRANCH  20  21
ATOM     21  N   UNL     1      48.231   6.588  15.966  0.00  0.00    +0.000 N 
ATOM     22  C   UNL     1      49.235   6.115  16.772  0.00  0.00    +0.000 C 
ATOM     23  O   UNL     1      50.372   5.920  16.350  0.00  0.00    +0.000 OA
ATOM     24  H   UNL     1      47.267   6.526  16.277  0.00  0.00    +0.000 HD
BRANCH  22  25
ATOM     25  C   UNL     1      48.900   5.922  18.188  0.00  0.00    +0.000 A 
ATOM     26  C   UNL     1      49.128   4.690  18.787  0.00  0.00    +0.000 A 
ATOM     27  S   UNL     1      48.753   4.656  20.450  0.00  0.00    +0.000 S 
ATOM     28  C   UNL     1      48.214   6.270  20.416  0.00  0.00    +0.000 A 
ATOM     29  N   UNL     1      47.730   6.866  21.539  0.00  0.00    +0.000 NA
ATOM     30  C   UNL     1      47.327   8.082  21.363  0.00  0.00    +0.000 A 
ATOM     31  N   UNL     1      47.364   8.752  20.171  0.00  0.00    +0.000 N 
ATOM     32  C   UNL     1      47.872   8.198  19.016  0.00  0.00    +0.000 A 
ATOM     33  O   UNL     1      47.927   8.841  17.972  0.00  0.00    +0.000 OA
ATOM     34  C   UNL     1      48.333   6.831  19.157  0.00  0.00    +0.000 A 
ATOM     35  H   UNL     1      47.038   9.704  20.100  0.00  0.00    +0.000 HD
ENDBRANCH  22  25
ENDBRANCH  20  21
ENDBRANCH   4  20
TORSDOF 8
ENDMDL
MODEL 2
REMARK VINA RESULT:    -7.767      1.382      2.308
REMARK INTER + INTRA:         -12.306
REMARK INTER:                 -11.274
REMARK INTRA:                  -1.031
REMARK UNBOUND:                -1.133
REMARK  Name = 
REMARK  8 active torsions:
REMARK  status: ('A' for Active; 'I' for Inactive)
REMARK    1  A    between atoms: N_1  and  C_2
REMARK    2  A    between atoms: C_2  and  C_3
REMARK    3  A    between atoms: C_2  and  C_24
REMARK    4  A    between atoms: C_3  and  C_4
REMARK    5  A    between atoms: C_7  and  C_8
REMARK    6  A    between atoms: C_8  and  N_9
REMARK    7  A    between atoms: C_10  and  C_12
REMARK    8  A    between atoms: C_24  and  C_26
REMARK                            x       y       z     vdW  Elec       q    Type
REMARK                         _______ _______ _______ _____ _____    ______ ____
ROOT
ATOM      1  C   UNL     1      45.753   4.888  12.096  0.00  0.00    +0.000 A 
ATOM      2  C   UNL     1      46.281   4.496  13.334  0.00  0.00    +0.000 A 
ATOM      3  C   UNL     1      47.231   5.285  13.991  0.00  0.00    +0.000 A 
ATOM      4  C   UNL     1      47.666   6.493  13.432  0.00  0.00    +0.000 A 
ATOM      5  C   UNL     1      47.150   6.880  12.188  0.00  0.00    +0.000 A 
ATOM      6  C   UNL     1      46.199   6.091  11.531  0.00  0.00    +0.000 A 
ENDROOT
BRANCH   1   7
ATOM      7  C   UNL     1      44.764   4.004  11.367  0.00  0.00    +0.000 C 
BRANCH   7   8
ATOM      8  C   UNL     1      44.782   4.030   9.824  0.00  0.00    +0.000 C 
BRANCH   8   9
ATOM      9  N   UNL     1      43.650   4.780   9.238  0.00  0.00    +0.000 NA
ATOM     10  H   UNL     1      43.142   5.278   9.965  0.00  0.00    +0.000 HD
ATOM     11  H   UNL     1      42.995   4.090   8.853  0.00  0.00    +0.000 HD
ENDBRANCH   8   9
BRANCH   8  12
ATOM     12  C   UNL     1      44.811   2.614   9.214  0.00  0.00    +0.000 C 
ATOM     13  O   UNL     1      43.956   1.772   9.502  0.00  0.00    +0.000 OA
BRANCH  12  14
ATOM     14  C   UNL     1      45.899   2.220   8.263  0.00  0.00    +0.000 A 
ATOM     15  C   UNL     1      46.285   0.899   8.034  0.00  0.00    +0.000 A 
ATOM     16  C   UNL     1      47.328   0.667   7.150  0.00  0.00    +0.000 A 
ATOM     17  N   UNL     1      47.986   1.640   6.488  0.00  0.00    +0.000 NA
ATOM     18  C   UNL     1      47.597   2.909   6.723  0.00  0.00    +0.000 A 
ATOM     19  C   UNL     1      46.572   3.245   7.588  0.00  0.00    +0.000 A 
ENDBRANCH  12  14
ENDBRANCH   8  12
ENDBRANCH   7   8
ENDBRANCH   1   7
BRANCH   4  20
ATOM     20  C   UNL     1      48.703   7.338  14.125  0.00  0.00    +0.000 C 
BRANCH  20  21
ATOM     21  N   UNL     1      48.545   7.286  15.557  0.00  0.00    +0.000 N 
ATOM     22  C   UNL     1      49.537   6.799  16.368  0.00  0.00    +0.000 C 
ATOM     23  O   UNL     1      50.613   6.410  15.921  0.00  0.00    +0.000 OA
ATOM     24  H   UNL     1      47.603   7.386  15.921  0.00  0.00    +0.000 HD
BRANCH  22  25
ATOM     25  C   UNL     1      49.276   6.833  17.812  0.00  0.00    +0.000 A 
ATOM     26  C   UNL     1      49.287   8.047  18.486  0.00  0.00    +0.000 A 
ATOM     27  S   UNL     1      48.893   7.918  20.140  0.00  0.00    +0.000 S 
ATOM     28  C   UNL     1      48.754   6.226  20.030  0.00  0.00    +0.000 A 
ATOM     29  N   UNL     1      48.449   5.479  21.125  0.00  0.00    +0.000 NA
ATOM     30  C   UNL     1      48.406   4.206  20.905  0.00  0.00    +0.000 A 
ATOM     31  N   UNL     1      48.638   3.615  19.694  0.00  0.00    +0.000 N 
ATOM     32  C   UNL     1      48.922   4.333  18.552  0.00  0.00    +0.000 A 
ATOM     33  O   UNL     1      49.086   3.773  17.473  0.00  0.00    +0.000 OA
ATOM     34  C   UNL     1      48.988   5.767  18.745  0.00  0.00    +0.000 A 
ATOM     35  H   UNL     1      48.585   2.613  19.585  0.00  0.00    +0.000 HD
ENDBRANCH  22  25
ENDBRANCH  20  21
ENDBRANCH   4  20
TORSDOF 8
ENDMDL
MODEL 3
REMARK VINA RESULT:    -7.455      2.886      3.663
REMARK INTER + INTRA:         -11.856
REMARK INTER:                 -10.274
REMARK INTRA:                  -1.582
REMARK UNBOUND:                -1.133
REMARK  Name = 
REMARK  8 active torsions:
REMARK  status: ('A' for Active; 'I' for Inactive)
REMARK    1  A    between atoms: N_1  and  C_2
REMARK    2  A    between atoms: C_2  and  C_3
REMARK    3  A    between atoms: C_2  and  C_24
REMARK    4  A    between atoms: C_3  and  C_4
REMARK    5  A    between atoms: C_7  and  C_8
REMARK    6  A    between atoms: C_8  and  N_9
REMARK    7  A    between atoms: C_10  and  C_12
REMARK    8  A    between atoms: C_24  and  C_26
REMARK                            x       y       z     vdW  Elec       q    Type
REMARK                         _______ _______ _______ _____ _____    ______ ____
ROOT
ATOM      1  C   UNL     1      45.292   6.086  12.785  0.00  0.00    +0.000 A 
ATOM      2  C   UNL     1      46.425   5.293  13.014  0.00  0.00    +0.000 A 
ATOM      3  C   UNL     1      47.710   5.844  12.948  0.00  0.00    +0.000 A 
ATOM      4  C   UNL     1      47.891   7.203  12.666  0.00  0.00    +0.000 A 
ATOM      5  C   UNL     1      46.761   7.994  12.423  0.00  0.00    +0.000 A 
ATOM      6  C   UNL     1      45.475   7.444  12.490  0.00  0.00    +0.000 A 
ENDROOT
BRANCH   1   7
ATOM      7  C   UNL     1      43.907   5.473  12.806  0.00  0.00    +0.000 C 
BRANCH   7   8
ATOM      8  C   UNL     1      43.240   5.162  11.450  0.00  0.00    +0.000 C 
BRANCH   8   9
ATOM      9  N   UNL     1      41.782   5.401  11.448  0.00  0.00    +0.000 NA
ATOM     10  H   UNL     1      41.581   6.363  11.184  0.00  0.00    +0.000 HD
ATOM     11  H   UNL     1      41.454   5.296  12.415  0.00  0.00    +0.000 HD
ENDBRANCH   8   9
BRANCH   8  12
ATOM     12  C   UNL     1      43.510   3.719  10.981  0.00  0.00    +0.000 C 
ATOM     13  O   UNL     1      42.970   2.753  11.528  0.00  0.00    +0.000 OA
BRANCH  12  14
ATOM     14  C   UNL     1      44.457   3.453   9.851  0.00  0.00    +0.000 A 
ATOM     15  C   UNL     1      44.817   2.173   9.429  0.00  0.00    +0.000 A 
ATOM     16  C   UNL     1      45.727   2.059   8.389  0.00  0.00    +0.000 A 
ATOM     17  N   UNL     1      46.280   3.111   7.753  0.00  0.00    +0.000 NA
ATOM     18  C   UNL     1      45.918   4.338   8.175  0.00  0.00    +0.000 A 
ATOM     19  C   UNL     1      45.023   4.558   9.206  0.00  0.00    +0.000 A 
ENDBRANCH  12  14
ENDBRANCH   8  12
ENDBRANCH   7   8
ENDBRANCH   1   7
BRANCH   4  20
ATOM     20  C   UNL     1      49.273   7.798  12.576  0.00  0.00    +0.000 C 
BRANCH  20  21
ATOM     21  N   UNL     1      50.129   7.286  13.616  0.00  0.00    +0.000 N 
ATOM     22  C   UNL     1      50.384   8.009  14.753  0.00  0.00    +0.000 C 
ATOM     23  O   UNL     1      49.878   9.111  14.952  0.00  0.00    +0.000 OA
ATOM     24  H   UNL     1      50.724   6.499  13.378  0.00  0.00    +0.000 HD
BRANCH  22  25
ATOM     25  C   UNL     1      51.239   7.367  15.758  0.00  0.00    +0.000 A 
ATOM     26  C   UNL     1      52.538   7.821  15.948  0.00  0.00    +0.000 A 
ATOM     27  S   UNL     1      53.369   7.016  17.202  0.00  0.00    +0.000 S 
ATOM     28  C   UNL     1      52.043   5.990  17.495  0.00  0.00    +0.000 A 
ATOM     29  N   UNL     1      52.106   5.028  18.454  0.00  0.00    +0.000 NA
ATOM     30  C   UNL     1      51.041   4.301  18.548  0.00  0.00    +0.000 A 
ATOM     31  N   UNL     1      49.924   4.450  17.773  0.00  0.00    +0.000 N 
ATOM     32  C   UNL     1      49.805   5.428  16.810  0.00  0.00    +0.000 A 
ATOM     33  O   UNL     1      48.773   5.558  16.159  0.00  0.00    +0.000 OA
ATOM     34  C   UNL     1      50.976   6.268  16.658  0.00  0.00    +0.000 A 
ATOM     35  H   UNL     1      49.121   3.852  17.899  0.00  0.00    +0.000 HD
ENDBRANCH  22  25
ENDBRANCH  20  21
ENDBRANCH   4  20
TORSDOF 8
ENDMDL
MODEL 4
REMARK VINA RESULT:    -7.441      3.778      8.959
REMARK INTER + INTRA:         -11.837
REMARK INTER:                 -10.337
REMARK INTRA:                  -1.500
REMARK UNBOUND:                -1.133
REMARK  Name = 
REMARK  8 active torsions:
REMARK  status: ('A' for Active; 'I' for Inactive)
REMARK    1  A    between atoms: N_1  and  C_2
REMARK    2  A    between atoms: C_2  and  C_3
REMARK    3  A    between atoms: C_2  and  C_24
REMARK    4  A    between atoms: C_3  and  C_4
REMARK    5  A    between atoms: C_7  and  C_8
REMARK    6  A    between atoms: C_8  and  N_9
REMARK    7  A    between atoms: C_10  and  C_12
REMARK    8  A    between atoms: C_24  and  C_26
REMARK                            x       y       z     vdW  Elec       q    Type
REMARK                         _______ _______ _______ _____ _____    ______ ____
ROOT
ATOM      1  C   UNL     1      50.058   7.025  15.902  0.00  0.00    +0.000 A 
ATOM      2  C   UNL     1      50.828   7.724  14.962  0.00  0.00    +0.000 A 
ATOM      3  C   UNL     1      50.307   8.043  13.703  0.00  0.00    +0.000 A 
ATOM      4  C   UNL     1      48.998   7.682  13.359  0.00  0.00    +0.000 A 
ATOM      5  C   UNL     1      48.232   6.972  14.292  0.00  0.00    +0.000 A 
ATOM      6  C   UNL     1      48.753   6.653  15.552  0.00  0.00    +0.000 A 
ENDROOT
BRANCH   1   7
ATOM      7  C   UNL     1      50.646   6.638  17.242  0.00  0.00    +0.000 C 
BRANCH   7   8
ATOM      8  C   UNL     1      49.670   6.438  18.421  0.00  0.00    +0.000 C 
BRANCH   8   9
ATOM      9  N   UNL     1      49.936   7.341  19.561  0.00  0.00    +0.000 NA
ATOM     10  H   UNL     1      50.929   7.346  19.783  0.00  0.00    +0.000 HD
ATOM     11  H   UNL     1      49.462   6.945  20.380  0.00  0.00    +0.000 HD
ENDBRANCH   8   9
BRANCH   8  12
ATOM     12  C   UNL     1      49.657   4.983  18.930  0.00  0.00    +0.000 C 
ATOM     13  O   UNL     1      49.743   4.721  20.133  0.00  0.00    +0.000 OA
BRANCH  12  14
ATOM     14  C   UNL     1      49.557   3.842  17.963  0.00  0.00    +0.000 A 
ATOM     15  C   UNL     1      48.391   3.516  17.270  0.00  0.00    +0.000 A 
ATOM     16  C   UNL     1      48.419   2.417  16.425  0.00  0.00    +0.000 A 
ATOM     17  N   UNL     1      49.508   1.649  16.223  0.00  0.00    +0.000 NA
ATOM     18  C   UNL     1      50.625   1.983  16.900  0.00  0.00    +0.000 A 
ATOM     19  C   UNL     1      50.698   3.055  17.770  0.00  0.00    +0.000 A 
ENDBRANCH  12  14
ENDBRANCH   8  12
ENDBRANCH   7   8
ENDBRANCH   1   7
BRANCH   4  20
ATOM     20  C   UNL     1      48.438   8.007  11.999  0.00  0.00    +0.000 C 
BRANCH  20  21
ATOM     21  N   UNL     1      47.687   6.897  11.467  0.00  0.00    +0.000 N 
ATOM     22  C   UNL     1      46.317   6.921  11.413  0.00  0.00    +0.000 C 
ATOM     23  O   UNL     1      45.667   7.893  11.789  0.00  0.00    +0.000 OA
ATOM     24  H   UNL     1      48.178   6.015  11.364  0.00  0.00    +0.000 HD
BRANCH  22  25
ATOM     25  C   UNL     1      45.666   5.749  10.814  0.00  0.00    +0.000 A 
ATOM     26  C   UNL     1      45.783   5.520   9.449  0.00  0.00    +0.000 A 
ATOM     27  S   UNL     1      45.030   4.081   8.929  0.00  0.00    +0.000 S 
ATOM     28  C   UNL     1      44.469   3.743  10.500  0.00  0.00    +0.000 A 
ATOM     29  N   UNL     1      43.719   2.636  10.748  0.00  0.00    +0.000 NA
ATOM     30  C   UNL     1      43.334   2.520  11.977  0.00  0.00    +0.000 A 
ATOM     31  N   UNL     1      43.630   3.407  12.975  0.00  0.00    +0.000 N 
ATOM     32  C   UNL     1      44.410   4.526  12.775  0.00  0.00    +0.000 A 
ATOM     33  O   UNL     1      44.689   5.280  13.702  0.00  0.00    +0.000 OA
ATOM     34  C   UNL     1      44.863   4.707  11.411  0.00  0.00    +0.000 A 
ATOM     35  H   UNL     1      43.303   3.257  13.917  0.00  0.00    +0.000 HD
ENDBRANCH  22  25
ENDBRANCH  20  21
ENDBRANCH   4  20
TORSDOF 8
ENDMDL
MODEL 5
REMARK VINA RESULT:    -7.177      3.083      9.349
REMARK INTER + INTRA:         -11.457
REMARK INTER:                  -9.773
REMARK INTRA:                  -1.684
REMARK UNBOUND:                -1.133
REMARK  Name = 
REMARK  8 active torsions:
REMARK  status: ('A' for Active; 'I' for Inactive)
REMARK    1  A    between atoms: N_1  and  C_2
REMARK    2  A    between atoms: C_2  and  C_3
REMARK    3  A    between atoms: C_2  and  C_24
REMARK    4  A    between atoms: C_3  and  C_4
REMARK    5  A    between atoms: C_7  and  C_8
REMARK    6  A    between atoms: C_8  and  N_9
REMARK    7  A    between atoms: C_10  and  C_12
REMARK    8  A    between atoms: C_24  and  C_26
REMARK                            x       y       z     vdW  Elec       q    Type
REMARK                         _______ _______ _______ _____ _____    ______ ____
ROOT
ATOM      1  C   UNL     1      49.175   7.830  16.170  0.00  0.00    +0.000 A 
ATOM      2  C   UNL     1      49.589   6.861  15.246  0.00  0.00    +0.000 A 
ATOM      3  C   UNL     1      49.090   6.858  13.939  0.00  0.00    +0.000 A 
ATOM      4  C   UNL     1      48.176   7.834  13.521  0.00  0.00    +0.000 A 
ATOM      5  C   UNL     1      47.752   8.794  14.447  0.00  0.00    +0.000 A 
ATOM      6  C   UNL     1      48.251   8.798  15.755  0.00  0.00    +0.000 A 
ENDROOT
BRANCH   1   7
ATOM      7  C   UNL     1      49.679   7.796  17.598  0.00  0.00    +0.000 C 
BRANCH   7   8
ATOM      8  C   UNL     1      49.019   6.794  18.567  0.00  0.00    +0.000 C 
BRANCH   8   9
ATOM      9  N   UNL     1      48.747   7.365  19.903  0.00  0.00    +0.000 NA
ATOM     10  H   UNL     1      47.834   7.812  19.918  0.00  0.00    +0.000 HD
ATOM     11  H   UNL     1      49.433   8.112  20.060  0.00  0.00    +0.000 HD
ENDBRANCH   8   9
BRANCH   8  12
ATOM     12  C   UNL     1      49.850   5.506  18.735  0.00  0.00    +0.000 C 
ATOM     13  O   UNL     1      50.765   5.434  19.560  0.00  0.00    +0.000 OA
BRANCH  12  14
ATOM     14  C   UNL     1      49.575   4.309  17.878  0.00  0.00    +0.000 A 
ATOM     15  C   UNL     1      48.342   4.057  17.275  0.00  0.00    +0.000 A 
ATOM     16  C   UNL     1      48.204   2.896  16.529  0.00  0.00    +0.000 A 
ATOM     17  N   UNL     1      49.193   2.000  16.341  0.00  0.00    +0.000 NA
ATOM     18  C   UNL     1      50.376   2.263  16.930  0.00  0.00    +0.000 A 
ATOM     19  C   UNL     1      50.613   3.388  17.697  0.00  0.00    +0.000 A 
ENDBRANCH  12  14
ENDBRANCH   8  12
ENDBRANCH   7   8
ENDBRANCH   1   7
BRANCH   4  20
ATOM     20  C   UNL     1      47.622   7.825  12.120  0.00  0.00    +0.000 C 
BRANCH  20  21
ATOM     21  N   UNL     1      46.942   6.586  11.836  0.00  0.00    +0.000 N 
ATOM     22  C   UNL     1      45.585   6.465  11.985  0.00  0.00    +0.000 C 
ATOM     23  O   UNL     1      44.881   7.407  12.340  0.00  0.00    +0.000 OA
ATOM     24  H   UNL     1      47.516   5.752  11.763  0.00  0.00    +0.000 HD
BRANCH  22  25
ATOM     25  C   UNL     1      45.002   5.166  11.627  0.00  0.00    +0.000 A 
ATOM     26  C   UNL     1      44.304   4.438  12.583  0.00  0.00    +0.000 A 
ATOM     27  S   UNL     1      43.630   2.990  11.985  0.00  0.00    +0.000 S 
ATOM     28  C   UNL     1      44.298   3.253  10.442  0.00  0.00    +0.000 A 
ATOM     29  N   UNL     1      44.111   2.353   9.440  0.00  0.00    +0.000 NA
ATOM     30  C   UNL     1      44.700   2.663   8.331  0.00  0.00    +0.000 A 
ATOM     31  N   UNL     1      45.454   3.787   8.135  0.00  0.00    +0.000 N 
ATOM     32  C   UNL     1      45.647   4.739   9.112  0.00  0.00    +0.000 A 
ATOM     33  O   UNL     1      46.297   5.756   8.891  0.00  0.00    +0.000 OA
ATOM     34  C   UNL     1      45.012   4.438  10.380  0.00  0.00    +0.000 A 
ATOM     35  H   UNL     1      45.885   3.975   7.242  0.00  0.00    +0.000 HD
ENDBRANCH  22  25
ENDBRANCH  20  21
ENDBRANCH   4  20
TORSDOF 8
ENDMDL
MODEL 6
REMARK VINA RESULT:    -7.041      2.183      2.728
REMARK INTER + INTRA:         -11.260
REMARK INTER:                 -11.665
REMARK INTRA:                   0.404
REMARK UNBOUND:                -1.133
REMARK  Name = 
REMARK  8 active torsions:
REMARK  status: ('A' for Active; 'I' for Inactive)
REMARK    1  A    between atoms: N_1  and  C_2
REMARK    2  A    between atoms: C_2  and  C_3
REMARK    3  A    between atoms: C_2  and  C_24
REMARK    4  A    between atoms: C_3  and  C_4
REMARK    5  A    between atoms: C_7  and  C_8
REMARK    6  A    between atoms: C_8  and  N_9
REMARK    7  A    between atoms: C_10  and  C_12
REMARK    8  A    between atoms: C_24  and  C_26
REMARK                            x       y       z     vdW  Elec       q    Type
REMARK                         _______ _______ _______ _____ _____    ______ ____
ROOT
ATOM      1  C   UNL     1      44.742   5.550  11.333  0.00  0.00    +0.000 A 
ATOM      2  C   UNL     1      44.688   6.950  11.271  0.00  0.00    +0.000 A 
ATOM      3  C   UNL     1      45.580   7.735  12.010  0.00  0.00    +0.000 A 
ATOM      4  C   UNL     1      46.557   7.138  12.818  0.00  0.00    +0.000 A 
ATOM      5  C   UNL     1      46.603   5.741  12.891  0.00  0.00    +0.000 A 
ATOM      6  C   UNL     1      45.712   4.955  12.151  0.00  0.00    +0.000 A 
ENDROOT
BRANCH   1   7
ATOM      7  C   UNL     1      43.742   4.707  10.571  0.00  0.00    +0.000 C 
BRANCH   7   8
ATOM      8  C   UNL     1      44.287   3.536   9.726  0.00  0.00    +0.000 C 
BRANCH   8   9
ATOM      9  N   UNL     1      44.821   2.426  10.543  0.00  0.00    +0.000 NA
ATOM     10  H   UNL     1      44.517   2.519  11.509  0.00  0.00    +0.000 HD
ATOM     11  H   UNL     1      45.843   2.522  10.556  0.00  0.00    +0.000 HD
ENDBRANCH   8   9
BRANCH   8  12
ATOM     12  C   UNL     1      45.371   3.988   8.729  0.00  0.00    +0.000 C 
ATOM     13  O   UNL     1      45.579   5.183   8.501  0.00  0.00    +0.000 OA
BRANCH  12  14
ATOM     14  C   UNL     1      46.194   2.975   7.992  0.00  0.00    +0.000 A 
ATOM     15  C   UNL     1      47.093   3.300   6.976  0.00  0.00    +0.000 A 
ATOM     16  C   UNL     1      47.774   2.267   6.350  0.00  0.00    +0.000 A 
ATOM     17  N   UNL     1      47.629   0.966   6.671  0.00  0.00    +0.000 NA
ATOM     18  C   UNL     1      46.757   0.673   7.656  0.00  0.00    +0.000 A 
ATOM     19  C   UNL     1      46.026   1.630   8.337  0.00  0.00    +0.000 A 
ENDBRANCH  12  14
ENDBRANCH   8  12
ENDBRANCH   7   8
ENDBRANCH   1   7
BRANCH   4  20
ATOM     20  C   UNL     1      47.508   7.978  13.630  0.00  0.00    +0.000 C 
BRANCH  20  21
ATOM     21  N   UNL     1      47.779   7.370  14.908  0.00  0.00    +0.000 N 
ATOM     22  C   UNL     1      49.062   7.127  15.326  0.00  0.00    +0.000 C 
ATOM     23  O   UNL     1      50.038   7.438  14.649  0.00  0.00    +0.000 OA
ATOM     24  H   UNL     1      47.004   6.908  15.373  0.00  0.00    +0.000 HD
BRANCH  22  25
ATOM     25  C   UNL     1      49.213   6.539  16.663  0.00  0.00    +0.000 A 
ATOM     26  C   UNL     1      49.872   7.251  17.657  0.00  0.00    +0.000 A 
ATOM     27  S   UNL     1      49.897   6.458  19.167  0.00  0.00    +0.000 S 
ATOM     28  C   UNL     1      49.080   5.107  18.531  0.00  0.00    +0.000 A 
ATOM     29  N   UNL     1      48.798   4.031  19.314  0.00  0.00    +0.000 NA
ATOM     30  C   UNL     1      48.203   3.064  18.695  0.00  0.00    +0.000 A 
ATOM     31  N   UNL     1      47.867   3.077  17.369  0.00  0.00    +0.000 N 
ATOM     32  C   UNL     1      48.108   4.154  16.545  0.00  0.00    +0.000 A 
ATOM     33  O   UNL     1      47.758   4.147  15.369  0.00  0.00    +0.000 OA
ATOM     34  C   UNL     1      48.779   5.265  17.188  0.00  0.00    +0.000 A 
ATOM     35  H   UNL     1      47.399   2.290  16.945  0.00  0.00    +0.000 HD
ENDBRANCH  22  25
ENDBRANCH  20  21
ENDBRANCH   4  20
TORSDOF 8
ENDMDL
MODEL 7
REMARK VINA RESULT:    -6.845      4.278      8.736
REMARK INTER + INTRA:         -10.978
REMARK INTER:                  -8.581
REMARK INTRA:                  -2.397
REMARK UNBOUND:                -1.133
REMARK  Name = 
REMARK  8 active torsions:
REMARK  status: ('A' for Active; 'I' for Inactive)
REMARK    1  A    between atoms: N_1  and  C_2
REMARK    2  A    between atoms: C_2  and  C_3
REMARK    3  A    between atoms: C_2  and  C_24
REMARK    4  A    between atoms: C_3  and  C_4
REMARK    5  A    between atoms: C_7  and  C_8
REMARK    6  A    between atoms: C_8  and  N_9
REMARK    7  A    between atoms: C_10  and  C_12
REMARK    8  A    between atoms: C_24  and  C_26
REMARK                            x       y       z     vdW  Elec       q    Type
REMARK                         _______ _______ _______ _____ _____    ______ ____
ROOT
ATOM      1  C   UNL     1      50.867   7.092  18.171  0.00  0.00    +0.000 A 
ATOM      2  C   UNL     1      49.834   7.878  18.700  0.00  0.00    +0.000 A 
ATOM      3  C   UNL     1      49.016   8.645  17.863  0.00  0.00    +0.000 A 
ATOM      4  C   UNL     1      49.202   8.632  16.475  0.00  0.00    +0.000 A 
ATOM      5  C   UNL     1      50.242   7.858  15.946  0.00  0.00    +0.000 A 
ATOM      6  C   UNL     1      51.061   7.090  16.783  0.00  0.00    +0.000 A 
ENDROOT
BRANCH   1   7
ATOM      7  C   UNL     1      51.782   6.305  19.086  0.00  0.00    +0.000 C 
BRANCH   7   8
ATOM      8  C   UNL     1      51.301   4.917  19.559  0.00  0.00    +0.000 C 
BRANCH   8   9
ATOM      9  N   UNL     1      52.224   4.273  20.516  0.00  0.00    +0.000 NA
ATOM     10  H   UNL     1      51.712   3.928  21.324  0.00  0.00    +0.000 HD
ATOM     11  H   UNL     1      52.855   5.003  20.869  0.00  0.00    +0.000 HD
ENDBRANCH   8   9
BRANCH   8  12
ATOM     12  C   UNL     1      51.049   3.953  18.383  0.00  0.00    +0.000 C 
ATOM     13  O   UNL     1      51.977   3.357  17.830  0.00  0.00    +0.000 OA
BRANCH  12  14
ATOM     14  C   UNL     1      49.659   3.729  17.869  0.00  0.00    +0.000 A 
ATOM     15  C   UNL     1      48.563   4.506  18.243  0.00  0.00    +0.000 A 
ATOM     16  C   UNL     1      47.320   4.179  17.720  0.00  0.00    +0.000 A 
ATOM     17  N   UNL     1      47.109   3.162  16.862  0.00  0.00    +0.000 NA
ATOM     18  C   UNL     1      48.181   2.424  16.512  0.00  0.00    +0.000 A 
ATOM     19  C   UNL     1      49.459   2.666  16.982  0.00  0.00    +0.000 A 
ENDBRANCH  12  14
ENDBRANCH   8  12
ENDBRANCH   7   8
ENDBRANCH   1   7
BRANCH   4  20
ATOM     20  C   UNL     1      48.336   9.469  15.570  0.00  0.00    +0.000 C 
BRANCH  20  21
ATOM     21  N   UNL     1      47.383   8.653  14.860  0.00  0.00    +0.000 N 
ATOM     22  C   UNL     1      47.469   8.469  13.505  0.00  0.00    +0.000 C 
ATOM     23  O   UNL     1      48.372   8.966  12.835  0.00  0.00    +0.000 OA
ATOM     24  H   UNL     1      46.520   8.426  15.344  0.00  0.00    +0.000 HD
BRANCH  22  25
ATOM     25  C   UNL     1      46.464   7.586  12.900  0.00  0.00    +0.000 A 
ATOM     26  C   UNL     1      45.483   8.122  12.076  0.00  0.00    +0.000 A 
ATOM     27  S   UNL     1      44.443   6.953  11.398  0.00  0.00    +0.000 S 
ATOM     28  C   UNL     1      45.229   5.693  12.231  0.00  0.00    +0.000 A 
ATOM     29  N   UNL     1      44.808   4.406  12.104  0.00  0.00    +0.000 NA
ATOM     30  C   UNL     1      45.474   3.557  12.816  0.00  0.00    +0.000 A 
ATOM     31  N   UNL     1      46.519   3.877  13.638  0.00  0.00    +0.000 N 
ATOM     32  C   UNL     1      46.997   5.163  13.775  0.00  0.00    +0.000 A 
ATOM     33  O   UNL     1      47.962   5.410  14.492  0.00  0.00    +0.000 OA
ATOM     34  C   UNL     1      46.280   6.157  13.002  0.00  0.00    +0.000 A 
ATOM     35  H   UNL     1      47.003   3.166  14.165  0.00  0.00    +0.000 HD
ENDBRANCH  22  25
ENDBRANCH  20  21
ENDBRANCH   4  20
TORSDOF 8
ENDMDL
MODEL 8
REMARK VINA RESULT:    -6.703      2.217      3.177
REMARK INTER + INTRA:         -10.775
REMARK INTER:                  -9.587
REMARK INTRA:                  -1.188
REMARK UNBOUND:                -1.133
REMARK  Name = 
REMARK  8 active torsions:
REMARK  status: ('A' for Active; 'I' for Inactive)
REMARK    1  A    between atoms: N_1  and  C_2
REMARK    2  A    between atoms: C_2  and  C_3
REMARK    3  A    between atoms: C_2  and  C_24
REMARK    4  A    between atoms: C_3  and  C_4
REMARK    5  A    between atoms: C_7  and  C_8
REMARK    6  A    between atoms: C_8  and  N_9
REMARK    7  A    between atoms: C_10  and  C_12
REMARK    8  A    between atoms: C_24  and  C_26
REMARK                            x       y       z     vdW  Elec       q    Type
REMARK                         _______ _______ _______ _____ _____    ______ ____
ROOT
ATOM      1  C   UNL     1      46.471   5.299  13.022  0.00  0.00    +0.000 A 
ATOM      2  C   UNL     1      46.093   6.535  12.479  0.00  0.00    +0.000 A 
ATOM      3  C   UNL     1      46.633   7.729  12.971  0.00  0.00    +0.000 A 
ATOM      4  C   UNL     1      47.575   7.714  14.008  0.00  0.00    +0.000 A 
ATOM      5  C   UNL     1      47.943   6.480  14.560  0.00  0.00    +0.000 A 
ATOM      6  C   UNL     1      47.404   5.286  14.068  0.00  0.00    +0.000 A 
ENDROOT
BRANCH   1   7
ATOM      7  C   UNL     1      45.845   4.015  12.520  0.00  0.00    +0.000 C 
BRANCH   7   8
ATOM      8  C   UNL     1      44.342   4.041  12.169  0.00  0.00    +0.000 C 
BRANCH   8   9
ATOM      9  N   UNL     1      43.468   3.745  13.324  0.00  0.00    +0.000 NA
ATOM     10  H   UNL     1      42.809   3.006  13.089  0.00  0.00    +0.000 HD
ATOM     11  H   UNL     1      42.904   4.584  13.501  0.00  0.00    +0.000 HD
ENDBRANCH   8   9
BRANCH   8  12
ATOM     12  C   UNL     1      43.993   3.076  11.018  0.00  0.00    +0.000 C 
ATOM     13  O   UNL     1      43.066   2.268  11.116  0.00  0.00    +0.000 OA
BRANCH  12  14
ATOM     14  C   UNL     1      44.791   3.087   9.750  0.00  0.00    +0.000 A 
ATOM     15  C   UNL     1      45.284   1.936   9.137  0.00  0.00    +0.000 A 
ATOM     16  C   UNL     1      46.035   2.081   7.980  0.00  0.00    +0.000 A 
ATOM     17  N   UNL     1      46.309   3.269   7.405  0.00  0.00    +0.000 NA
ATOM     18  C   UNL     1      45.821   4.369   8.012  0.00  0.00    +0.000 A 
ATOM     19  C   UNL     1      45.067   4.330   9.170  0.00  0.00    +0.000 A 
ENDBRANCH  12  14
ENDBRANCH   8  12
ENDBRANCH   7   8
ENDBRANCH   1   7
BRANCH   4  20
ATOM     20  C   UNL     1      48.146   8.996  14.554  0.00  0.00    +0.000 C 
BRANCH  20  21
ATOM     21  N   UNL     1      47.771   9.189  15.932  0.00  0.00    +0.000 N 
ATOM     22  C   UNL     1      48.361  10.154  16.706  0.00  0.00    +0.000 C 
ATOM     23  O   UNL     1      49.215  10.916  16.258  0.00  0.00    +0.000 OA
ATOM     24  H   UNL     1      47.246   8.442  16.375  0.00  0.00    +0.000 HD
BRANCH  22  25
ATOM     25  C   UNL     1      47.868  10.280  18.083  0.00  0.00    +0.000 A 
ATOM     26  C   UNL     1      47.408  11.508  18.539  0.00  0.00    +0.000 A 
ATOM     27  S   UNL     1      46.804  11.465  20.133  0.00  0.00    +0.000 S 
ATOM     28  C   UNL     1      47.193   9.816  20.293  0.00  0.00    +0.000 A 
ATOM     29  N   UNL     1      46.948   9.153  21.455  0.00  0.00    +0.000 NA
ATOM     30  C   UNL     1      47.322   7.915  21.448  0.00  0.00    +0.000 A 
ATOM     31  N   UNL     1      47.915   7.284  20.389  0.00  0.00    +0.000 N 
ATOM     32  C   UNL     1      48.156   7.909  19.185  0.00  0.00    +0.000 A 
ATOM     33  O   UNL     1      48.655   7.302  18.242  0.00  0.00    +0.000 OA
ATOM     34  C   UNL     1      47.761   9.302  19.140  0.00  0.00    +0.000 A 
ATOM     35  H   UNL     1      48.180   6.312  20.446  0.00  0.00    +0.000 HD
ENDBRANCH  22  25
ENDBRANCH  20  21
ENDBRANCH   4  20
TORSDOF 8
ENDMDL
MODEL 9
REMARK VINA RESULT:    -6.606      4.290      6.213
REMARK INTER + INTRA:         -10.636
REMARK INTER:                  -9.347
REMARK INTRA:                  -1.288
REMARK UNBOUND:                -1.133
REMARK  Name = 
REMARK  8 active torsions:
REMARK  status: ('A' for Active; 'I' for Inactive)
REMARK    1  A    between atoms: N_1  and  C_2
REMARK    2  A    between atoms: C_2  and  C_3
REMARK    3  A    between atoms: C_2  and  C_24
REMARK    4  A    between atoms: C_3  and  C_4
REMARK    5  A    between atoms: C_7  and  C_8
REMARK    6  A    between atoms: C_8  and  N_9
REMARK    7  A    between atoms: C_10  and  C_12
REMARK    8  A    between atoms: C_24  and  C_26
REMARK                            x       y       z     vdW  Elec       q    Type
REMARK                         _______ _______ _______ _____ _____    ______ ____
ROOT
ATOM      1  C   UNL     1      45.806   6.326  12.739  0.00  0.00    +0.000 A 
ATOM      2  C   UNL     1      45.433   7.668  12.587  0.00  0.00    +0.000 A 
ATOM      3  C   UNL     1      46.291   8.700  12.983  0.00  0.00    +0.000 A 
ATOM      4  C   UNL     1      47.549   8.413  13.527  0.00  0.00    +0.000 A 
ATOM      5  C   UNL     1      47.918   7.072  13.693  0.00  0.00    +0.000 A 
ATOM      6  C   UNL     1      47.060   6.040  13.296  0.00  0.00    +0.000 A 
ENDROOT
BRANCH   1   7
ATOM      7  C   UNL     1      44.852   5.214  12.356  0.00  0.00    +0.000 C 
BRANCH   7   8
ATOM      8  C   UNL     1      44.301   5.208  10.914  0.00  0.00    +0.000 C 
BRANCH   8   9
ATOM      9  N   UNL     1      42.984   5.868  10.789  0.00  0.00    +0.000 NA
ATOM     10  H   UNL     1      43.100   6.835  10.498  0.00  0.00    +0.000 HD
ATOM     11  H   UNL     1      42.569   5.898  11.726  0.00  0.00    +0.000 HD
ENDBRANCH   8   9
BRANCH   8  12
ATOM     12  C   UNL     1      44.204   3.784  10.330  0.00  0.00    +0.000 C 
ATOM     13  O   UNL     1      43.385   2.968  10.760  0.00  0.00    +0.000 OA
BRANCH  12  14
ATOM     14  C   UNL     1      45.123   3.352   9.229  0.00  0.00    +0.000 A 
ATOM     15  C   UNL     1      45.703   4.232   8.315  0.00  0.00    +0.000 A 
ATOM     16  C   UNL     1      46.514   3.703   7.322  0.00  0.00    +0.000 A 
ATOM     17  N   UNL     1      46.786   2.390   7.192  0.00  0.00    +0.000 NA
ATOM     18  C   UNL     1      46.217   1.557   8.086  0.00  0.00    +0.000 A 
ATOM     19  C   UNL     1      45.391   1.984   9.108  0.00  0.00    +0.000 A 
ENDBRANCH  12  14
ENDBRANCH   8  12
ENDBRANCH   7   8
ENDBRANCH   1   7
BRANCH   4  20
ATOM     20  C   UNL     1      48.470   9.519  13.973  0.00  0.00    +0.000 C 
BRANCH  20  21
ATOM     21  N   UNL     1      49.692   9.520  13.207  0.00  0.00    +0.000 N 
ATOM     22  C   UNL     1      50.883   9.130  13.761  0.00  0.00    +0.000 C 
ATOM     23  O   UNL     1      50.965   8.738  14.923  0.00  0.00    +0.000 OA
ATOM     24  H   UNL     1      49.690  10.043  12.337  0.00  0.00    +0.000 HD
BRANCH  22  25
ATOM     25  C   UNL     1      52.051   9.136  12.872  0.00  0.00    +0.000 A 
ATOM     26  C   UNL     1      53.178   9.868  13.221  0.00  0.00    +0.000 A 
ATOM     27  S   UNL     1      54.469   9.708  12.117  0.00  0.00    +0.000 S 
ATOM     28  C   UNL     1      53.545   8.703  11.100  0.00  0.00    +0.000 A 
ATOM     29  N   UNL     1      54.065   8.220   9.940  0.00  0.00    +0.000 NA
ATOM     30  C   UNL     1      53.244   7.496   9.251  0.00  0.00    +0.000 A 
ATOM     31  N   UNL     1      51.957   7.213   9.617  0.00  0.00    +0.000 N 
ATOM     32  C   UNL     1      51.399   7.657  10.796  0.00  0.00    +0.000 A 
ATOM     33  O   UNL     1      50.253   7.352  11.112  0.00  0.00    +0.000 OA
ATOM     34  C   UNL     1      52.275   8.480  11.604  0.00  0.00    +0.000 A 
ATOM     35  H   UNL     1      51.367   6.637   9.036  0.00  0.00    +0.000 HD
ENDBRANCH  22  25
ENDBRANCH  20  21
ENDBRANCH   4  20
TORSDOF 8
ENDMDL
