MODEL 1
REMARK VINA RESULT:    -6.509      0.000      0.000
REMARK INTER + INTRA:          -9.022
REMARK INTER:                  -8.411
REMARK INTRA:                  -0.610
REMARK UNBOUND:                -0.610
REMARK  Name = 
REMARK  7 active torsions:
REMARK  status: ('A' for Active; 'I' for Inactive)
REMARK    1  A    between atoms: C_1  and  C_2
REMARK    2  A    between atoms: C_6  and  C_7
REMARK    3  A    between atoms: C_8  and  C_9
REMARK    4  A    between atoms: C_12  and  C_13
REMARK    5  A    between atoms: C_13  and  N_14
REMARK    6  A    between atoms: C_15  and  C_17
REMARK    7  A    between atoms: C_24  and  C_25
REMARK                            x       y       z     vdW  Elec       q    Type
REMARK                         _______ _______ _______ _____ _____    ______ ____
ROOT
ATOM      1  C   UNL     1      45.284   6.714  12.328  0.00  0.00    +0.000 A 
ATOM      2  C   UNL     1      44.489   5.703  12.847  0.00  0.00    +0.000 A 
ATOM      3  N   UNL     1      44.993   4.650  13.541  0.00  0.00    +0.000 NA
ATOM      4  C   UNL     1      46.346   4.639  13.691  0.00  0.00    +0.000 A 
ATOM      5  C   UNL     1      47.142   5.647  13.147  0.00  0.00    +0.000 A 
ATOM      6  N   UNL     1      46.633   6.701  12.453  0.00  0.00    +0.000 NA
ENDROOT
BRANCH   1   8
ATOM      7  C   UNL     1      44.217   8.812  11.159  0.00  0.00    +0.000 C 
ATOM      8  C   UNL     1      44.726   7.866  11.690  0.00  0.00    +0.000 C 
BRANCH   7  14
ATOM      9  C   UNL     1      40.142  11.148  10.096  0.00  0.00    +0.000 C 
ATOM     10  C   UNL     1      41.639  11.068  10.071  0.00  0.00    +0.000 A 
ATOM     11  C   UNL     1      42.393  12.094   9.499  0.00  0.00    +0.000 A 
ATOM     12  N   UNL     1      43.746  12.073   9.456  0.00  0.00    +0.000 NA
ATOM     13  C   UNL     1      44.322  10.979  10.009  0.00  0.00    +0.000 A 
ATOM     14  C   UNL     1      43.581   9.952  10.575  0.00  0.00    +0.000 A 
ATOM     15  N   UNL     1      42.227   9.974  10.621  0.00  0.00    +0.000 NA
ENDBRANCH   7  14
ENDBRANCH   1   8
BRANCH   4  16
ATOM     16  C   UNL     1      46.952   3.525  14.507  0.00  0.00    +0.000 C 
BRANCH  16  17
ATOM     17  N   UNL     1      47.807   4.010  15.578  0.00  0.00    +0.000 N 
ATOM     18  C   UNL     1      47.486   3.808  16.895  0.00  0.00    +0.000 C 
ATOM     19  O   UNL     1      46.491   3.157  17.211  0.00  0.00    +0.000 OA
ATOM     20  H   UNL     1      48.565   4.627  15.330  0.00  0.00    +0.000 HD
BRANCH  18  21
ATOM     21  C   UNL     1      48.289   4.525  17.892  0.00  0.00    +0.000 A 
ATOM     22  C   UNL     1      47.627   5.432  18.715  0.00  0.00    +0.000 A 
ATOM     23  S   UNL     1      48.668   6.383  19.656  0.00  0.00    +0.000 S 
ATOM     24  C   UNL     1      50.030   5.677  18.929  0.00  0.00    +0.000 A 
ATOM     25  N   UNL     1      51.242   6.210  19.167  0.00  0.00    +0.000 NA
ATOM     26  C   UNL     1      52.253   5.563  18.578  0.00  0.00    +0.000 A 
ATOM     27  C   UNL     1      52.128   4.355  17.922  0.00  0.00    +0.000 A 
ATOM     28  C   UNL     1      50.859   3.763  17.766  0.00  0.00    +0.000 A 
ATOM     29  C   UNL     1      50.827   2.322  17.318  0.00  0.00    +0.000 C 
ATOM     30  C   UNL     1      49.729   4.551  18.150  0.00  0.00    +0.000 A 
ENDBRANCH  18  21
ENDBRANCH  16  17
ENDBRANCH   4  16
TORSDOF 5
ENDMDL
MODEL 2
REMARK VINA RESULT:    -6.085      1.872      2.769
REMARK INTER + INTRA:          -8.474
REMARK INTER:                  -7.881
REMARK INTRA:                  -0.593
REMARK UNBOUND:                -0.610
REMARK  Name = 
REMARK  7 active torsions:
REMARK  status: ('A' for Active; 'I' for Inactive)
REMARK    1  A    between atoms: C_1  and  C_2
REMARK    2  A    between atoms: C_6  and  C_7
REMARK    3  A    between atoms: C_8  and  C_9
REMARK    4  A    between atoms: C_12  and  C_13
REMARK    5  A    between atoms: C_13  and  N_14
REMARK    6  A    between atoms: C_15  and  C_17
REMARK    7  A    between atoms: C_24  and  C_25
REMARK                            x       y       z     vdW  Elec       q    Type
REMARK                         _______ _______ _______ _____ _____    ______ ____
ROOT
ATOM      1  C   UNL     1      45.079   6.936  12.189  0.00  0.00    +0.000 A 
ATOM      2  C   UNL     1      44.418   5.923  12.866  0.00  0.00    +0.000 A 
ATOM      3  N   UNL     1      45.060   5.000  13.628  0.00  0.00    +0.000 NA
ATOM      4  C   UNL     1      46.415   5.122  13.678  0.00  0.00    +0.000 A 
ATOM      5  C   UNL     1      47.077   6.129  12.976  0.00  0.00    +0.000 A 
ATOM      6  N   UNL     1      46.429   7.053  12.216  0.00  0.00    +0.000 NA
ENDROOT
BRANCH   1   8
ATOM      7  C   UNL     1      43.770   8.828  10.920  0.00  0.00    +0.000 C 
ATOM      8  C   UNL     1      44.377   7.958  11.478  0.00  0.00    +0.000 C 
BRANCH   7  14
ATOM      9  C   UNL     1      39.682  11.303  10.327  0.00  0.00    +0.000 C 
ATOM     10  C   UNL     1      41.130  11.089  10.004  0.00  0.00    +0.000 A 
ATOM     11  C   UNL     1      41.789  11.935   9.112  0.00  0.00    +0.000 A 
ATOM     12  N   UNL     1      43.096  11.789   8.791  0.00  0.00    +0.000 NA
ATOM     13  C   UNL     1      43.725  10.756   9.401  0.00  0.00    +0.000 A 
ATOM     14  C   UNL     1      43.078   9.907  10.286  0.00  0.00    +0.000 A 
ATOM     15  N   UNL     1      41.770  10.055  10.609  0.00  0.00    +0.000 NA
ENDBRANCH   7  14
ENDBRANCH   1   8
BRANCH   4  16
ATOM     16  C   UNL     1      47.173   4.160  14.559  0.00  0.00    +0.000 C 
BRANCH  16  17
ATOM     17  N   UNL     1      47.273   4.613  15.936  0.00  0.00    +0.000 N 
ATOM     18  C   UNL     1      48.319   5.389  16.360  0.00  0.00    +0.000 C 
ATOM     19  O   UNL     1      49.180   5.776  15.570  0.00  0.00    +0.000 OA
ATOM     20  H   UNL     1      46.630   4.220  16.607  0.00  0.00    +0.000 HD
BRANCH  18  21
ATOM     21  C   UNL     1      48.445   5.604  17.806  0.00  0.00    +0.000 A 
ATOM     22  C   UNL     1      48.748   4.498  18.594  0.00  0.00    +0.000 A 
ATOM     23  S   UNL     1      48.629   4.794  20.259  0.00  0.00    +0.000 S 
ATOM     24  C   UNL     1      48.083   6.376  19.975  0.00  0.00    +0.000 A 
ATOM     25  N   UNL     1      47.614   7.096  21.011  0.00  0.00    +0.000 NA
ATOM     26  C   UNL     1      47.241   8.340  20.692  0.00  0.00    +0.000 A 
ATOM     27  C   UNL     1      47.463   8.930  19.464  0.00  0.00    +0.000 A 
ATOM     28  C   UNL     1      48.046   8.187  18.418  0.00  0.00    +0.000 A 
ATOM     29  C   UNL     1      48.536   8.961  17.219  0.00  0.00    +0.000 C 
ATOM     30  C   UNL     1      48.215   6.784  18.641  0.00  0.00    +0.000 A 
ENDBRANCH  18  21
ENDBRANCH  16  17
ENDBRANCH   4  16
TORSDOF 5
ENDMDL
MODEL 3
REMARK VINA RESULT:    -6.023      4.025      5.510
REMARK INTER + INTRA:          -8.394
REMARK INTER:                  -7.773
REMARK INTRA:                  -0.620
REMARK UNBOUND:                -0.610
REMARK  Name = 
REMARK  7 active torsions:
REMARK  status: ('A' for Active; 'I' for Inactive)
REMARK    1  A    between atoms: C_1  and  C_2
REMARK    2  A    between atoms: C_6  and  C_7
REMARK    3  A    between atoms: C_8  and  C_9
REMARK    4  A    between atoms: C_12  and  C_13
REMARK    5  A    between atoms: C_13  and  N_14
REMARK    6  A    between atoms: C_15  and  C_17
REMARK    7  A    between atoms: C_24  and  C_25
REMARK                            x       y       z     vdW  Elec       q    Type
REMARK                         _______ _______ _______ _____ _____    ______ ____
ROOT
ATOM      1  C   UNL     1      48.431   6.421  14.574  0.00  0.00    +0.000 A 
ATOM      2  C   UNL     1      49.451   7.245  14.124  0.00  0.00    +0.000 A 
ATOM      3  N   UNL     1      50.587   7.469  14.834  0.00  0.00    +0.000 NA
ATOM      4  C   UNL     1      50.662   6.836  16.037  0.00  0.00    +0.000 A 
ATOM      5  C   UNL     1      49.622   6.027  16.494  0.00  0.00    +0.000 A 
ATOM      6  N   UNL     1      48.487   5.804  15.779  0.00  0.00    +0.000 NA
ENDROOT
BRANCH   1   8
ATOM      7  C   UNL     1      46.331   5.822  13.113  0.00  0.00    +0.000 C 
ATOM      8  C   UNL     1      47.290   6.116  13.767  0.00  0.00    +0.000 C 
BRANCH   7  14
ATOM      9  C   UNL     1      44.360   4.185   9.034  0.00  0.00    +0.000 C 
ATOM     10  C   UNL     1      44.212   4.688  10.439  0.00  0.00    +0.000 A 
ATOM     11  C   UNL     1      42.949   4.801  11.021  0.00  0.00    +0.000 A 
ATOM     12  N   UNL     1      42.762   5.244  12.287  0.00  0.00    +0.000 NA
ATOM     13  C   UNL     1      43.893   5.575  12.953  0.00  0.00    +0.000 A 
ATOM     14  C   UNL     1      45.152   5.471  12.382  0.00  0.00    +0.000 A 
ATOM     15  N   UNL     1      45.341   5.025  11.116  0.00  0.00    +0.000 NA
ENDBRANCH   7  14
ENDBRANCH   1   8
BRANCH   4  16
ATOM     16  C   UNL     1      51.928   7.002  16.839  0.00  0.00    +0.000 C 
BRANCH  16  17
ATOM     17  N   UNL     1      52.381   5.759  17.444  0.00  0.00    +0.000 N 
ATOM     18  C   UNL     1      52.241   5.525  18.786  0.00  0.00    +0.000 C 
ATOM     19  O   UNL     1      51.672   6.338  19.514  0.00  0.00    +0.000 OA
ATOM     20  H   UNL     1      52.934   5.136  16.875  0.00  0.00    +0.000 HD
BRANCH  18  21
ATOM     21  C   UNL     1      52.926   4.348  19.330  0.00  0.00    +0.000 A 
ATOM     22  C   UNL     1      53.737   4.537  20.445  0.00  0.00    +0.000 A 
ATOM     23  S   UNL     1      54.673   3.181  20.846  0.00  0.00    +0.000 S 
ATOM     24  C   UNL     1      54.089   2.335  19.495  0.00  0.00    +0.000 A 
ATOM     25  N   UNL     1      54.666   1.164  19.165  0.00  0.00    +0.000 NA
ATOM     26  C   UNL     1      54.113   0.558  18.109  0.00  0.00    +0.000 A 
ATOM     27  C   UNL     1      52.950   0.972  17.492  0.00  0.00    +0.000 A 
ATOM     28  C   UNL     1      52.307   2.152  17.917  0.00  0.00    +0.000 A 
ATOM     29  C   UNL     1      50.900   2.382  17.418  0.00  0.00    +0.000 C 
ATOM     30  C   UNL     1      53.007   2.963  18.864  0.00  0.00    +0.000 A 
ENDBRANCH  18  21
ENDBRANCH  16  17
ENDBRANCH   4  16
TORSDOF 5
ENDMDL
MODEL 4
REMARK VINA RESULT:    -5.806      4.180     10.576
REMARK INTER + INTRA:          -8.113
REMARK INTER:                  -7.498
REMARK INTRA:                  -0.615
REMARK UNBOUND:                -0.610
REMARK  Name = 
REMARK  7 active torsions:
REMARK  status: ('A' for Active; 'I' for Inactive)
REMARK    1  A    between atoms: C_1  and  C_2
REMARK    2  A    between atoms: C_6  and  C_7
REMARK    3  A    between atoms: C_8  and  C_9
REMARK    4  A    between atoms: C_12  and  C_13
REMARK    5  A    between atoms: C_13  and  N_14
REMARK    6  A    between atoms: C_15  and  C_17
REMARK    7  A    between atoms: C_24  and  C_25
REMARK                            x       y       z     vdW  Elec       q    Type
REMARK                         _______ _______ _______ _____ _____    ______ ____
ROOT
ATOM      1  C   UNL     1      49.815   6.439  16.199  0.00  0.00    +0.000 A 
ATOM      2  C   UNL     1      48.606   5.930  15.747  0.00  0.00    +0.000 A 
ATOM      3  N   UNL     1      48.110   6.191  14.511  0.00  0.00    +0.000 NA
ATOM      4  C   UNL     1      48.874   7.005  13.732  0.00  0.00    +0.000 A 
ATOM      5  C   UNL     1      50.077   7.534  14.200  0.00  0.00    +0.000 A 
ATOM      6  N   UNL     1      50.572   7.267  15.439  0.00  0.00    +0.000 NA
ENDROOT
BRANCH   1   8
ATOM      7  C   UNL     1      50.830   5.802  18.537  0.00  0.00    +0.000 C 
ATOM      8  C   UNL     1      50.369   6.069  17.464  0.00  0.00    +0.000 C 
BRANCH   7  14
ATOM      9  C   UNL     1      53.990   3.415  21.278  0.00  0.00    +0.000 C 
ATOM     10  C   UNL     1      52.835   4.363  21.151  0.00  0.00    +0.000 A 
ATOM     11  C   UNL     1      52.268   4.944  22.285  0.00  0.00    +0.000 A 
ATOM     12  N   UNL     1      51.229   5.810  22.224  0.00  0.00    +0.000 NA
ATOM     13  C   UNL     1      50.774   6.074  20.977  0.00  0.00    +0.000 A 
ATOM     14  C   UNL     1      51.328   5.498  19.843  0.00  0.00    +0.000 A 
ATOM     15  N   UNL     1      52.370   4.634  19.903  0.00  0.00    +0.000 NA
ENDBRANCH   7  14
ENDBRANCH   1   8
BRANCH   4  16
ATOM     16  C   UNL     1      48.400   7.279  12.327  0.00  0.00    +0.000 C 
BRANCH  16  17
ATOM     17  N   UNL     1      47.280   6.438  11.935  0.00  0.00    +0.000 N 
ATOM     18  C   UNL     1      46.016   6.947  11.801  0.00  0.00    +0.000 C 
ATOM     19  O   UNL     1      45.798   8.149  11.952  0.00  0.00    +0.000 OA
ATOM     20  H   UNL     1      47.431   5.441  11.908  0.00  0.00    +0.000 HD
BRANCH  18  21
ATOM     21  C   UNL     1      44.926   5.981  11.623  0.00  0.00    +0.000 A 
ATOM     22  C   UNL     1      43.864   6.042  12.521  0.00  0.00    +0.000 A 
ATOM     23  S   UNL     1      42.785   4.741  12.389  0.00  0.00    +0.000 S 
ATOM     24  C   UNL     1      43.750   4.015  11.195  0.00  0.00    +0.000 A 
ATOM     25  N   UNL     1      43.464   2.759  10.807  0.00  0.00    +0.000 NA
ATOM     26  C   UNL     1      44.258   2.289   9.838  0.00  0.00    +0.000 A 
ATOM     27  C   UNL     1      45.183   3.049   9.152  0.00  0.00    +0.000 A 
ATOM     28  C   UNL     1      45.400   4.394   9.512  0.00  0.00    +0.000 A 
ATOM     29  C   UNL     1      46.187   5.243   8.543  0.00  0.00    +0.000 C 
ATOM     30  C   UNL     1      44.761   4.852  10.707  0.00  0.00    +0.000 A 
ENDBRANCH  18  21
ENDBRANCH  16  17
ENDBRANCH   4  16
TORSDOF 5
ENDMDL
MODEL 5
REMARK VINA RESULT:    -5.797      2.517      4.038
REMARK INTER + INTRA:          -8.102
REMARK INTER:                  -7.455
REMARK INTRA:                  -0.646
REMARK UNBOUND:                -0.610
REMARK  Name = 
REMARK  7 active torsions:
REMARK  status: ('A' for Active; 'I' for Inactive)
REMARK    1  A    between atoms: C_1  and  C_2
REMARK    2  A    between atoms: C_6  and  C_7
REMARK    3  A    between atoms: C_8  and  C_9
REMARK    4  A    between atoms: C_12  and  C_13
REMARK    5  A    between atoms: C_13  and  N_14
REMARK    6  A    between atoms: C_15  and  C_17
REMARK    7  A    between atoms: C_24  and  C_25
REMARK                            x       y       z     vdW  Elec       q    Type
REMARK                         _______ _______ _______ _____ _____    ______ ____
ROOT
ATOM      1  C   UNL     1      44.535   9.883  11.480  0.00  0.00    +0.000 A 
ATOM      2  C   UNL     1      44.939   8.598  11.806  0.00  0.00    +0.000 A 
ATOM      3  N   UNL     1      46.207   8.296  12.187  0.00  0.00    +0.000 NA
ATOM      4  C   UNL     1      47.075   9.344  12.219  0.00  0.00    +0.000 A 
ATOM      5  C   UNL     1      46.669  10.631  11.867  0.00  0.00    +0.000 A 
ATOM      6  N   UNL     1      45.397  10.929  11.488  0.00  0.00    +0.000 NA
ENDROOT
BRANCH   1   8
ATOM      7  C   UNL     1      42.025  10.419  10.918  0.00  0.00    +0.000 C 
ATOM      8  C   UNL     1      43.172  10.198  11.182  0.00  0.00    +0.000 C 
BRANCH   7  14
ATOM      9  C   UNL     1      37.428   9.272  11.785  0.00  0.00    +0.000 C 
ATOM     10  C   UNL     1      38.447  10.099  11.060  0.00  0.00    +0.000 A 
ATOM     11  C   UNL     1      38.046  11.074  10.146  0.00  0.00    +0.000 A 
ATOM     12  N   UNL     1      38.925  11.851   9.470  0.00  0.00    +0.000 NA
ATOM     13  C   UNL     1      40.230  11.613   9.742  0.00  0.00    +0.000 A 
ATOM     14  C   UNL     1      40.638  10.643  10.645  0.00  0.00    +0.000 A 
ATOM     15  N   UNL     1      39.759   9.867  11.325  0.00  0.00    +0.000 NA
ENDBRANCH   7  14
ENDBRANCH   1   8
BRANCH   4  16
ATOM     16  C   UNL     1      48.482   9.076  12.693  0.00  0.00    +0.000 C 
BRANCH  16  17
ATOM     17  N   UNL     1      48.534   8.613  14.071  0.00  0.00    +0.000 N 
ATOM     18  C   UNL     1      48.912   7.334  14.381  0.00  0.00    +0.000 C 
ATOM     19  O   UNL     1      49.276   6.551  13.504  0.00  0.00    +0.000 OA
ATOM     20  H   UNL     1      48.143   9.213  14.782  0.00  0.00    +0.000 HD
BRANCH  18  21
ATOM     21  C   UNL     1      48.717   6.902  15.770  0.00  0.00    +0.000 A 
ATOM     22  C   UNL     1      49.107   7.781  16.775  0.00  0.00    +0.000 A 
ATOM     23  S   UNL     1      49.075   7.101  18.328  0.00  0.00    +0.000 S 
ATOM     24  C   UNL     1      48.627   5.590  17.694  0.00  0.00    +0.000 A 
ATOM     25  N   UNL     1      48.631   4.519  18.509  0.00  0.00    +0.000 NA
ATOM     26  C   UNL     1      48.229   3.384  17.926  0.00  0.00    +0.000 A 
ATOM     27  C   UNL     1      47.687   3.307  16.659  0.00  0.00    +0.000 A 
ATOM     28  C   UNL     1      47.603   4.462  15.856  0.00  0.00    +0.000 A 
ATOM     29  C   UNL     1      46.736   4.375  14.623  0.00  0.00    +0.000 C 
ATOM     30  C   UNL     1      48.259   5.635  16.343  0.00  0.00    +0.000 A 
ENDBRANCH  18  21
ENDBRANCH  16  17
ENDBRANCH   4  16
TORSDOF 5
ENDMDL
MODEL 6
REMARK VINA RESULT:    -5.705      7.121      9.473
REMARK INTER + INTRA:          -7.983
REMARK INTER:                  -7.392
REMARK INTRA:                  -0.591
REMARK UNBOUND:                -0.610
REMARK  Name = 
REMARK  7 active torsions:
REMARK  status: ('A' for Active; 'I' for Inactive)
REMARK    1  A    between atoms: C_1  and  C_2
REMARK    2  A    between atoms: C_6  and  C_7
REMARK    3  A    between atoms: C_8  and  C_9
REMARK    4  A    between atoms: C_12  and  C_13
REMARK    5  A    between atoms: C_13  and  N_14
REMARK    6  A    between atoms: C_15  and  C_17
REMARK    7  A    between atoms: C_24  and  C_25
REMARK                            x       y       z     vdW  Elec       q    Type
REMARK                         _______ _______ _______ _____ _____    ______ ____
ROOT
ATOM      1  C   UNL     1      45.989   2.562   7.740  0.00  0.00    +0.000 A 
ATOM      2  C   UNL     1      45.460   2.033   8.908  0.00  0.00    +0.000 A 
ATOM      3  N   UNL     1      44.992   2.804   9.923  0.00  0.00    +0.000 NA
ATOM      4  C   UNL     1      45.085   4.148   9.730  0.00  0.00    +0.000 A 
ATOM      5  C   UNL     1      45.641   4.674   8.564  0.00  0.00    +0.000 A 
ATOM      6  N   UNL     1      46.106   3.898   7.548  0.00  0.00    +0.000 NA
ENDROOT
BRANCH   1   8
ATOM      7  C   UNL     1      46.682   1.010   5.736  0.00  0.00    +0.000 C 
ATOM      8  C   UNL     1      46.381   1.735   6.642  0.00  0.00    +0.000 C 
BRANCH   7  14
ATOM      9  C   UNL     1      46.781  -3.448   3.918  0.00  0.00    +0.000 C 
ATOM     10  C   UNL     1      47.030  -1.977   3.768  0.00  0.00    +0.000 A 
ATOM     11  C   UNL     1      47.535  -1.463   2.573  0.00  0.00    +0.000 A 
ATOM     12  N   UNL     1      47.771  -0.143   2.384  0.00  0.00    +0.000 NA
ATOM     13  C   UNL     1      47.482   0.649   3.444  0.00  0.00    +0.000 A 
ATOM     14  C   UNL     1      46.984   0.147   4.636  0.00  0.00    +0.000 A 
ATOM     15  N   UNL     1      46.745  -1.173   4.825  0.00  0.00    +0.000 NA
ENDBRANCH   7  14
ENDBRANCH   1   8
BRANCH   4  16
ATOM     16  C   UNL     1      44.524   5.051  10.800  0.00  0.00    +0.000 C 
BRANCH  16  17
ATOM     17  N   UNL     1      45.232   6.317  10.899  0.00  0.00    +0.000 N 
ATOM     18  C   UNL     1      45.622   6.825  12.110  0.00  0.00    +0.000 C 
ATOM     19  O   UNL     1      45.436   6.195  13.150  0.00  0.00    +0.000 OA
ATOM     20  H   UNL     1      45.298   6.883  10.067  0.00  0.00    +0.000 HD
BRANCH  18  21
ATOM     21  C   UNL     1      46.124   8.204  12.121  0.00  0.00    +0.000 A 
ATOM     22  C   UNL     1      45.187   9.228  12.037  0.00  0.00    +0.000 A 
ATOM     23  S   UNL     1      45.871  10.763  11.809  0.00  0.00    +0.000 S 
ATOM     24  C   UNL     1      47.430  10.094  11.728  0.00  0.00    +0.000 A 
ATOM     25  N   UNL     1      48.453  10.880  11.345  0.00  0.00    +0.000 NA
ATOM     26  C   UNL     1      49.644  10.271  11.347  0.00  0.00    +0.000 A 
ATOM     27  C   UNL     1      49.873   9.008  11.852  0.00  0.00    +0.000 A 
ATOM     28  C   UNL     1      48.799   8.235  12.338  0.00  0.00    +0.000 A 
ATOM     29  C   UNL     1      49.149   7.008  13.145  0.00  0.00    +0.000 C 
ATOM     30  C   UNL     1      47.483   8.747  12.111  0.00  0.00    +0.000 A 
ENDBRANCH  18  21
ENDBRANCH  16  17
ENDBRANCH   4  16
TORSDOF 5
ENDMDL
MODEL 7
REMARK VINA RESULT:    -5.319      4.631      6.368
REMARK INTER + INTRA:          -7.484
REMARK INTER:                  -6.828
REMARK INTRA:                  -0.656
REMARK UNBOUND:                -0.610
REMARK  Name = 
REMARK  7 active torsions:
REMARK  status: ('A' for Active; 'I' for Inactive)
REMARK    1  A    between atoms: C_1  and  C_2
REMARK    2  A    between atoms: C_6  and  C_7
REMARK    3  A    between atoms: C_8  and  C_9
REMARK    4  A    between atoms: C_12  and  C_13
REMARK    5  A    between atoms: C_13  and  N_14
REMARK    6  A    between atoms: C_15  and  C_17
REMARK    7  A    between atoms: C_24  and  C_25
REMARK                            x       y       z     vdW  Elec       q    Type
REMARK                         _______ _______ _______ _____ _____    ______ ____
ROOT
ATOM      1  C   UNL     1      47.498   7.953  12.215  0.00  0.00    +0.000 A 
ATOM      2  C   UNL     1      48.696   7.751  12.883  0.00  0.00    +0.000 A 
ATOM      3  N   UNL     1      49.288   8.707  13.645  0.00  0.00    +0.000 NA
ATOM      4  C   UNL     1      48.631   9.898  13.706  0.00  0.00    +0.000 A 
ATOM      5  C   UNL     1      47.438  10.103  13.013  0.00  0.00    +0.000 A 
ATOM      6  N   UNL     1      46.848   9.141  12.252  0.00  0.00    +0.000 NA
ENDROOT
BRANCH   1   8
ATOM      7  C   UNL     1      46.263   6.052  10.886  0.00  0.00    +0.000 C 
ATOM      8  C   UNL     1      46.840   6.902  11.503  0.00  0.00    +0.000 C 
BRANCH   7  14
ATOM      9  C   UNL     1      46.040   3.519   6.796  0.00  0.00    +0.000 C 
ATOM     10  C   UNL     1      45.490   3.851   8.151  0.00  0.00    +0.000 A 
ATOM     11  C   UNL     1      44.358   3.196   8.635  0.00  0.00    +0.000 A 
ATOM     12  N   UNL     1      43.825   3.455   9.853  0.00  0.00    +0.000 NA
ATOM     13  C   UNL     1      44.472   4.402  10.573  0.00  0.00    +0.000 A 
ATOM     14  C   UNL     1      45.596   5.061  10.099  0.00  0.00    +0.000 A 
ATOM     15  N   UNL     1      46.131   4.801   8.881  0.00  0.00    +0.000 NA
ENDBRANCH   7  14
ENDBRANCH   1   8
BRANCH   4  16
ATOM     16  C   UNL     1      49.213  10.975  14.587  0.00  0.00    +0.000 C 
BRANCH  16  17
ATOM     17  N   UNL     1      48.462  11.164  15.818  0.00  0.00    +0.000 N 
ATOM     18  C   UNL     1      48.841  10.557  16.986  0.00  0.00    +0.000 C 
ATOM     19  O   UNL     1      49.865   9.877  17.043  0.00  0.00    +0.000 OA
ATOM     20  H   UNL     1      47.572  11.635  15.757  0.00  0.00    +0.000 HD
BRANCH  18  21
ATOM     21  C   UNL     1      47.899  10.629  18.109  0.00  0.00    +0.000 A 
ATOM     22  C   UNL     1      47.225  11.831  18.303  0.00  0.00    +0.000 A 
ATOM     23  S   UNL     1      46.355  11.898  19.757  0.00  0.00    +0.000 S 
ATOM     24  C   UNL     1      46.924  10.363  20.209  0.00  0.00    +0.000 A 
ATOM     25  N   UNL     1      46.692   9.929  21.461  0.00  0.00    +0.000 NA
ATOM     26  C   UNL     1      47.148   8.697  21.709  0.00  0.00    +0.000 A 
ATOM     27  C   UNL     1      47.660   7.847  20.750  0.00  0.00    +0.000 A 
ATOM     28  C   UNL     1      47.806   8.289  19.420  0.00  0.00    +0.000 A 
ATOM     29  C   UNL     1      48.077   7.234  18.374  0.00  0.00    +0.000 C 
ATOM     30  C   UNL     1      47.575   9.679  19.174  0.00  0.00    +0.000 A 
ENDBRANCH  18  21
ENDBRANCH  16  17
ENDBRANCH   4  16
TORSDOF 5
ENDMDL
MODEL 8
REMARK VINA RESULT:    -5.106      2.475      3.516
REMARK INTER + INTRA:          -7.209
REMARK INTER:                  -6.651
REMARK INTRA:                  -0.559
REMARK UNBOUND:                -0.610
REMARK  Name = 
REMARK  7 active torsions:
REMARK  status: ('A' for Active; 'I' for Inactive)
REMARK    1  A    between atoms: C_1  and  C_2
REMARK    2  A    between atoms: C_6  and  C_7
REMARK    3  A    between atoms: C_8  and  C_9
REMARK    4  A    between atoms: C_12  and  C_13
REMARK    5  A    between atoms: C_13  and  N_14
REMARK    6  A    between atoms: C_15  and  C_17
REMARK    7  A    between atoms: C_24  and  C_25
REMARK                            x       y       z     vdW  Elec       q    Type
REMARK                         _______ _______ _______ _____ _____    ______ ____
ROOT
ATOM      1  C   UNL     1      45.040   8.744  11.685  0.00  0.00    +0.000 A 
ATOM      2  C   UNL     1      45.055   7.402  12.035  0.00  0.00    +0.000 A 
ATOM      3  N   UNL     1      46.145   6.788  12.562  0.00  0.00    +0.000 NA
ATOM      4  C   UNL     1      47.244   7.576  12.719  0.00  0.00    +0.000 A 
ATOM      5  C   UNL     1      47.230   8.919  12.344  0.00  0.00    +0.000 A 
ATOM      6  N   UNL     1      46.135   9.531  11.819  0.00  0.00    +0.000 NA
ENDROOT
BRANCH   1   8
ATOM      7  C   UNL     1      42.833   9.910  10.865  0.00  0.00    +0.000 C 
ATOM      8  C   UNL     1      43.852   9.396  11.229  0.00  0.00    +0.000 C 
BRANCH   7  14
ATOM      9  C   UNL     1      38.040  10.122  11.292  0.00  0.00    +0.000 C 
ATOM     10  C   UNL     1      39.316  10.634  10.693  0.00  0.00    +0.000 A 
ATOM     11  C   UNL     1      39.298  11.701   9.794  0.00  0.00    +0.000 A 
ATOM     12  N   UNL     1      40.421  12.204   9.230  0.00  0.00    +0.000 NA
ATOM     13  C   UNL     1      41.572  11.594   9.599  0.00  0.00    +0.000 A 
ATOM     14  C   UNL     1      41.600  10.530  10.488  0.00  0.00    +0.000 A 
ATOM     15  N   UNL     1      40.476  10.028  11.055  0.00  0.00    +0.000 NA
ENDBRANCH   7  14
ENDBRANCH   1   8
BRANCH   4  16
ATOM     16  C   UNL     1      48.464   6.959  13.357  0.00  0.00    +0.000 C 
BRANCH  16  17
ATOM     17  N   UNL     1      48.216   6.485  14.709  0.00  0.00    +0.000 N 
ATOM     18  C   UNL     1      48.971   6.915  15.767  0.00  0.00    +0.000 C 
ATOM     19  O   UNL     1      49.849   7.765  15.614  0.00  0.00    +0.000 OA
ATOM     20  H   UNL     1      47.569   5.719  14.825  0.00  0.00    +0.000 HD
BRANCH  18  21
ATOM     21  C   UNL     1      48.789   6.214  17.043  0.00  0.00    +0.000 A 
ATOM     22  C   UNL     1      48.779   4.823  17.013  0.00  0.00    +0.000 A 
ATOM     23  S   UNL     1      48.320   4.112  18.482  0.00  0.00    +0.000 S 
ATOM     24  C   UNL     1      48.035   5.638  19.171  0.00  0.00    +0.000 A 
ATOM     25  N   UNL     1      47.428   5.704  20.370  0.00  0.00    +0.000 NA
ATOM     26  C   UNL     1      47.281   6.946  20.844  0.00  0.00    +0.000 A 
ATOM     27  C   UNL     1      47.840   8.070  20.272  0.00  0.00    +0.000 A 
ATOM     28  C   UNL     1      48.557   7.965  19.063  0.00  0.00    +0.000 A 
ATOM     29  C   UNL     1      49.390   9.156  18.656  0.00  0.00    +0.000 C 
ATOM     30  C   UNL     1      48.511   6.702  18.394  0.00  0.00    +0.000 A 
ENDBRANCH  18  21
ENDBRANCH  16  17
ENDBRANCH   4  16
TORSDOF 5
ENDMDL
MODEL 9
REMARK VINA RESULT:    -4.936      4.400      5.749
REMARK INTER + INTRA:          -6.989
REMARK INTER:                  -6.322
REMARK INTRA:                  -0.667
REMARK UNBOUND:                -0.610
REMARK  Name = 
REMARK  7 active torsions:
REMARK  status: ('A' for Active; 'I' for Inactive)
REMARK    1  A    between atoms: C_1  and  C_2
REMARK    2  A    between atoms: C_6  and  C_7
REMARK    3  A    between atoms: C_8  and  C_9
REMARK    4  A    between atoms: C_12  and  C_13
REMARK    5  A    between atoms: C_13  and  N_14
REMARK    6  A    between atoms: C_15  and  C_17
REMARK    7  A    between atoms: C_24  and  C_25
REMARK                            x       y       z     vdW  Elec       q    Type
REMARK                         _______ _______ _______ _____ _____    ______ ____
ROOT
ATOM      1  C   UNL     1      48.642   6.820  14.152  0.00  0.00    +0.000 A 
ATOM      2  C   UNL     1      49.528   7.659  13.494  0.00  0.00    +0.000 A 
ATOM      3  N   UNL     1      50.697   8.076  14.043  0.00  0.00    +0.000 NA
ATOM      4  C   UNL     1      50.948   7.626  15.303  0.00  0.00    +0.000 A 
ATOM      5  C   UNL     1      50.042   6.802  15.969  0.00  0.00    +0.000 A 
ATOM      6  N   UNL     1      48.872   6.383  15.415  0.00  0.00    +0.000 NA
ENDROOT
BRANCH   1   8
ATOM      7  C   UNL     1      46.461   5.919  12.997  0.00  0.00    +0.000 C 
ATOM      8  C   UNL     1      47.467   6.308  13.518  0.00  0.00    +0.000 C 
BRANCH   7  14
ATOM      9  C   UNL     1      44.370   4.111   9.053  0.00  0.00    +0.000 C 
ATOM     10  C   UNL     1      44.268   4.633  10.455  0.00  0.00    +0.000 A 
ATOM     11  C   UNL     1      43.033   4.694  11.099  0.00  0.00    +0.000 A 
ATOM     12  N   UNL     1      42.888   5.151  12.366  0.00  0.00    +0.000 NA
ATOM     13  C   UNL     1      44.034   5.550  12.967  0.00  0.00    +0.000 A 
ATOM     14  C   UNL     1      45.266   5.497  12.333  0.00  0.00    +0.000 A 
ATOM     15  N   UNL     1      45.412   5.037  11.067  0.00  0.00    +0.000 NA
ENDBRANCH   7  14
ENDBRANCH   1   8
BRANCH   4  16
ATOM     16  C   UNL     1      52.261   8.010  15.937  0.00  0.00    +0.000 C 
BRANCH  16  17
ATOM     17  N   UNL     1      52.371   7.573  17.319  0.00  0.00    +0.000 N 
ATOM     18  C   UNL     1      52.355   8.468  18.356  0.00  0.00    +0.000 C 
ATOM     19  O   UNL     1      52.189   9.670  18.151  0.00  0.00    +0.000 OA
ATOM     20  H   UNL     1      52.607   6.607  17.487  0.00  0.00    +0.000 HD
BRANCH  18  21
ATOM     21  C   UNL     1      52.695   7.951  19.686  0.00  0.00    +0.000 A 
ATOM     22  C   UNL     1      53.847   8.445  20.290  0.00  0.00    +0.000 A 
ATOM     23  S   UNL     1      54.288   7.615  21.701  0.00  0.00    +0.000 S 
ATOM     24  C   UNL     1      53.007   6.519  21.498  0.00  0.00    +0.000 A 
ATOM     25  N   UNL     1      52.957   5.428  22.285  0.00  0.00    +0.000 NA
ATOM     26  C   UNL     1      51.893   4.646  22.072  0.00  0.00    +0.000 A 
ATOM     27  C   UNL     1      50.832   4.978  21.254  0.00  0.00    +0.000 A 
ATOM     28  C   UNL     1      50.861   6.174  20.510  0.00  0.00    +0.000 A 
ATOM     29  C   UNL     1      49.562   6.621  19.883  0.00  0.00    +0.000 C 
ATOM     30  C   UNL     1      52.091   6.903  20.510  0.00  0.00    +0.000 A 
ENDBRANCH  18  21
ENDBRANCH  16  17
ENDBRANCH   4  16
TORSDOF 5
ENDMDL
