MODEL 1
REMARK VINA RESULT:    -7.494      0.000      0.000
REMARK INTER + INTRA:         -13.766
REMARK INTER:                 -12.314
REMARK INTRA:                  -1.452
REMARK UNBOUND:                -1.452
REMARK  Name = 
REMARK  13 active torsions:
REMARK  status: ('A' for Active; 'I' for Inactive)
REMARK    1  A    between atoms: C_1  and  C_2
REMARK    2  A    between atoms: C_2  and  O_3
REMARK    3  A    between atoms: O_3  and  C_4
REMARK    4  A    between atoms: C_6  and  C_7
REMARK    5  A    between atoms: C_7  and  C_8
REMARK    6  A    between atoms: C_8  and  N_9
REMARK    7  A    between atoms: C_13  and  C_14
REMARK    8  A    between atoms: C_20  and  C_21
REMARK    9  A    between atoms: C_25  and  O_26
REMARK   10  A    between atoms: O_26  and  C_27
REMARK   11  A    between atoms: C_27  and  C_28
REMARK   12  A    between atoms: C_28  and  O_29
REMARK   13  A    between atoms: O_29  and  C_30
REMARK                            x       y       z     vdW  Elec       q    Type
REMARK                         _______ _______ _______ _____ _____    ______ ____
ROOT
ATOM      1  C   UNL     1      46.887   4.671  14.031  0.00  0.00    +0.000 A 
ATOM      2  C   UNL     1      45.544   4.589  13.670  0.00  0.00    +0.000 A 
ATOM      3  C   UNL     1      45.045   5.492  12.726  0.00  0.00    +0.000 A 
ATOM      4  C   UNL     1      45.936   6.450  12.231  0.00  0.00    +0.000 A 
ATOM      5  C   UNL     1      47.258   6.495  12.669  0.00  0.00    +0.000 A 
ATOM      6  N   UNL     1      47.738   5.607  13.568  0.00  0.00    +0.000 NA
ENDROOT
BRANCH   5   7
ATOM      7  C   UNL     1      48.194   7.536  12.213  0.00  0.00    +0.000 A 
ATOM      8  C   UNL     1      49.560   7.247  12.080  0.00  0.00    +0.000 A 
ATOM      9  C   UNL     1      50.472   8.229  11.700  0.00  0.00    +0.000 A 
ATOM     10  C   UNL     1      50.032   9.525  11.434  0.00  0.00    +0.000 A 
ATOM     11  C   UNL     1      48.678   9.841  11.539  0.00  0.00    +0.000 A 
ATOM     12  C   UNL     1      47.774   8.850  11.926  0.00  0.00    +0.000 A 
BRANCH  11  13
ATOM     13  O   UNL     1      48.120  11.067  11.293  0.00  0.00    +0.000 OA
BRANCH  13  14
ATOM     14  C   UNL     1      46.762  11.225  11.699  0.00  0.00    +0.000 C 
BRANCH  14  15
ATOM     15  C   UNL     1      45.938  11.734  10.524  0.00  0.00    +0.000 C 
BRANCH  15  16
ATOM     16  O   UNL     1      44.622  11.188  10.620  0.00  0.00    +0.000 OA
ATOM     17  C   UNL     1      43.997  11.100   9.349  0.00  0.00    +0.000 C 
ENDBRANCH  15  16
ENDBRANCH  14  15
ENDBRANCH  13  14
ENDBRANCH  11  13
ENDBRANCH   5   7
BRANCH   1  18
ATOM     18  O   UNL     1      47.357   3.738  14.932  0.00  0.00    +0.000 OA
BRANCH  18  20
ATOM     19  C   UNL     1      47.333   3.218  17.259  0.00  0.00    +0.000 C 
ATOM     20  C   UNL     1      47.585   4.306  16.229  0.00  0.00    +0.000 C 
ENDBRANCH  18  20
ENDBRANCH   1  18
BRANCH   3  21
ATOM     21  C   UNL     1      43.594   5.433  12.267  0.00  0.00    +0.000 C 
BRANCH  21  22
ATOM     22  C   UNL     1      43.417   4.960  10.810  0.00  0.00    +0.000 C 
BRANCH  22  23
ATOM     23  N   UNL     1      43.671   3.528  10.618  0.00  0.00    +0.000 N 
ATOM     24  C   UNL     1      44.635   3.311   9.600  0.00  0.00    +0.000 A 
ATOM     25  C   UNL     1      45.028   2.009   9.257  0.00  0.00    +0.000 A 
ATOM     26  N   UNL     1      45.946   1.709   8.293  0.00  0.00    +0.000 NA
ATOM     27  C   UNL     1      46.483   2.796   7.672  0.00  0.00    +0.000 A 
ATOM     28  C   UNL     1      46.117   4.088   8.001  0.00  0.00    +0.000 A 
ATOM     29  N   UNL     1      45.201   4.364   8.964  0.00  0.00    +0.000 NA
ATOM     30  H   UNL     1      42.823   3.023  10.369  0.00  0.00    +0.000 HD
BRANCH  27  31
ATOM     31  C   UNL     1      47.495   2.581   6.599  0.00  0.00    +0.000 C 
ATOM     32  N   UNL     1      47.223   3.153   5.382  0.00  0.00    +0.000 N 
ATOM     33  O   UNL     1      48.512   1.930   6.790  0.00  0.00    +0.000 OA
ATOM     34  H   UNL     1      46.373   3.682   5.238  0.00  0.00    +0.000 HD
ATOM     35  H   UNL     1      47.880   3.028   4.626  0.00  0.00    +0.000 HD
ENDBRANCH  27  31
ENDBRANCH  22  23
ENDBRANCH  21  22
ENDBRANCH   3  21
TORSDOF 11
ENDMDL
MODEL 2
REMARK VINA RESULT:    -7.048      2.863      8.324
REMARK INTER + INTRA:         -13.032
REMARK INTER:                 -11.642
REMARK INTRA:                  -1.390
REMARK UNBOUND:                -1.452
REMARK  Name = 
REMARK  13 active torsions:
REMARK  status: ('A' for Active; 'I' for Inactive)
REMARK    1  A    between atoms: C_1  and  C_2
REMARK    2  A    between atoms: C_2  and  O_3
REMARK    3  A    between atoms: O_3  and  C_4
REMARK    4  A    between atoms: C_6  and  C_7
REMARK    5  A    between atoms: C_7  and  C_8
REMARK    6  A    between atoms: C_8  and  N_9
REMARK    7  A    between atoms: C_13  and  C_14
REMARK    8  A    between atoms: C_20  and  C_21
REMARK    9  A    between atoms: C_25  and  O_26
REMARK   10  A    between atoms: O_26  and  C_27
REMARK   11  A    between atoms: C_27  and  C_28
REMARK   12  A    between atoms: C_28  and  O_29
REMARK   13  A    between atoms: O_29  and  C_30
REMARK                            x       y       z     vdW  Elec       q    Type
REMARK                         _______ _______ _______ _____ _____    ______ ____
ROOT
ATOM      1  C   UNL     1      44.729   9.406  11.436  0.00  0.00    +0.000 A 
ATOM      2  C   UNL     1      46.000   9.734  11.902  0.00  0.00    +0.000 A 
ATOM      3  C   UNL     1      46.857   8.704  12.301  0.00  0.00    +0.000 A 
ATOM      4  C   UNL     1      46.355   7.400  12.236  0.00  0.00    +0.000 A 
ATOM      5  C   UNL     1      45.057   7.152  11.795  0.00  0.00    +0.000 A 
ATOM      6  N   UNL     1      44.241   8.151  11.394  0.00  0.00    +0.000 NA
ENDROOT
BRANCH   5   7
ATOM      7  C   UNL     1      44.485   5.794  11.783  0.00  0.00    +0.000 A 
ATOM      8  C   UNL     1      43.814   5.302  12.912  0.00  0.00    +0.000 A 
ATOM      9  C   UNL     1      43.309   4.004  12.942  0.00  0.00    +0.000 A 
ATOM     10  C   UNL     1      43.459   3.171  11.834  0.00  0.00    +0.000 A 
ATOM     11  C   UNL     1      44.104   3.636  10.690  0.00  0.00    +0.000 A 
ATOM     12  C   UNL     1      44.611   4.937  10.672  0.00  0.00    +0.000 A 
BRANCH  11  13
ATOM     13  O   UNL     1      44.303   2.925   9.536  0.00  0.00    +0.000 OA
BRANCH  13  14
ATOM     14  C   UNL     1      44.749   3.677   8.410  0.00  0.00    +0.000 C 
BRANCH  14  15
ATOM     15  C   UNL     1      45.922   2.961   7.754  0.00  0.00    +0.000 C 
BRANCH  15  16
ATOM     16  O   UNL     1      46.030   1.655   8.319  0.00  0.00    +0.000 OA
ATOM     17  C   UNL     1      46.890   0.823   7.555  0.00  0.00    +0.000 C 
ENDBRANCH  15  16
ENDBRANCH  14  15
ENDBRANCH  13  14
ENDBRANCH  11  13
ENDBRANCH   5   7
BRANCH   1  18
ATOM     18  O   UNL     1      43.925  10.443  11.010  0.00  0.00    +0.000 OA
BRANCH  18  20
ATOM     19  C   UNL     1      41.799  11.210  10.251  0.00  0.00    +0.000 C 
ATOM     20  C   UNL     1      42.640   9.986  10.569  0.00  0.00    +0.000 C 
ENDBRANCH  18  20
ENDBRANCH   1  18
BRANCH   3  21
ATOM     21  C   UNL     1      48.270   8.996  12.789  0.00  0.00    +0.000 C 
BRANCH  21  22
ATOM     22  C   UNL     1      48.994   7.771  13.381  0.00  0.00    +0.000 C 
BRANCH  22  23
ATOM     23  N   UNL     1      49.309   7.903  14.809  0.00  0.00    +0.000 N 
ATOM     24  C   UNL     1      48.833   6.786  15.543  0.00  0.00    +0.000 A 
ATOM     25  C   UNL     1      49.031   6.709  16.929  0.00  0.00    +0.000 A 
ATOM     26  N   UNL     1      48.608   5.676  17.712  0.00  0.00    +0.000 NA
ATOM     27  C   UNL     1      47.969   4.682  17.034  0.00  0.00    +0.000 A 
ATOM     28  C   UNL     1      47.772   4.734  15.666  0.00  0.00    +0.000 A 
ATOM     29  N   UNL     1      48.201   5.773  14.906  0.00  0.00    +0.000 NA
ATOM     30  H   UNL     1      48.903   8.747  15.209  0.00  0.00    +0.000 HD
BRANCH  27  31
ATOM     31  C   UNL     1      47.462   3.504  17.795  0.00  0.00    +0.000 C 
ATOM     32  N   UNL     1      48.200   3.122  18.886  0.00  0.00    +0.000 N 
ATOM     33  O   UNL     1      46.447   2.910  17.466  0.00  0.00    +0.000 OA
ATOM     34  H   UNL     1      49.043   3.621  19.140  0.00  0.00    +0.000 HD
ATOM     35  H   UNL     1      47.896   2.327  19.427  0.00  0.00    +0.000 HD
ENDBRANCH  27  31
ENDBRANCH  22  23
ENDBRANCH  21  22
ENDBRANCH   3  21
TORSDOF 11
ENDMDL
MODEL 3
REMARK VINA RESULT:    -6.861      2.452      5.685
REMARK INTER + INTRA:         -12.724
REMARK INTER:                 -11.468
REMARK INTRA:                  -1.256
REMARK UNBOUND:                -1.452
REMARK  Name = 
REMARK  13 active torsions:
REMARK  status: ('A' for Active; 'I' for Inactive)
REMARK    1  A    between atoms: C_1  and  C_2
REMARK    2  A    between atoms: C_2  and  O_3
REMARK    3  A    between atoms: O_3  and  C_4
REMARK    4  A    between atoms: C_6  and  C_7
REMARK    5  A    between atoms: C_7  and  C_8
REMARK    6  A    between atoms: C_8  and  N_9
REMARK    7  A    between atoms: C_13  and  C_14
REMARK    8  A    between atoms: C_20  and  C_21
REMARK    9  A    between atoms: C_25  and  O_26
REMARK   10  A    between atoms: O_26  and  C_27
REMARK   11  A    between atoms: C_27  and  C_28
REMARK   12  A    between atoms: C_28  and  O_29
REMARK   13  A    between atoms: O_29  and  C_30
REMARK                            x       y       z     vdW  Elec       q    Type
REMARK                         _______ _______ _______ _____ _____    ______ ____
ROOT
ATOM      1  C   UNL     1      47.401   6.571  12.167  0.00  0.00    +0.000 A 
ATOM      2  C   UNL     1      46.102   6.386  11.698  0.00  0.00    +0.000 A 
ATOM      3  C   UNL     1      45.210   5.631  12.465  0.00  0.00    +0.000 A 
ATOM      4  C   UNL     1      45.706   5.077  13.651  0.00  0.00    +0.000 A 
ATOM      5  C   UNL     1      47.029   5.273  14.037  0.00  0.00    +0.000 A 
ATOM      6  N   UNL     1      47.880   6.019  13.299  0.00  0.00    +0.000 NA
ENDROOT
BRANCH   5   7
ATOM      7  C   UNL     1      47.589   4.643  15.245  0.00  0.00    +0.000 A 
ATOM      8  C   UNL     1      47.617   3.246  15.364  0.00  0.00    +0.000 A 
ATOM      9  C   UNL     1      48.095   2.630  16.518  0.00  0.00    +0.000 A 
ATOM     10  C   UNL     1      48.567   3.403  17.578  0.00  0.00    +0.000 A 
ATOM     11  C   UNL     1      48.570   4.793  17.484  0.00  0.00    +0.000 A 
ATOM     12  C   UNL     1      48.084   5.401  16.325  0.00  0.00    +0.000 A 
BRANCH  11  13
ATOM     13  O   UNL     1      49.017   5.660  18.445  0.00  0.00    +0.000 OA
BRANCH  13  14
ATOM     14  C   UNL     1      48.045   6.558  18.976  0.00  0.00    +0.000 C 
BRANCH  14  15
ATOM     15  C   UNL     1      48.480   7.015  20.362  0.00  0.00    +0.000 C 
BRANCH  15  16
ATOM     16  O   UNL     1      47.330   7.065  21.206  0.00  0.00    +0.000 OA
ATOM     17  C   UNL     1      47.234   8.307  21.888  0.00  0.00    +0.000 C 
ENDBRANCH  15  16
ENDBRANCH  14  15
ENDBRANCH  13  14
ENDBRANCH  11  13
ENDBRANCH   5   7
BRANCH   1  18
ATOM     18  O   UNL     1      48.242   7.356  11.406  0.00  0.00    +0.000 OA
BRANCH  18  20
ATOM     19  C   UNL     1      49.939   8.961  11.883  0.00  0.00    +0.000 C 
ATOM     20  C   UNL     1      49.536   7.502  12.006  0.00  0.00    +0.000 C 
ENDBRANCH  18  20
ENDBRANCH   1  18
BRANCH   3  21
ATOM     21  C   UNL     1      43.769   5.420  12.022  0.00  0.00    +0.000 C 
BRANCH  21  22
ATOM     22  C   UNL     1      43.628   4.861  10.592  0.00  0.00    +0.000 C 
BRANCH  22  23
ATOM     23  N   UNL     1      44.016   3.451  10.468  0.00  0.00    +0.000 N 
ATOM     24  C   UNL     1      44.879   3.252   9.359  0.00  0.00    +0.000 A 
ATOM     25  C   UNL     1      45.371   1.974   9.060  0.00  0.00    +0.000 A 
ATOM     26  N   UNL     1      46.204   1.693   8.017  0.00  0.00    +0.000 NA
ATOM     27  C   UNL     1      46.546   2.776   7.264  0.00  0.00    +0.000 A 
ATOM     28  C   UNL     1      46.079   4.047   7.548  0.00  0.00    +0.000 A 
ATOM     29  N   UNL     1      45.251   4.304   8.591  0.00  0.00    +0.000 NA
ATOM     30  H   UNL     1      43.206   2.844  10.356  0.00  0.00    +0.000 HD
BRANCH  27  31
ATOM     31  C   UNL     1      47.451   2.580   6.096  0.00  0.00    +0.000 C 
ATOM     32  N   UNL     1      48.783   2.421   6.378  0.00  0.00    +0.000 N 
ATOM     33  O   UNL     1      47.030   2.562   4.948  0.00  0.00    +0.000 OA
ATOM     34  H   UNL     1      49.116   2.446   7.333  0.00  0.00    +0.000 HD
ATOM     35  H   UNL     1      49.432   2.291   5.615  0.00  0.00    +0.000 HD
ENDBRANCH  27  31
ENDBRANCH  22  23
ENDBRANCH  21  22
ENDBRANCH   3  21
TORSDOF 11
ENDMDL
MODEL 4
REMARK VINA RESULT:    -6.655      3.197      7.338
REMARK INTER + INTRA:         -12.387
REMARK INTER:                 -10.977
REMARK INTRA:                  -1.410
REMARK UNBOUND:                -1.452
REMARK  Name = 
REMARK  13 active torsions:
REMARK  status: ('A' for Active; 'I' for Inactive)
REMARK    1  A    between atoms: C_1  and  C_2
REMARK    2  A    between atoms: C_2  and  O_3
REMARK    3  A    between atoms: O_3  and  C_4
REMARK    4  A    between atoms: C_6  and  C_7
REMARK    5  A    between atoms: C_7  and  C_8
REMARK    6  A    between atoms: C_8  and  N_9
REMARK    7  A    between atoms: C_13  and  C_14
REMARK    8  A    between atoms: C_20  and  C_21
REMARK    9  A    between atoms: C_25  and  O_26
REMARK   10  A    between atoms: O_26  and  C_27
REMARK   11  A    between atoms: C_27  and  C_28
REMARK   12  A    between atoms: C_28  and  O_29
REMARK   13  A    between atoms: O_29  and  C_30
REMARK                            x       y       z     vdW  Elec       q    Type
REMARK                         _______ _______ _______ _____ _____    ______ ____
ROOT
ATOM      1  C   UNL     1      48.049   5.777  14.928  0.00  0.00    +0.000 A 
ATOM      2  C   UNL     1      48.407   7.103  14.695  0.00  0.00    +0.000 A 
ATOM      3  C   UNL     1      47.772   7.800  13.664  0.00  0.00    +0.000 A 
ATOM      4  C   UNL     1      46.832   7.093  12.905  0.00  0.00    +0.000 A 
ATOM      5  C   UNL     1      46.554   5.755  13.172  0.00  0.00    +0.000 A 
ATOM      6  N   UNL     1      47.159   5.093  14.183  0.00  0.00    +0.000 NA
ENDROOT
BRANCH   5   7
ATOM      7  C   UNL     1      45.619   4.974  12.344  0.00  0.00    +0.000 A 
ATOM      8  C   UNL     1      44.773   4.027  12.940  0.00  0.00    +0.000 A 
ATOM      9  C   UNL     1      43.918   3.240  12.171  0.00  0.00    +0.000 A 
ATOM     10  C   UNL     1      43.885   3.392  10.785  0.00  0.00    +0.000 A 
ATOM     11  C   UNL     1      44.701   4.337  10.165  0.00  0.00    +0.000 A 
ATOM     12  C   UNL     1      45.558   5.117  10.944  0.00  0.00    +0.000 A 
BRANCH  11  13
ATOM     13  O   UNL     1      44.752   4.592   8.821  0.00  0.00    +0.000 OA
BRANCH  13  14
ATOM     14  C   UNL     1      44.787   3.448   7.970  0.00  0.00    +0.000 C 
BRANCH  14  15
ATOM     15  C   UNL     1      46.233   3.103   7.641  0.00  0.00    +0.000 C 
BRANCH  15  16
ATOM     16  O   UNL     1      46.478   1.751   8.027  0.00  0.00    +0.000 OA
ATOM     17  C   UNL     1      47.396   1.114   7.151  0.00  0.00    +0.000 C 
ENDBRANCH  15  16
ENDBRANCH  14  15
ENDBRANCH  13  14
ENDBRANCH  11  13
ENDBRANCH   5   7
BRANCH   1  18
ATOM     18  O   UNL     1      48.665   5.132  15.981  0.00  0.00    +0.000 OA
BRANCH  18  20
ATOM     19  C   UNL     1      47.240   4.566  17.807  0.00  0.00    +0.000 C 
ATOM     20  C   UNL     1      47.859   4.071  16.512  0.00  0.00    +0.000 C 
ENDBRANCH  18  20
ENDBRANCH   1  18
BRANCH   3  21
ATOM     21  C   UNL     1      48.096   9.261  13.380  0.00  0.00    +0.000 C 
BRANCH  21  22
ATOM     22  C   UNL     1      47.552   9.774  12.032  0.00  0.00    +0.000 C 
BRANCH  22  23
ATOM     23  N   UNL     1      46.815  11.039  12.135  0.00  0.00    +0.000 N 
ATOM     24  C   UNL     1      45.460  10.874  11.749  0.00  0.00    +0.000 A 
ATOM     25  C   UNL     1      44.575  11.961  11.775  0.00  0.00    +0.000 A 
ATOM     26  N   UNL     1      43.259  11.893  11.421  0.00  0.00    +0.000 NA
ATOM     27  C   UNL     1      42.844  10.654  11.037  0.00  0.00    +0.000 A 
ATOM     28  C   UNL     1      43.698   9.567  11.013  0.00  0.00    +0.000 A 
ATOM     29  N   UNL     1      45.004   9.657  11.369  0.00  0.00    +0.000 NA
ATOM     30  H   UNL     1      47.228  11.766  11.555  0.00  0.00    +0.000 HD
BRANCH  27  31
ATOM     31  C   UNL     1      41.423  10.469  10.626  0.00  0.00    +0.000 C 
ATOM     32  N   UNL     1      40.725   9.484  11.276  0.00  0.00    +0.000 N 
ATOM     33  O   UNL     1      40.906  11.156   9.758  0.00  0.00    +0.000 OA
ATOM     34  H   UNL     1      41.170   8.918  11.988  0.00  0.00    +0.000 HD
ATOM     35  H   UNL     1      39.761   9.322  11.026  0.00  0.00    +0.000 HD
ENDBRANCH  27  31
ENDBRANCH  22  23
ENDBRANCH  21  22
ENDBRANCH   3  21
TORSDOF 11
ENDMDL
MODEL 5
REMARK VINA RESULT:    -6.606      1.845      4.973
REMARK INTER + INTRA:         -12.306
REMARK INTER:                 -11.095
REMARK INTRA:                  -1.211
REMARK UNBOUND:                -1.452
REMARK  Name = 
REMARK  13 active torsions:
REMARK  status: ('A' for Active; 'I' for Inactive)
REMARK    1  A    between atoms: C_1  and  C_2
REMARK    2  A    between atoms: C_2  and  O_3
REMARK    3  A    between atoms: O_3  and  C_4
REMARK    4  A    between atoms: C_6  and  C_7
REMARK    5  A    between atoms: C_7  and  C_8
REMARK    6  A    between atoms: C_8  and  N_9
REMARK    7  A    between atoms: C_13  and  C_14
REMARK    8  A    between atoms: C_20  and  C_21
REMARK    9  A    between atoms: C_25  and  O_26
REMARK   10  A    between atoms: O_26  and  C_27
REMARK   11  A    between atoms: C_27  and  C_28
REMARK   12  A    between atoms: C_28  and  O_29
REMARK   13  A    between atoms: O_29  and  C_30
REMARK                            x       y       z     vdW  Elec       q    Type
REMARK                         _______ _______ _______ _____ _____    ______ ____
ROOT
ATOM      1  C   UNL     1      44.884   8.943  11.529  0.00  0.00    +0.000 A 
ATOM      2  C   UNL     1      44.151   7.762  11.433  0.00  0.00    +0.000 A 
ATOM      3  C   UNL     1      44.711   6.580  11.924  0.00  0.00    +0.000 A 
ATOM      4  C   UNL     1      46.004   6.662  12.453  0.00  0.00    +0.000 A 
ATOM      5  C   UNL     1      46.692   7.873  12.480  0.00  0.00    +0.000 A 
ATOM      6  N   UNL     1      46.136   9.016  12.020  0.00  0.00    +0.000 NA
ENDROOT
BRANCH   5   7
ATOM      7  C   UNL     1      48.078   7.970  12.969  0.00  0.00    +0.000 A 
ATOM      8  C   UNL     1      49.006   8.782  12.301  0.00  0.00    +0.000 A 
ATOM      9  C   UNL     1      50.335   8.849  12.715  0.00  0.00    +0.000 A 
ATOM     10  C   UNL     1      50.762   8.109  13.817  0.00  0.00    +0.000 A 
ATOM     11  C   UNL     1      49.860   7.308  14.514  0.00  0.00    +0.000 A 
ATOM     12  C   UNL     1      48.532   7.243  14.088  0.00  0.00    +0.000 A 
BRANCH  11  13
ATOM     13  O   UNL     1      50.149   6.547  15.616  0.00  0.00    +0.000 OA
BRANCH  13  14
ATOM     14  C   UNL     1      49.276   6.709  16.732  0.00  0.00    +0.000 C 
BRANCH  14  15
ATOM     15  C   UNL     1      49.000   5.350  17.361  0.00  0.00    +0.000 C 
BRANCH  15  16
ATOM     16  O   UNL     1      48.663   4.429  16.324  0.00  0.00    +0.000 OA
ATOM     17  C   UNL     1      47.440   3.761  16.593  0.00  0.00    +0.000 C 
ENDBRANCH  15  16
ENDBRANCH  14  15
ENDBRANCH  13  14
ENDBRANCH  11  13
ENDBRANCH   5   7
BRANCH   1  18
ATOM     18  O   UNL     1      44.284  10.099  11.074  0.00  0.00    +0.000 OA
BRANCH  18  20
ATOM     19  C   UNL     1      42.023  10.847  11.187  0.00  0.00    +0.000 C 
ATOM     20  C   UNL     1      42.975   9.855  10.541  0.00  0.00    +0.000 C 
ENDBRANCH  18  20
ENDBRANCH   1  18
BRANCH   3  21
ATOM     21  C   UNL     1      43.946   5.263  11.877  0.00  0.00    +0.000 C 
BRANCH  21  22
ATOM     22  C   UNL     1      43.711   4.726  10.451  0.00  0.00    +0.000 C 
BRANCH  22  23
ATOM     23  N   UNL     1      43.915   3.278  10.324  0.00  0.00    +0.000 N 
ATOM     24  C   UNL     1      44.854   2.982   9.303  0.00  0.00    +0.000 A 
ATOM     25  C   UNL     1      45.198   1.653   9.016  0.00  0.00    +0.000 A 
ATOM     26  N   UNL     1      46.088   1.277   8.054  0.00  0.00    +0.000 NA
ATOM     27  C   UNL     1      46.651   2.315   7.373  0.00  0.00    +0.000 A 
ATOM     28  C   UNL     1      46.332   3.633   7.646  0.00  0.00    +0.000 A 
ATOM     29  N   UNL     1      45.443   3.984   8.608  0.00  0.00    +0.000 NA
ATOM     30  H   UNL     1      43.047   2.791  10.113  0.00  0.00    +0.000 HD
BRANCH  27  31
ATOM     31  C   UNL     1      47.637   2.015   6.296  0.00  0.00    +0.000 C 
ATOM     32  N   UNL     1      48.791   2.756   6.305  0.00  0.00    +0.000 N 
ATOM     33  O   UNL     1      47.430   1.158   5.450  0.00  0.00    +0.000 OA
ATOM     34  H   UNL     1      48.943   3.468   7.008  0.00  0.00    +0.000 HD
ATOM     35  H   UNL     1      49.484   2.589   5.590  0.00  0.00    +0.000 HD
ENDBRANCH  27  31
ENDBRANCH  22  23
ENDBRANCH  21  22
ENDBRANCH   3  21
TORSDOF 11
ENDMDL
MODEL 6
REMARK VINA RESULT:    -5.995      3.306      6.946
REMARK INTER + INTRA:         -11.302
REMARK INTER:                 -10.449
REMARK INTRA:                  -0.853
REMARK UNBOUND:                -1.452
REMARK  Name = 
REMARK  13 active torsions:
REMARK  status: ('A' for Active; 'I' for Inactive)
REMARK    1  A    between atoms: C_1  and  C_2
REMARK    2  A    between atoms: C_2  and  O_3
REMARK    3  A    between atoms: O_3  and  C_4
REMARK    4  A    between atoms: C_6  and  C_7
REMARK    5  A    between atoms: C_7  and  C_8
REMARK    6  A    between atoms: C_8  and  N_9
REMARK    7  A    between atoms: C_13  and  C_14
REMARK    8  A    between atoms: C_20  and  C_21
REMARK    9  A    between atoms: C_25  and  O_26
REMARK   10  A    between atoms: O_26  and  C_27
REMARK   11  A    between atoms: C_27  and  C_28
REMARK   12  A    between atoms: C_28  and  O_29
REMARK   13  A    between atoms: O_29  and  C_30
REMARK                            x       y       z     vdW  Elec       q    Type
REMARK                         _______ _______ _______ _____ _____    ______ ____
ROOT
ATOM      1  C   UNL     1      44.788   4.758  11.826  0.00  0.00    +0.000 A 
ATOM      2  C   UNL     1      45.512   3.949  12.699  0.00  0.00    +0.000 A 
ATOM      3  C   UNL     1      46.486   4.538  13.511  0.00  0.00    +0.000 A 
ATOM      4  C   UNL     1      46.692   5.914  13.359  0.00  0.00    +0.000 A 
ATOM      5  C   UNL     1      45.955   6.651  12.436  0.00  0.00    +0.000 A 
ATOM      6  N   UNL     1      45.002   6.079  11.668  0.00  0.00    +0.000 NA
ENDROOT
BRANCH   5   7
ATOM      7  C   UNL     1      46.202   8.086  12.212  0.00  0.00    +0.000 A 
ATOM      8  C   UNL     1      47.514   8.581  12.186  0.00  0.00    +0.000 A 
ATOM      9  C   UNL     1      47.769   9.941  12.027  0.00  0.00    +0.000 A 
ATOM     10  C   UNL     1      46.712  10.838  11.879  0.00  0.00    +0.000 A 
ATOM     11  C   UNL     1      45.397  10.376  11.881  0.00  0.00    +0.000 A 
ATOM     12  C   UNL     1      45.151   9.011  12.048  0.00  0.00    +0.000 A 
BRANCH  11  13
ATOM     13  O   UNL     1      44.276  11.148  11.732  0.00  0.00    +0.000 OA
BRANCH  13  14
ATOM     14  C   UNL     1      43.797  11.302  10.398  0.00  0.00    +0.000 C 
BRANCH  14  15
ATOM     15  C   UNL     1      42.295  11.546  10.423  0.00  0.00    +0.000 C 
BRANCH  15  16
ATOM     16  O   UNL     1      41.751  10.920  11.585  0.00  0.00    +0.000 OA
ATOM     17  C   UNL     1      40.532  10.252  11.299  0.00  0.00    +0.000 C 
ENDBRANCH  15  16
ENDBRANCH  14  15
ENDBRANCH  13  14
ENDBRANCH  11  13
ENDBRANCH   5   7
BRANCH   1  18
ATOM     18  O   UNL     1      43.805   4.152  11.071  0.00  0.00    +0.000 OA
BRANCH  18  20
ATOM     19  C   UNL     1      45.029   3.512   9.127  0.00  0.00    +0.000 C 
ATOM     20  C   UNL     1      43.949   4.431   9.671  0.00  0.00    +0.000 C 
ENDBRANCH  18  20
ENDBRANCH   1  18
BRANCH   3  21
ATOM     21  C   UNL     1      47.288   3.712  14.508  0.00  0.00    +0.000 C 
BRANCH  21  22
ATOM     22  C   UNL     1      47.082   4.131  15.977  0.00  0.00    +0.000 C 
BRANCH  22  23
ATOM     23  N   UNL     1      48.189   4.921  16.528  0.00  0.00    +0.000 N 
ATOM     24  C   UNL     1      49.276   4.089  16.900  0.00  0.00    +0.000 A 
ATOM     25  C   UNL     1      50.442   4.644  17.448  0.00  0.00    +0.000 A 
ATOM     26  N   UNL     1      51.532   3.921  17.833  0.00  0.00    +0.000 NA
ATOM     27  C   UNL     1      51.416   2.578  17.634  0.00  0.00    +0.000 A 
ATOM     28  C   UNL     1      50.278   2.012  17.086  0.00  0.00    +0.000 A 
ATOM     29  N   UNL     1      49.205   2.751  16.710  0.00  0.00    +0.000 NA
ATOM     30  H   UNL     1      47.902   5.458  17.343  0.00  0.00    +0.000 HD
BRANCH  27  31
ATOM     31  C   UNL     1      52.551   1.694  18.024  0.00  0.00    +0.000 C 
ATOM     32  N   UNL     1      52.261   0.361  18.169  0.00  0.00    +0.000 N 
ATOM     33  O   UNL     1      53.678   2.130  18.204  0.00  0.00    +0.000 OA
ATOM     34  H   UNL     1      51.320   0.018  18.024  0.00  0.00    +0.000 HD
ATOM     35  H   UNL     1      53.000  -0.272  18.437  0.00  0.00    +0.000 HD
ENDBRANCH  27  31
ENDBRANCH  22  23
ENDBRANCH  21  22
ENDBRANCH   3  21
TORSDOF 11
ENDMDL
MODEL 7
REMARK VINA RESULT:    -5.948      3.078      8.375
REMARK INTER + INTRA:         -11.225
REMARK INTER:                  -9.693
REMARK INTRA:                  -1.532
REMARK UNBOUND:                -1.452
REMARK  Name = 
REMARK  13 active torsions:
REMARK  status: ('A' for Active; 'I' for Inactive)
REMARK    1  A    between atoms: C_1  and  C_2
REMARK    2  A    between atoms: C_2  and  O_3
REMARK    3  A    between atoms: O_3  and  C_4
REMARK    4  A    between atoms: C_6  and  C_7
REMARK    5  A    between atoms: C_7  and  C_8
REMARK    6  A    between atoms: C_8  and  N_9
REMARK    7  A    between atoms: C_13  and  C_14
REMARK    8  A    between atoms: C_20  and  C_21
REMARK    9  A    between atoms: C_25  and  O_26
REMARK   10  A    between atoms: O_26  and  C_27
REMARK   11  A    between atoms: C_27  and  C_28
REMARK   12  A    between atoms: C_28  and  O_29
REMARK   13  A    between atoms: O_29  and  C_30
REMARK                            x       y       z     vdW  Elec       q    Type
REMARK                         _______ _______ _______ _____ _____    ______ ____
ROOT
ATOM      1  C   UNL     1      45.411   9.550  12.170  0.00  0.00    +0.000 A 
ATOM      2  C   UNL     1      46.677  10.128  12.127  0.00  0.00    +0.000 A 
ATOM      3  C   UNL     1      47.797   9.293  12.080  0.00  0.00    +0.000 A 
ATOM      4  C   UNL     1      47.562   7.914  12.117  0.00  0.00    +0.000 A 
ATOM      5  C   UNL     1      46.267   7.409  12.200  0.00  0.00    +0.000 A 
ATOM      6  N   UNL     1      45.188   8.222  12.226  0.00  0.00    +0.000 NA
ENDROOT
BRANCH   5   7
ATOM      7  C   UNL     1      46.000   5.964  12.308  0.00  0.00    +0.000 A 
ATOM      8  C   UNL     1      46.664   5.195  13.276  0.00  0.00    +0.000 A 
ATOM      9  C   UNL     1      46.466   3.819  13.363  0.00  0.00    +0.000 A 
ATOM     10  C   UNL     1      45.587   3.183  12.487  0.00  0.00    +0.000 A 
ATOM     11  C   UNL     1      44.898   3.921  11.527  0.00  0.00    +0.000 A 
ATOM     12  C   UNL     1      45.108   5.299  11.444  0.00  0.00    +0.000 A 
BRANCH  11  13
ATOM     13  O   UNL     1      44.002   3.420  10.621  0.00  0.00    +0.000 OA
BRANCH  13  14
ATOM     14  C   UNL     1      44.451   3.359   9.268  0.00  0.00    +0.000 C 
BRANCH  14  15
ATOM     15  C   UNL     1      44.929   1.948   8.955  0.00  0.00    +0.000 C 
BRANCH  15  16
ATOM     16  O   UNL     1      46.214   2.030   8.340  0.00  0.00    +0.000 OA
ATOM     17  C   UNL     1      46.266   3.062   7.367  0.00  0.00    +0.000 C 
ENDBRANCH  15  16
ENDBRANCH  14  15
ENDBRANCH  13  14
ENDBRANCH  11  13
ENDBRANCH   5   7
BRANCH   1  18
ATOM     18  O   UNL     1      44.326  10.403  12.171  0.00  0.00    +0.000 OA
BRANCH  18  20
ATOM     19  C   UNL     1      43.373  11.159  10.121  0.00  0.00    +0.000 C 
ATOM     20  C   UNL     1      44.438  11.424  11.170  0.00  0.00    +0.000 C 
ENDBRANCH  18  20
ENDBRANCH   1  18
BRANCH   3  21
ATOM     21  C   UNL     1      49.206   9.865  11.999  0.00  0.00    +0.000 C 
BRANCH  21  22
ATOM     22  C   UNL     1      49.899  10.022  13.368  0.00  0.00    +0.000 C 
BRANCH  22  23
ATOM     23  N   UNL     1      50.763   8.892  13.726  0.00  0.00    +0.000 N 
ATOM     24  C   UNL     1      50.239   8.178  14.835  0.00  0.00    +0.000 A 
ATOM     25  C   UNL     1      50.911   7.055  15.341  0.00  0.00    +0.000 A 
ATOM     26  N   UNL     1      50.480   6.312  16.399  0.00  0.00    +0.000 NA
ATOM     27  C   UNL     1      49.307   6.739  16.946  0.00  0.00    +0.000 A 
ATOM     28  C   UNL     1      48.624   7.837  16.456  0.00  0.00    +0.000 A 
ATOM     29  N   UNL     1      49.071   8.563  15.401  0.00  0.00    +0.000 NA
ATOM     30  H   UNL     1      51.707   9.196  13.958  0.00  0.00    +0.000 HD
BRANCH  27  31
ATOM     31  C   UNL     1      48.748   5.998  18.112  0.00  0.00    +0.000 C 
ATOM     32  N   UNL     1      47.384   5.854  18.145  0.00  0.00    +0.000 N 
ATOM     33  O   UNL     1      49.463   5.543  18.993  0.00  0.00    +0.000 OA
ATOM     34  H   UNL     1      46.806   6.244  17.411  0.00  0.00    +0.000 HD
ATOM     35  H   UNL     1      46.963   5.364  18.919  0.00  0.00    +0.000 HD
ENDBRANCH  27  31
ENDBRANCH  22  23
ENDBRANCH  21  22
ENDBRANCH   3  21
TORSDOF 11
ENDMDL
MODEL 8
REMARK VINA RESULT:    -5.937      2.415      5.965
REMARK INTER + INTRA:         -11.207
REMARK INTER:                 -10.094
REMARK INTRA:                  -1.113
REMARK UNBOUND:                -1.452
REMARK  Name = 
REMARK  13 active torsions:
REMARK  status: ('A' for Active; 'I' for Inactive)
REMARK    1  A    between atoms: C_1  and  C_2
REMARK    2  A    between atoms: C_2  and  O_3
REMARK    3  A    between atoms: O_3  and  C_4
REMARK    4  A    between atoms: C_6  and  C_7
REMARK    5  A    between atoms: C_7  and  C_8
REMARK    6  A    between atoms: C_8  and  N_9
REMARK    7  A    between atoms: C_13  and  C_14
REMARK    8  A    between atoms: C_20  and  C_21
REMARK    9  A    between atoms: C_25  and  O_26
REMARK   10  A    between atoms: O_26  and  C_27
REMARK   11  A    between atoms: C_27  and  C_28
REMARK   12  A    between atoms: C_28  and  O_29
REMARK   13  A    between atoms: O_29  and  C_30
REMARK                            x       y       z     vdW  Elec       q    Type
REMARK                         _______ _______ _______ _____ _____    ______ ____
ROOT
ATOM      1  C   UNL     1      46.768   7.740  12.787  0.00  0.00    +0.000 A 
ATOM      2  C   UNL     1      45.576   7.419  12.141  0.00  0.00    +0.000 A 
ATOM      3  C   UNL     1      44.909   6.245  12.504  0.00  0.00    +0.000 A 
ATOM      4  C   UNL     1      45.515   5.447  13.481  0.00  0.00    +0.000 A 
ATOM      5  C   UNL     1      46.730   5.813  14.055  0.00  0.00    +0.000 A 
ATOM      6  N   UNL     1      47.360   6.959  13.712  0.00  0.00    +0.000 NA
ENDROOT
BRANCH   5   7
ATOM      7  C   UNL     1      47.419   4.955  15.033  0.00  0.00    +0.000 A 
ATOM      8  C   UNL     1      47.271   3.561  14.977  0.00  0.00    +0.000 A 
ATOM      9  C   UNL     1      47.872   2.734  15.923  0.00  0.00    +0.000 A 
ATOM     10  C   UNL     1      48.645   3.285  16.944  0.00  0.00    +0.000 A 
ATOM     11  C   UNL     1      48.827   4.665  17.017  0.00  0.00    +0.000 A 
ATOM     12  C   UNL     1      48.216   5.486  16.067  0.00  0.00    +0.000 A 
BRANCH  11  13
ATOM     13  O   UNL     1      49.571   5.326  17.957  0.00  0.00    +0.000 OA
BRANCH  13  14
ATOM     14  C   UNL     1      49.981   4.554  19.084  0.00  0.00    +0.000 C 
BRANCH  14  15
ATOM     15  C   UNL     1      51.485   4.696  19.276  0.00  0.00    +0.000 C 
BRANCH  15  16
ATOM     16  O   UNL     1      51.941   5.801  18.495  0.00  0.00    +0.000 OA
ATOM     17  C   UNL     1      52.470   6.836  19.310  0.00  0.00    +0.000 C 
ENDBRANCH  15  16
ENDBRANCH  14  15
ENDBRANCH  13  14
ENDBRANCH  11  13
ENDBRANCH   5   7
BRANCH   1  18
ATOM     18  O   UNL     1      47.378   8.926  12.435  0.00  0.00    +0.000 OA
BRANCH  18  20
ATOM     19  C   UNL     1      49.286   8.009  11.338  0.00  0.00    +0.000 C 
ATOM     20  C   UNL     1      48.808   8.844  12.513  0.00  0.00    +0.000 C 
ENDBRANCH  18  20
ENDBRANCH   1  18
BRANCH   3  21
ATOM     21  C   UNL     1      43.586   5.857  11.859  0.00  0.00    +0.000 C 
BRANCH  21  22
ATOM     22  C   UNL     1      43.718   4.798  10.746  0.00  0.00    +0.000 C 
BRANCH  22  23
ATOM     23  N   UNL     1      44.608   5.199   9.651  0.00  0.00    +0.000 N 
ATOM     24  C   UNL     1      45.214   4.069   9.043  0.00  0.00    +0.000 A 
ATOM     25  C   UNL     1      46.102   4.229   7.969  0.00  0.00    +0.000 A 
ATOM     26  N   UNL     1      46.728   3.201   7.327  0.00  0.00    +0.000 NA
ATOM     27  C   UNL     1      46.414   1.965   7.806  0.00  0.00    +0.000 A 
ATOM     28  C   UNL     1      45.534   1.785   8.858  0.00  0.00    +0.000 A 
ATOM     29  N   UNL     1      44.922   2.822   9.482  0.00  0.00    +0.000 NA
ATOM     30  H   UNL     1      45.345   5.824   9.971  0.00  0.00    +0.000 HD
BRANCH  27  31
ATOM     31  C   UNL     1      47.046   0.770   7.177  0.00  0.00    +0.000 C 
ATOM     32  N   UNL     1      47.659   0.973   5.967  0.00  0.00    +0.000 N 
ATOM     33  O   UNL     1      47.020  -0.330   7.708  0.00  0.00    +0.000 OA
ATOM     34  H   UNL     1      47.664   1.889   5.537  0.00  0.00    +0.000 HD
ATOM     35  H   UNL     1      48.095   0.189   5.504  0.00  0.00    +0.000 HD
ENDBRANCH  27  31
ENDBRANCH  22  23
ENDBRANCH  21  22
ENDBRANCH   3  21
TORSDOF 11
ENDMDL
MODEL 9
REMARK VINA RESULT:    -5.785      3.394      7.171
REMARK INTER + INTRA:         -10.957
REMARK INTER:                  -9.603
REMARK INTRA:                  -1.354
REMARK UNBOUND:                -1.452
REMARK  Name = 
REMARK  13 active torsions:
REMARK  status: ('A' for Active; 'I' for Inactive)
REMARK    1  A    between atoms: C_1  and  C_2
REMARK    2  A    between atoms: C_2  and  O_3
REMARK    3  A    between atoms: O_3  and  C_4
REMARK    4  A    between atoms: C_6  and  C_7
REMARK    5  A    between atoms: C_7  and  C_8
REMARK    6  A    between atoms: C_8  and  N_9
REMARK    7  A    between atoms: C_13  and  C_14
REMARK    8  A    between atoms: C_20  and  C_21
REMARK    9  A    between atoms: C_25  and  O_26
REMARK   10  A    between atoms: O_26  and  C_27
REMARK   11  A    between atoms: C_27  and  C_28
REMARK   12  A    between atoms: C_28  and  O_29
REMARK   13  A    between atoms: O_29  and  C_30
REMARK                            x       y       z     vdW  Elec       q    Type
REMARK                         _______ _______ _______ _____ _____    ______ ____
ROOT
ATOM      1  C   UNL     1      48.029   6.291  14.330  0.00  0.00    +0.000 A 
ATOM      2  C   UNL     1      48.203   7.629  13.985  0.00  0.00    +0.000 A 
ATOM      3  C   UNL     1      47.350   8.196  13.033  0.00  0.00    +0.000 A 
ATOM      4  C   UNL     1      46.390   7.353  12.461  0.00  0.00    +0.000 A 
ATOM      5  C   UNL     1      46.301   6.013  12.829  0.00  0.00    +0.000 A 
ATOM      6  N   UNL     1      47.118   5.477  13.763  0.00  0.00    +0.000 NA
ENDROOT
BRANCH   5   7
ATOM      7  C   UNL     1      45.344   5.093  12.191  0.00  0.00    +0.000 A 
ATOM      8  C   UNL     1      44.484   4.312  12.978  0.00  0.00    +0.000 A 
ATOM      9  C   UNL     1      43.607   3.398  12.399  0.00  0.00    +0.000 A 
ATOM     10  C   UNL     1      43.565   3.252  11.013  0.00  0.00    +0.000 A 
ATOM     11  C   UNL     1      44.393   4.026  10.201  0.00  0.00    +0.000 A 
ATOM     12  C   UNL     1      45.273   4.935  10.792  0.00  0.00    +0.000 A 
BRANCH  11  13
ATOM     13  O   UNL     1      44.437   3.988   8.833  0.00  0.00    +0.000 OA
BRANCH  13  14
ATOM     14  C   UNL     1      45.275   2.984   8.265  0.00  0.00    +0.000 C 
BRANCH  14  15
ATOM     15  C   UNL     1      46.287   3.636   7.332  0.00  0.00    +0.000 C 
BRANCH  15  16
ATOM     16  O   UNL     1      47.418   2.773   7.213  0.00  0.00    +0.000 OA
ATOM     17  C   UNL     1      47.055   1.409   7.361  0.00  0.00    +0.000 C 
ENDBRANCH  15  16
ENDBRANCH  14  15
ENDBRANCH  13  14
ENDBRANCH  11  13
ENDBRANCH   5   7
BRANCH   1  18
ATOM     18  O   UNL     1      48.861   5.776  15.303  0.00  0.00    +0.000 OA
BRANCH  18  20
ATOM     19  C   UNL     1      50.020   6.056  17.368  0.00  0.00    +0.000 C 
ATOM     20  C   UNL     1      48.990   6.657  16.427  0.00  0.00    +0.000 C 
ENDBRANCH  18  20
ENDBRANCH   1  18
BRANCH   3  21
ATOM     21  C   UNL     1      47.469   9.661  12.638  0.00  0.00    +0.000 C 
BRANCH  21  22
ATOM     22  C   UNL     1      48.558   9.940  11.583  0.00  0.00    +0.000 C 
BRANCH  22  23
ATOM     23  N   UNL     1      49.863  10.286  12.157  0.00  0.00    +0.000 N 
ATOM     24  C   UNL     1      50.864   9.370  11.742  0.00  0.00    +0.000 A 
ATOM     25  C   UNL     1      52.189   9.519  12.176  0.00  0.00    +0.000 A 
ATOM     26  N   UNL     1      53.213   8.688  11.827  0.00  0.00    +0.000 NA
ATOM     27  C   UNL     1      52.853   7.674  10.991  0.00  0.00    +0.000 A 
ATOM     28  C   UNL     1      51.554   7.515  10.544  0.00  0.00    +0.000 A 
ATOM     29  N   UNL     1      50.551   8.354  10.904  0.00  0.00    +0.000 NA
ATOM     30  H   UNL     1      49.838  10.294  13.175  0.00  0.00    +0.000 HD
BRANCH  27  31
ATOM     31  C   UNL     1      53.896   6.704  10.550  0.00  0.00    +0.000 C 
ATOM     32  N   UNL     1      53.468   5.428  10.288  0.00  0.00    +0.000 N 
ATOM     33  O   UNL     1      55.068   7.027  10.428  0.00  0.00    +0.000 OA
ATOM     34  H   UNL     1      52.494   5.176  10.402  0.00  0.00    +0.000 HD
ATOM     35  H   UNL     1      54.142   4.738   9.991  0.00  0.00    +0.000 HD
ENDBRANCH  27  31
ENDBRANCH  22  23
ENDBRANCH  21  22
ENDBRANCH   3  21
TORSDOF 11
ENDMDL
