MODEL 1
REMARK VINA RESULT:    -8.023      0.000      0.000
REMARK INTER + INTRA:         -11.520
REMARK INTER:                 -10.603
REMARK INTRA:                  -0.918
REMARK UNBOUND:                -0.918
REMARK  Name = 
REMARK  7 active torsions:
REMARK  status: ('A' for Active; 'I' for Inactive)
REMARK    1  A    between atoms: C_1  and  O_2
REMARK    2  A    between atoms: O_2  and  C_3
REMARK    3  A    between atoms: C_6  and  C_7
REMARK    4  A    between atoms: C_7  and  O_8
REMARK    5  A    between atoms: N_11  and  C_12
REMARK    6  A    between atoms: C_16  and  C_17
REMARK    7  A    between atoms: C_25  and  C_26
REMARK                            x       y       z     vdW  Elec       q    Type
REMARK                         _______ _______ _______ _____ _____    ______ ____
ROOT
ATOM      1  C   UNL     1      45.211   4.079   9.476  0.00  0.00    +0.000 C 
ATOM      2  C   UNL     1      45.837   5.468   9.723  0.00  0.00    +0.000 C 
ATOM      3  C   UNL     1      45.365   6.069  11.051  0.00  0.00    +0.000 C 
ATOM      4  N   UNL     1      45.591   5.123  12.147  0.00  0.00    +0.000 N 
ATOM      5  C   UNL     1      44.932   3.825  11.981  0.00  0.00    +0.000 C 
ATOM      6  C   UNL     1      45.436   3.174  10.701  0.00  0.00    +0.000 C 
ENDROOT
BRANCH   1  10
ATOM      7  C   UNL     1      47.037   1.841   6.194  0.00  0.00    +0.000 A 
ATOM      8  C   UNL     1      46.792   3.215   6.069  0.00  0.00    +0.000 A 
ATOM      9  C   UNL     1      46.140   3.943   7.074  0.00  0.00    +0.000 A 
ATOM     10  C   UNL     1      45.722   3.315   8.250  0.00  0.00    +0.000 A 
ATOM     11  C   UNL     1      45.942   1.926   8.353  0.00  0.00    +0.000 A 
ATOM     12  C   UNL     1      46.599   1.188   7.351  0.00  0.00    +0.000 A 
BRANCH   7  14
ATOM     13  C   UNL     1      47.100   0.781   4.044  0.00  0.00    +0.000 C 
ATOM     14  O   UNL     1      47.780   1.338   5.161  0.00  0.00    +0.000 OA
ENDBRANCH   7  14
BRANCH  12  15
ATOM     15  C   UNL     1      46.842  -0.195   7.639  0.00  0.00    +0.000 C 
ATOM     16  N   UNL     1      47.000  -1.318   7.875  0.00  0.00    +0.000 NA
ENDBRANCH  12  15
ENDBRANCH   1  10
BRANCH   4  17
ATOM     17  C   UNL     1      46.485   5.328  13.182  0.00  0.00    +0.000 A 
ATOM     18  C   UNL     1      47.257   6.493  13.248  0.00  0.00    +0.000 A 
ATOM     19  C   UNL     1      48.118   6.706  14.311  0.00  0.00    +0.000 A 
ATOM     20  N   UNL     1      48.283   5.834  15.319  0.00  0.00    +0.000 NA
ATOM     21  C   UNL     1      47.561   4.682  15.265  0.00  0.00    +0.000 A 
ATOM     22  C   UNL     1      46.672   4.406  14.215  0.00  0.00    +0.000 A 
BRANCH  21  23
ATOM     23  C   UNL     1      47.710   3.662  16.383  0.00  0.00    +0.000 C 
ATOM     24  F   UNL     1      46.581   3.460  17.120  0.00  0.00    +0.000 F 
ATOM     25  F   UNL     1      48.071   2.429  15.917  0.00  0.00    +0.000 F 
ATOM     26  F   UNL     1      48.681   4.006  17.280  0.00  0.00    +0.000 F 
ENDBRANCH  21  23
ENDBRANCH   4  17
BRANCH   1  27
ATOM     27  O   UNL     1      43.797   4.271   9.312  0.00  0.00    +0.000 OA
ATOM     28  H   UNL     1      43.426   3.435   8.979  0.00  0.00    +0.000 HD
ENDBRANCH   1  27
TORSDOF 6
ENDMDL
MODEL 2
REMARK VINA RESULT:    -7.646      1.706      2.264
REMARK INTER + INTRA:         -11.022
REMARK INTER:                 -10.095
REMARK INTRA:                  -0.928
REMARK UNBOUND:                -0.918
REMARK  Name = 
REMARK  7 active torsions:
REMARK  status: ('A' for Active; 'I' for Inactive)
REMARK    1  A    between atoms: C_1  and  O_2
REMARK    2  A    between atoms: O_2  and  C_3
REMARK    3  A    between atoms: C_6  and  C_7
REMARK    4  A    between atoms: C_7  and  O_8
REMARK    5  A    between atoms: N_11  and  C_12
REMARK    6  A    between atoms: C_16  and  C_17
REMARK    7  A    between atoms: C_25  and  C_26
REMARK                            x       y       z     vdW  Elec       q    Type
REMARK                         _______ _______ _______ _____ _____    ______ ____
ROOT
ATOM      1  C   UNL     1      45.177   4.115   9.381  0.00  0.00    +0.000 C 
ATOM      2  C   UNL     1      45.881   5.455   9.679  0.00  0.00    +0.000 C 
ATOM      3  C   UNL     1      45.379   6.075  10.989  0.00  0.00    +0.000 C 
ATOM      4  N   UNL     1      45.482   5.105  12.082  0.00  0.00    +0.000 N 
ATOM      5  C   UNL     1      44.746   3.857  11.864  0.00  0.00    +0.000 C 
ATOM      6  C   UNL     1      45.273   3.185  10.604  0.00  0.00    +0.000 C 
ENDROOT
BRANCH   1  10
ATOM      7  C   UNL     1      47.038   1.823   6.157  0.00  0.00    +0.000 A 
ATOM      8  C   UNL     1      46.784   3.193   6.002  0.00  0.00    +0.000 A 
ATOM      9  C   UNL     1      46.121   3.936   6.988  0.00  0.00    +0.000 A 
ATOM     10  C   UNL     1      45.700   3.330   8.174  0.00  0.00    +0.000 A 
ATOM     11  C   UNL     1      45.928   1.945   8.306  0.00  0.00    +0.000 A 
ATOM     12  C   UNL     1      46.597   1.191   7.324  0.00  0.00    +0.000 A 
BRANCH   7  14
ATOM     13  C   UNL     1      47.120   0.754   4.012  0.00  0.00    +0.000 C 
ATOM     14  O   UNL     1      47.790   1.304   5.138  0.00  0.00    +0.000 OA
ENDBRANCH   7  14
BRANCH  12  15
ATOM     15  C   UNL     1      46.847  -0.185   7.641  0.00  0.00    +0.000 C 
ATOM     16  N   UNL     1      47.011  -1.300   7.906  0.00  0.00    +0.000 NA
ENDBRANCH  12  15
ENDBRANCH   1  10
BRANCH   4  17
ATOM     17  C   UNL     1      46.330   5.239  13.166  0.00  0.00    +0.000 A 
ATOM     18  C   UNL     1      46.247   4.370  14.259  0.00  0.00    +0.000 A 
ATOM     19  C   UNL     1      47.128   4.489  15.320  0.00  0.00    +0.000 A 
ATOM     20  N   UNL     1      48.090   5.424  15.386  0.00  0.00    +0.000 NA
ATOM     21  C   UNL     1      48.175   6.298  14.345  0.00  0.00    +0.000 A 
ATOM     22  C   UNL     1      47.311   6.231  13.241  0.00  0.00    +0.000 A 
BRANCH  21  23
ATOM     23  C   UNL     1      49.247   7.376  14.369  0.00  0.00    +0.000 C 
ATOM     24  F   UNL     1      50.347   7.065  15.114  0.00  0.00    +0.000 F 
ATOM     25  F   UNL     1      49.718   7.670  13.121  0.00  0.00    +0.000 F 
ATOM     26  F   UNL     1      48.786   8.561  14.869  0.00  0.00    +0.000 F 
ENDBRANCH  21  23
ENDBRANCH   4  17
BRANCH   1  27
ATOM     27  O   UNL     1      43.789   4.405   9.144  0.00  0.00    +0.000 OA
ATOM     28  H   UNL     1      43.289   4.081   9.912  0.00  0.00    +0.000 HD
ENDBRANCH   1  27
TORSDOF 6
ENDMDL
MODEL 3
REMARK VINA RESULT:    -6.593      4.853      7.700
REMARK INTER + INTRA:          -9.630
REMARK INTER:                  -8.703
REMARK INTRA:                  -0.927
REMARK UNBOUND:                -0.918
REMARK  Name = 
REMARK  7 active torsions:
REMARK  status: ('A' for Active; 'I' for Inactive)
REMARK    1  A    between atoms: C_1  and  O_2
REMARK    2  A    between atoms: O_2  and  C_3
REMARK    3  A    between atoms: C_6  and  C_7
REMARK    4  A    between atoms: C_7  and  O_8
REMARK    5  A    between atoms: N_11  and  C_12
REMARK    6  A    between atoms: C_16  and  C_17
REMARK    7  A    between atoms: C_25  and  C_26
REMARK                            x       y       z     vdW  Elec       q    Type
REMARK                         _______ _______ _______ _____ _____    ______ ____
ROOT
ATOM      1  C   UNL     1      47.418   7.647  12.790  0.00  0.00    +0.000 C 
ATOM      2  C   UNL     1      47.783   6.181  13.103  0.00  0.00    +0.000 C 
ATOM      3  C   UNL     1      46.576   5.406  13.647  0.00  0.00    +0.000 C 
ATOM      4  N   UNL     1      45.433   5.543  12.740  0.00  0.00    +0.000 N 
ATOM      5  C   UNL     1      45.008   6.924  12.496  0.00  0.00    +0.000 C 
ATOM      6  C   UNL     1      46.170   7.700  11.891  0.00  0.00    +0.000 C 
ENDROOT
BRANCH   1  10
ATOM      7  C   UNL     1      50.778   9.919  11.158  0.00  0.00    +0.000 A 
ATOM      8  C   UNL     1      49.651  10.580  11.666  0.00  0.00    +0.000 A 
ATOM      9  C   UNL     1      48.528   9.878  12.125  0.00  0.00    +0.000 A 
ATOM     10  C   UNL     1      48.505   8.482  12.103  0.00  0.00    +0.000 A 
ATOM     11  C   UNL     1      49.628   7.826  11.559  0.00  0.00    +0.000 A 
ATOM     12  C   UNL     1      50.762   8.522  11.099  0.00  0.00    +0.000 A 
BRANCH   7  14
ATOM     13  C   UNL     1      51.812  11.423   9.602  0.00  0.00    +0.000 C 
ATOM     14  O   UNL     1      51.807  10.773  10.866  0.00  0.00    +0.000 OA
ENDBRANCH   7  14
BRANCH  12  15
ATOM     15  C   UNL     1      51.867   7.718  10.668  0.00  0.00    +0.000 C 
ATOM     16  N   UNL     1      52.771   7.097  10.295  0.00  0.00    +0.000 NA
ENDBRANCH  12  15
ENDBRANCH   1  10
BRANCH   4  17
ATOM     17  C   UNL     1      44.884   4.502  12.016  0.00  0.00    +0.000 A 
ATOM     18  C   UNL     1      43.840   3.731  12.539  0.00  0.00    +0.000 A 
ATOM     19  C   UNL     1      43.270   2.717  11.788  0.00  0.00    +0.000 A 
ATOM     20  N   UNL     1      43.671   2.397  10.547  0.00  0.00    +0.000 NA
ATOM     21  C   UNL     1      44.702   3.116  10.025  0.00  0.00    +0.000 A 
ATOM     22  C   UNL     1      45.322   4.156  10.735  0.00  0.00    +0.000 A 
BRANCH  21  23
ATOM     23  C   UNL     1      45.193   2.795   8.622  0.00  0.00    +0.000 C 
ATOM     24  F   UNL     1      44.341   3.167   7.624  0.00  0.00    +0.000 F 
ATOM     25  F   UNL     1      46.384   3.402   8.336  0.00  0.00    +0.000 F 
ATOM     26  F   UNL     1      45.417   1.460   8.439  0.00  0.00    +0.000 F 
ENDBRANCH  21  23
ENDBRANCH   4  17
BRANCH   1  27
ATOM     27  O   UNL     1      47.102   8.285  14.038  0.00  0.00    +0.000 OA
ATOM     28  H   UNL     1      46.136   8.387  14.076  0.00  0.00    +0.000 HD
ENDBRANCH   1  27
TORSDOF 6
ENDMDL
MODEL 4
REMARK VINA RESULT:    -6.573      4.867      7.960
REMARK INTER + INTRA:          -9.605
REMARK INTER:                  -8.675
REMARK INTRA:                  -0.930
REMARK UNBOUND:                -0.918
REMARK  Name = 
REMARK  7 active torsions:
REMARK  status: ('A' for Active; 'I' for Inactive)
REMARK    1  A    between atoms: C_1  and  O_2
REMARK    2  A    between atoms: O_2  and  C_3
REMARK    3  A    between atoms: C_6  and  C_7
REMARK    4  A    between atoms: C_7  and  O_8
REMARK    5  A    between atoms: N_11  and  C_12
REMARK    6  A    between atoms: C_16  and  C_17
REMARK    7  A    between atoms: C_25  and  C_26
REMARK                            x       y       z     vdW  Elec       q    Type
REMARK                         _______ _______ _______ _____ _____    ______ ____
ROOT
ATOM      1  C   UNL     1      47.497   7.594  13.096  0.00  0.00    +0.000 C 
ATOM      2  C   UNL     1      47.766   6.110  13.424  0.00  0.00    +0.000 C 
ATOM      3  C   UNL     1      46.485   5.391  13.862  0.00  0.00    +0.000 C 
ATOM      4  N   UNL     1      45.427   5.587  12.868  0.00  0.00    +0.000 N 
ATOM      5  C   UNL     1      45.087   6.987  12.603  0.00  0.00    +0.000 C 
ATOM      6  C   UNL     1      46.329   7.711  12.100  0.00  0.00    +0.000 C 
ENDROOT
BRANCH   1  10
ATOM      7  C   UNL     1      50.679   9.765  11.028  0.00  0.00    +0.000 A 
ATOM      8  C   UNL     1      50.942   8.537  11.650  0.00  0.00    +0.000 A 
ATOM      9  C   UNL     1      49.962   7.856  12.384  0.00  0.00    +0.000 A 
ATOM     10  C   UNL     1      48.673   8.380  12.507  0.00  0.00    +0.000 A 
ATOM     11  C   UNL     1      48.426   9.632  11.909  0.00  0.00    +0.000 A 
ATOM     12  C   UNL     1      49.403  10.322  11.167  0.00  0.00    +0.000 A 
BRANCH   7  14
ATOM     13  C   UNL     1      52.639   9.259   9.743  0.00  0.00    +0.000 C 
ATOM     14  O   UNL     1      51.728  10.213  10.272  0.00  0.00    +0.000 OA
ENDBRANCH   7  14
BRANCH  12  15
ATOM     15  C   UNL     1      48.978  11.534  10.531  0.00  0.00    +0.000 C 
ATOM     16  N   UNL     1      48.604  12.515  10.041  0.00  0.00    +0.000 NA
ENDBRANCH  12  15
ENDBRANCH   1  10
BRANCH   4  17
ATOM     17  C   UNL     1      44.889   4.576  12.092  0.00  0.00    +0.000 A 
ATOM     18  C   UNL     1      43.847   3.776  12.570  0.00  0.00    +0.000 A 
ATOM     19  C   UNL     1      43.289   2.794  11.769  0.00  0.00    +0.000 A 
ATOM     20  N   UNL     1      43.702   2.534  10.518  0.00  0.00    +0.000 NA
ATOM     21  C   UNL     1      44.732   3.283  10.038  0.00  0.00    +0.000 A 
ATOM     22  C   UNL     1      45.340   4.292  10.800  0.00  0.00    +0.000 A 
BRANCH  21  23
ATOM     23  C   UNL     1      45.237   3.029   8.626  0.00  0.00    +0.000 C 
ATOM     24  F   UNL     1      45.797   1.800   8.437  0.00  0.00    +0.000 F 
ATOM     25  F   UNL     1      44.245   3.130   7.692  0.00  0.00    +0.000 F 
ATOM     26  F   UNL     1      46.188   3.932   8.240  0.00  0.00    +0.000 F 
ENDBRANCH  21  23
ENDBRANCH   4  17
BRANCH   1  27
ATOM     27  O   UNL     1      47.111   8.239  14.321  0.00  0.00    +0.000 OA
ATOM     28  H   UNL     1      46.152   8.117  14.425  0.00  0.00    +0.000 HD
ENDBRANCH   1  27
TORSDOF 6
ENDMDL
MODEL 5
REMARK VINA RESULT:    -6.051      4.364      8.666
REMARK INTER + INTRA:          -8.914
REMARK INTER:                  -8.035
REMARK INTRA:                  -0.879
REMARK UNBOUND:                -0.918
REMARK  Name = 
REMARK  7 active torsions:
REMARK  status: ('A' for Active; 'I' for Inactive)
REMARK    1  A    between atoms: C_1  and  O_2
REMARK    2  A    between atoms: O_2  and  C_3
REMARK    3  A    between atoms: C_6  and  C_7
REMARK    4  A    between atoms: C_7  and  O_8
REMARK    5  A    between atoms: N_11  and  C_12
REMARK    6  A    between atoms: C_16  and  C_17
REMARK    7  A    between atoms: C_25  and  C_26
REMARK                            x       y       z     vdW  Elec       q    Type
REMARK                         _______ _______ _______ _____ _____    ______ ____
ROOT
ATOM      1  C   UNL     1      46.348   6.200  13.140  0.00  0.00    +0.000 C 
ATOM      2  C   UNL     1      45.413   4.978  13.261  0.00  0.00    +0.000 C 
ATOM      3  C   UNL     1      44.409   4.923  12.103  0.00  0.00    +0.000 C 
ATOM      4  N   UNL     1      45.110   4.998  10.818  0.00  0.00    +0.000 N 
ATOM      5  C   UNL     1      45.935   6.195  10.641  0.00  0.00    +0.000 C 
ATOM      6  C   UNL     1      46.987   6.239  11.740  0.00  0.00    +0.000 C 
ENDROOT
BRANCH   1  10
ATOM      7  C   UNL     1      49.302   6.528  16.346  0.00  0.00    +0.000 A 
ATOM      8  C   UNL     1      49.258   7.479  15.318  0.00  0.00    +0.000 A 
ATOM      9  C   UNL     1      48.373   7.359  14.238  0.00  0.00    +0.000 A 
ATOM     10  C   UNL     1      47.489   6.281  14.160  0.00  0.00    +0.000 A 
ATOM     11  C   UNL     1      47.563   5.310  15.180  0.00  0.00    +0.000 A 
ATOM     12  C   UNL     1      48.446   5.424  16.270  0.00  0.00    +0.000 A 
BRANCH   7  14
ATOM     13  C   UNL     1      49.676   7.766  18.365  0.00  0.00    +0.000 C 
ATOM     14  O   UNL     1      50.151   6.880  17.360  0.00  0.00    +0.000 OA
ENDBRANCH   7  14
BRANCH  12  15
ATOM     15  C   UNL     1      48.339   4.414  17.281  0.00  0.00    +0.000 C 
ATOM     16  N   UNL     1      48.219   3.613  18.109  0.00  0.00    +0.000 NA
ENDBRANCH  12  15
ENDBRANCH   1  10
BRANCH   4  17
ATOM     17  C   UNL     1      45.158   3.969   9.896  0.00  0.00    +0.000 A 
ATOM     18  C   UNL     1      44.416   2.798  10.081  0.00  0.00    +0.000 A 
ATOM     19  C   UNL     1      44.441   1.792   9.131  0.00  0.00    +0.000 A 
ATOM     20  N   UNL     1      45.165   1.855   8.002  0.00  0.00    +0.000 NA
ATOM     21  C   UNL     1      45.915   2.974   7.810  0.00  0.00    +0.000 A 
ATOM     22  C   UNL     1      45.934   4.029   8.735  0.00  0.00    +0.000 A 
BRANCH  21  23
ATOM     23  C   UNL     1      46.753   3.096   6.547  0.00  0.00    +0.000 C 
ATOM     24  F   UNL     1      46.362   2.280   5.526  0.00  0.00    +0.000 F 
ATOM     25  F   UNL     1      46.739   4.362   6.033  0.00  0.00    +0.000 F 
ATOM     26  F   UNL     1      48.072   2.810   6.764  0.00  0.00    +0.000 F 
ENDBRANCH  21  23
ENDBRANCH   4  17
BRANCH   1  27
ATOM     27  O   UNL     1      45.538   7.376  13.298  0.00  0.00    +0.000 OA
ATOM     28  H   UNL     1      44.950   7.225  14.058  0.00  0.00    +0.000 HD
ENDBRANCH   1  27
TORSDOF 6
ENDMDL
MODEL 6
REMARK VINA RESULT:    -6.040      3.612      5.957
REMARK INTER + INTRA:          -8.900
REMARK INTER:                  -8.015
REMARK INTRA:                  -0.886
REMARK UNBOUND:                -0.918
REMARK  Name = 
REMARK  7 active torsions:
REMARK  status: ('A' for Active; 'I' for Inactive)
REMARK    1  A    between atoms: C_1  and  O_2
REMARK    2  A    between atoms: O_2  and  C_3
REMARK    3  A    between atoms: C_6  and  C_7
REMARK    4  A    between atoms: C_7  and  O_8
REMARK    5  A    between atoms: N_11  and  C_12
REMARK    6  A    between atoms: C_16  and  C_17
REMARK    7  A    between atoms: C_25  and  C_26
REMARK                            x       y       z     vdW  Elec       q    Type
REMARK                         _______ _______ _______ _____ _____    ______ ____
ROOT
ATOM      1  C   UNL     1      47.892   6.490  13.673  0.00  0.00    +0.000 C 
ATOM      2  C   UNL     1      47.881   5.708  15.002  0.00  0.00    +0.000 C 
ATOM      3  C   UNL     1      48.912   6.265  15.991  0.00  0.00    +0.000 C 
ATOM      4  N   UNL     1      48.726   7.708  16.160  0.00  0.00    +0.000 N 
ATOM      5  C   UNL     1      48.822   8.487  14.924  0.00  0.00    +0.000 C 
ATOM      6  C   UNL     1      47.761   7.999  13.947  0.00  0.00    +0.000 C 
ENDROOT
BRANCH   1  10
ATOM      7  C   UNL     1      44.982   5.048  10.746  0.00  0.00    +0.000 A 
ATOM      8  C   UNL     1      45.884   6.067  10.411  0.00  0.00    +0.000 A 
ATOM      9  C   UNL     1      46.776   6.601  11.350  0.00  0.00    +0.000 A 
ATOM     10  C   UNL     1      46.803   6.119  12.660  0.00  0.00    +0.000 A 
ATOM     11  C   UNL     1      45.869   5.118  12.999  0.00  0.00    +0.000 A 
ATOM     12  C   UNL     1      44.972   4.573  12.062  0.00  0.00    +0.000 A 
BRANCH   7  14
ATOM     13  C   UNL     1      44.983   3.936   8.622  0.00  0.00    +0.000 C 
ATOM     14  O   UNL     1      44.276   4.588   9.668  0.00  0.00    +0.000 OA
ENDBRANCH   7  14
BRANCH  12  15
ATOM     15  C   UNL     1      44.151   3.492  12.524  0.00  0.00    +0.000 C 
ATOM     16  N   UNL     1      43.520   2.597  12.900  0.00  0.00    +0.000 NA
ENDBRANCH  12  15
ENDBRANCH   1  10
BRANCH   4  17
ATOM     17  C   UNL     1      48.318   8.308  17.337  0.00  0.00    +0.000 A 
ATOM     18  C   UNL     1      48.013   9.672  17.384  0.00  0.00    +0.000 A 
ATOM     19  C   UNL     1      47.566  10.253  18.559  0.00  0.00    +0.000 A 
ATOM     20  N   UNL     1      47.410   9.577  19.709  0.00  0.00    +0.000 NA
ATOM     21  C   UNL     1      47.724   8.253  19.696  0.00  0.00    +0.000 A 
ATOM     22  C   UNL     1      48.182   7.606  18.538  0.00  0.00    +0.000 A 
BRANCH  21  23
ATOM     23  C   UNL     1      47.563   7.441  20.971  0.00  0.00    +0.000 C 
ATOM     24  F   UNL     1      46.855   8.066  21.955  0.00  0.00    +0.000 F 
ATOM     25  F   UNL     1      46.925   6.252  20.756  0.00  0.00    +0.000 F 
ATOM     26  F   UNL     1      48.763   7.109  21.534  0.00  0.00    +0.000 F 
ENDBRANCH  21  23
ENDBRANCH   4  17
BRANCH   1  27
ATOM     27  O   UNL     1      49.165   6.255  13.049  0.00  0.00    +0.000 OA
ATOM     28  H   UNL     1      48.993   5.958  12.139  0.00  0.00    +0.000 HD
ENDBRANCH   1  27
TORSDOF 6
ENDMDL
MODEL 7
REMARK VINA RESULT:    -6.020      4.615      8.925
REMARK INTER + INTRA:          -8.873
REMARK INTER:                  -7.967
REMARK INTRA:                  -0.906
REMARK UNBOUND:                -0.918
REMARK  Name = 
REMARK  7 active torsions:
REMARK  status: ('A' for Active; 'I' for Inactive)
REMARK    1  A    between atoms: C_1  and  O_2
REMARK    2  A    between atoms: O_2  and  C_3
REMARK    3  A    between atoms: C_6  and  C_7
REMARK    4  A    between atoms: C_7  and  O_8
REMARK    5  A    between atoms: N_11  and  C_12
REMARK    6  A    between atoms: C_16  and  C_17
REMARK    7  A    between atoms: C_25  and  C_26
REMARK                            x       y       z     vdW  Elec       q    Type
REMARK                         _______ _______ _______ _____ _____    ______ ____
ROOT
ATOM      1  C   UNL     1      47.484   8.288  13.264  0.00  0.00    +0.000 C 
ATOM      2  C   UNL     1      45.946   8.405  13.313  0.00  0.00    +0.000 C 
ATOM      3  C   UNL     1      45.322   8.179  11.931  0.00  0.00    +0.000 C 
ATOM      4  N   UNL     1      45.793   6.914  11.361  0.00  0.00    +0.000 N 
ATOM      5  C   UNL     1      47.248   6.812  11.219  0.00  0.00    +0.000 C 
ATOM      6  C   UNL     1      47.891   6.965  12.591  0.00  0.00    +0.000 C 
ENDROOT
BRANCH   1  10
ATOM      7  C   UNL     1      49.249   8.202  17.263  0.00  0.00    +0.000 A 
ATOM      8  C   UNL     1      48.647   9.370  16.775  0.00  0.00    +0.000 A 
ATOM      9  C   UNL     1      48.141   9.450  15.471  0.00  0.00    +0.000 A 
ATOM     10  C   UNL     1      48.209   8.350  14.613  0.00  0.00    +0.000 A 
ATOM     11  C   UNL     1      48.847   7.191  15.099  0.00  0.00    +0.000 A 
ATOM     12  C   UNL     1      49.355   7.100  16.409  0.00  0.00    +0.000 A 
BRANCH   7  14
ATOM     13  C   UNL     1      50.027   9.537  19.097  0.00  0.00    +0.000 C 
ATOM     14  O   UNL     1      49.577   8.288  18.589  0.00  0.00    +0.000 OA
ENDBRANCH   7  14
BRANCH  12  15
ATOM     15  C   UNL     1      49.884   5.826  16.796  0.00  0.00    +0.000 C 
ATOM     16  N   UNL     1      50.317   4.787  17.072  0.00  0.00    +0.000 NA
ENDBRANCH  12  15
ENDBRANCH   1  10
BRANCH   4  17
ATOM     17  C   UNL     1      44.987   5.816  11.127  0.00  0.00    +0.000 A 
ATOM     18  C   UNL     1      43.821   5.604  11.871  0.00  0.00    +0.000 A 
ATOM     19  C   UNL     1      43.000   4.523  11.600  0.00  0.00    +0.000 A 
ATOM     20  N   UNL     1      43.258   3.617  10.643  0.00  0.00    +0.000 NA
ATOM     21  C   UNL     1      44.399   3.787   9.921  0.00  0.00    +0.000 A 
ATOM     22  C   UNL     1      45.273   4.861  10.147  0.00  0.00    +0.000 A 
BRANCH  21  23
ATOM     23  C   UNL     1      44.737   2.789   8.825  0.00  0.00    +0.000 C 
ATOM     24  F   UNL     1      44.196   1.549   9.001  0.00  0.00    +0.000 F 
ATOM     25  F   UNL     1      44.313   3.204   7.594  0.00  0.00    +0.000 F 
ATOM     26  F   UNL     1      46.083   2.590   8.695  0.00  0.00    +0.000 F 
ENDBRANCH  21  23
ENDBRANCH   4  17
BRANCH   1  27
ATOM     27  O   UNL     1      47.970   9.373  12.457  0.00  0.00    +0.000 OA
ATOM     28  H   UNL     1      48.826   9.098  12.085  0.00  0.00    +0.000 HD
ENDBRANCH   1  27
TORSDOF 6
ENDMDL
MODEL 8
REMARK VINA RESULT:    -5.830      4.547      8.241
REMARK INTER + INTRA:          -8.622
REMARK INTER:                  -7.690
REMARK INTRA:                  -0.932
REMARK UNBOUND:                -0.918
REMARK  Name = 
REMARK  7 active torsions:
REMARK  status: ('A' for Active; 'I' for Inactive)
REMARK    1  A    between atoms: C_1  and  O_2
REMARK    2  A    between atoms: O_2  and  C_3
REMARK    3  A    between atoms: C_6  and  C_7
REMARK    4  A    between atoms: C_7  and  O_8
REMARK    5  A    between atoms: N_11  and  C_12
REMARK    6  A    between atoms: C_16  and  C_17
REMARK    7  A    between atoms: C_25  and  C_26
REMARK                            x       y       z     vdW  Elec       q    Type
REMARK                         _______ _______ _______ _____ _____    ______ ____
ROOT
ATOM      1  C   UNL     1      46.791   6.989  13.036  0.00  0.00    +0.000 C 
ATOM      2  C   UNL     1      46.440   5.569  13.526  0.00  0.00    +0.000 C 
ATOM      3  C   UNL     1      45.086   5.105  12.977  0.00  0.00    +0.000 C 
ATOM      4  N   UNL     1      45.053   5.245  11.519  0.00  0.00    +0.000 N 
ATOM      5  C   UNL     1      45.294   6.605  11.030  0.00  0.00    +0.000 C 
ATOM      6  C   UNL     1      46.665   7.066  11.504  0.00  0.00    +0.000 C 
ENDROOT
BRANCH   1  10
ATOM      7  C   UNL     1      50.931   8.088  13.914  0.00  0.00    +0.000 A 
ATOM      8  C   UNL     1      50.036   7.795  14.952  0.00  0.00    +0.000 A 
ATOM      9  C   UNL     1      48.686   7.513  14.706  0.00  0.00    +0.000 A 
ATOM     10  C   UNL     1      48.188   7.503  13.401  0.00  0.00    +0.000 A 
ATOM     11  C   UNL     1      49.086   7.833  12.365  0.00  0.00    +0.000 A 
ATOM     12  C   UNL     1      50.445   8.113  12.603  0.00  0.00    +0.000 A 
BRANCH   7  14
ATOM     13  C   UNL     1      52.621   7.526  15.520  0.00  0.00    +0.000 C 
ATOM     14  O   UNL     1      52.222   8.224  14.348  0.00  0.00    +0.000 OA
ENDBRANCH   7  14
BRANCH  12  15
ATOM     15  C   UNL     1      51.259   8.331  11.444  0.00  0.00    +0.000 C 
ATOM     16  N   UNL     1      51.886   8.508  10.485  0.00  0.00    +0.000 NA
ENDBRANCH  12  15
ENDBRANCH   1  10
BRANCH   4  17
ATOM     17  C   UNL     1      44.980   4.184  10.635  0.00  0.00    +0.000 A 
ATOM     18  C   UNL     1      44.129   3.100  10.877  0.00  0.00    +0.000 A 
ATOM     19  C   UNL     1      44.035   2.063   9.965  0.00  0.00    +0.000 A 
ATOM     20  N   UNL     1      44.738   2.013   8.822  0.00  0.00    +0.000 NA
ATOM     21  C   UNL     1      45.591   3.045   8.575  0.00  0.00    +0.000 A 
ATOM     22  C   UNL     1      45.734   4.124   9.460  0.00  0.00    +0.000 A 
BRANCH  21  23
ATOM     23  C   UNL     1      46.411   3.037   7.295  0.00  0.00    +0.000 C 
ATOM     24  F   UNL     1      45.671   3.029   6.149  0.00  0.00    +0.000 F 
ATOM     25  F   UNL     1      47.232   4.125   7.195  0.00  0.00    +0.000 F 
ATOM     26  F   UNL     1      47.238   1.953   7.209  0.00  0.00    +0.000 F 
ENDBRANCH  21  23
ENDBRANCH   4  17
BRANCH   1  27
ATOM     27  O   UNL     1      45.831   7.890  13.613  0.00  0.00    +0.000 OA
ATOM     28  H   UNL     1      45.446   7.447  14.389  0.00  0.00    +0.000 HD
ENDBRANCH   1  27
TORSDOF 6
ENDMDL
MODEL 9
REMARK VINA RESULT:    -5.670      4.337      5.785
REMARK INTER + INTRA:          -8.411
REMARK INTER:                  -7.496
REMARK INTRA:                  -0.915
REMARK UNBOUND:                -0.918
REMARK  Name = 
REMARK  7 active torsions:
REMARK  status: ('A' for Active; 'I' for Inactive)
REMARK    1  A    between atoms: C_1  and  O_2
REMARK    2  A    between atoms: O_2  and  C_3
REMARK    3  A    between atoms: C_6  and  C_7
REMARK    4  A    between atoms: C_7  and  O_8
REMARK    5  A    between atoms: N_11  and  C_12
REMARK    6  A    between atoms: C_16  and  C_17
REMARK    7  A    between atoms: C_25  and  C_26
REMARK                            x       y       z     vdW  Elec       q    Type
REMARK                         _______ _______ _______ _____ _____    ______ ____
ROOT
ATOM      1  C   UNL     1      45.797   6.832  12.188  0.00  0.00    +0.000 C 
ATOM      2  C   UNL     1      45.790   8.306  11.730  0.00  0.00    +0.000 C 
ATOM      3  C   UNL     1      46.393   9.228  12.796  0.00  0.00    +0.000 C 
ATOM      4  N   UNL     1      47.718   8.746  13.195  0.00  0.00    +0.000 N 
ATOM      5  C   UNL     1      47.739   7.378  13.721  0.00  0.00    +0.000 C 
ATOM      6  C   UNL     1      47.208   6.430  12.654  0.00  0.00    +0.000 C 
ENDROOT
BRANCH   1  10
ATOM      7  C   UNL     1      44.781   3.599   9.426  0.00  0.00    +0.000 A 
ATOM      8  C   UNL     1      45.563   4.682   8.999  0.00  0.00    +0.000 A 
ATOM      9  C   UNL     1      45.841   5.768   9.840  0.00  0.00    +0.000 A 
ATOM     10  C   UNL     1      45.353   5.799  11.148  0.00  0.00    +0.000 A 
ATOM     11  C   UNL     1      44.539   4.723  11.558  0.00  0.00    +0.000 A 
ATOM     12  C   UNL     1      44.257   3.626  10.722  0.00  0.00    +0.000 A 
BRANCH   7  14
ATOM     13  C   UNL     1      45.782   1.653   8.447  0.00  0.00    +0.000 C 
ATOM     14  O   UNL     1      44.718   2.593   8.501  0.00  0.00    +0.000 OA
ENDBRANCH   7  14
BRANCH  12  15
ATOM     15  C   UNL     1      43.500   2.560  11.309  0.00  0.00    +0.000 C 
ATOM     16  N   UNL     1      42.913   1.698  11.813  0.00  0.00    +0.000 NA
ENDBRANCH  12  15
ENDBRANCH   1  10
BRANCH   4  17
ATOM     17  C   UNL     1      48.899   9.422  12.952  0.00  0.00    +0.000 A 
ATOM     18  C   UNL     1      49.200  10.614  13.621  0.00  0.00    +0.000 A 
ATOM     19  C   UNL     1      50.404  11.260  13.399  0.00  0.00    +0.000 A 
ATOM     20  N   UNL     1      51.338  10.815  12.543  0.00  0.00    +0.000 NA
ATOM     21  C   UNL     1      51.059   9.670  11.862  0.00  0.00    +0.000 A 
ATOM     22  C   UNL     1      49.857   8.969  12.041  0.00  0.00    +0.000 A 
BRANCH  21  23
ATOM     23  C   UNL     1      52.084   9.123  10.881  0.00  0.00    +0.000 C 
ATOM     24  F   UNL     1      53.302   8.848  11.430  0.00  0.00    +0.000 F 
ATOM     25  F   UNL     1      51.674   7.960  10.293  0.00  0.00    +0.000 F 
ATOM     26  F   UNL     1      52.330   9.982   9.847  0.00  0.00    +0.000 F 
ENDBRANCH  21  23
ENDBRANCH   4  17
BRANCH   1  27
ATOM     27  O   UNL     1      44.906   6.730  13.311  0.00  0.00    +0.000 OA
ATOM     28  H   UNL     1      44.992   7.550  13.828  0.00  0.00    +0.000 HD
ENDBRANCH   1  27
TORSDOF 6
ENDMDL
