MODEL 1
REMARK VINA RESULT:    -7.040      0.000      0.000
REMARK INTER + INTRA:          -8.821
REMARK INTER:                  -8.892
REMARK INTRA:                   0.071
REMARK UNBOUND:                 0.071
REMARK  Name = 
REMARK  5 active torsions:
REMARK  status: ('A' for Active; 'I' for Inactive)
REMARK    1  A    between atoms: O_1  and  C_2
REMARK    2  A    between atoms: C_5  and  O_6
REMARK    3  A    between atoms: O_6  and  C_7
REMARK    4  A    between atoms: C_7  and  C_8
REMARK    5  A    between atoms: C_13  and  C_14
REMARK                            x       y       z     vdW  Elec       q    Type
REMARK                         _______ _______ _______ _____ _____    ______ ____
ROOT
ATOM      1  C   UNL     1      45.063   4.738  12.256  0.00  0.00    +0.000 A 
ATOM      2  C   UNL     1      45.552   3.617  12.951  0.00  0.00    +0.000 A 
ATOM      3  C   UNL     1      46.624   3.711  13.844  0.00  0.00    +0.000 A 
ATOM      4  C   UNL     1      47.239   4.938  14.051  0.00  0.00    +0.000 A 
ATOM      5  F   UNL     1      48.274   5.003  14.901  0.00  0.00    +0.000 F 
ATOM      6  C   UNL     1      46.803   6.087  13.388  0.00  0.00    +0.000 A 
ATOM      7  C   UNL     1      45.712   5.957  12.507  0.00  0.00    +0.000 A 
ENDROOT
BRANCH   6   8
ATOM      8  C   UNL     1      47.472   7.425  13.668  0.00  0.00    +0.000 C 
ATOM      9  C   UNL     1      47.369   8.364  12.456  0.00  0.00    +0.000 C 
ATOM     10  C   UNL     1      48.380   8.013  11.367  0.00  0.00    +0.000 C 
ATOM     11  C   UNL     1      49.799   7.859  11.916  0.00  0.00    +0.000 C 
ATOM     12  N   UNL     1      49.885   6.969  13.071  0.00  0.00    +0.000 NA
ATOM     13  C   UNL     1      48.943   7.336  14.135  0.00  0.00    +0.000 C 
ATOM     14  H   UNL     1      50.835   6.958  13.437  0.00  0.00    +0.000 HD
ENDBRANCH   6   8
BRANCH   1  15
ATOM     15  C   UNL     1      43.904   4.655  11.258  0.00  0.00    +0.000 C 
ATOM     16  C   UNL     1      42.495   5.015  11.713  0.00  0.00    +0.000 C 
ATOM     17  C   UNL     1      43.248   5.947  10.823  0.00  0.00    +0.000 C 
BRANCH  15  18
ATOM     18  O   UNL     1      43.845   3.511  10.358  0.00  0.00    +0.000 OA
BRANCH  18  22
ATOM     19  C   UNL     1      46.593   3.341   7.427  0.00  0.00    +0.000 A 
ATOM     20  C   UNL     1      46.210   2.183   8.083  0.00  0.00    +0.000 A 
ATOM     21  N   UNL     1      45.351   2.183   9.122  0.00  0.00    +0.000 NA
ATOM     22  C   UNL     1      44.878   3.412   9.459  0.00  0.00    +0.000 A 
ATOM     23  C   UNL     1      45.345   4.575   8.874  0.00  0.00    +0.000 A 
ATOM     24  N   UNL     1      46.214   4.568   7.830  0.00  0.00    +0.000 NA
BRANCH  19  25
ATOM     25  O   UNL     1      47.308   3.299   6.269  0.00  0.00    +0.000 OA
ATOM     26  H   UNL     1      47.670   2.405   6.191  0.00  0.00    +0.000 HD
ENDBRANCH  19  25
ENDBRANCH  18  22
ENDBRANCH  15  18
ENDBRANCH   1  15
TORSDOF 5
ENDMDL
MODEL 2
REMARK VINA RESULT:    -6.930      2.022      2.835
REMARK INTER + INTRA:          -8.681
REMARK INTER:                  -8.213
REMARK INTRA:                  -0.468
REMARK UNBOUND:                 0.071
REMARK  Name = 
REMARK  5 active torsions:
REMARK  status: ('A' for Active; 'I' for Inactive)
REMARK    1  A    between atoms: O_1  and  C_2
REMARK    2  A    between atoms: C_5  and  O_6
REMARK    3  A    between atoms: O_6  and  C_7
REMARK    4  A    between atoms: C_7  and  C_8
REMARK    5  A    between atoms: C_13  and  C_14
REMARK                            x       y       z     vdW  Elec       q    Type
REMARK                         _______ _______ _______ _____ _____    ______ ____
ROOT
ATOM      1  C   UNL     1      44.607   6.897  11.977  0.00  0.00    +0.000 A 
ATOM      2  C   UNL     1      44.029   8.007  11.332  0.00  0.00    +0.000 A 
ATOM      3  C   UNL     1      44.601   9.280  11.400  0.00  0.00    +0.000 A 
ATOM      4  C   UNL     1      45.766   9.471  12.129  0.00  0.00    +0.000 A 
ATOM      5  F   UNL     1      46.290  10.705  12.192  0.00  0.00    +0.000 F 
ATOM      6  C   UNL     1      46.385   8.411  12.794  0.00  0.00    +0.000 A 
ATOM      7  C   UNL     1      45.789   7.140  12.693  0.00  0.00    +0.000 A 
ENDROOT
BRANCH   6   8
ATOM      8  C   UNL     1      47.685   8.646  13.551  0.00  0.00    +0.000 C 
ATOM      9  C   UNL     1      48.675   9.474  12.716  0.00  0.00    +0.000 C 
ATOM     10  C   UNL     1      49.372   8.634  11.648  0.00  0.00    +0.000 C 
ATOM     11  C   UNL     1      49.965   7.344  12.217  0.00  0.00    +0.000 C 
ATOM     12  N   UNL     1      49.019   6.568  13.014  0.00  0.00    +0.000 NA
ATOM     13  C   UNL     1      48.383   7.367  14.068  0.00  0.00    +0.000 C 
ATOM     14  H   UNL     1      49.483   5.760  13.424  0.00  0.00    +0.000 HD
ENDBRANCH   6   8
BRANCH   1  15
ATOM     15  C   UNL     1      43.987   5.497  11.934  0.00  0.00    +0.000 C 
ATOM     16  C   UNL     1      42.957   5.099  12.985  0.00  0.00    +0.000 C 
ATOM     17  C   UNL     1      42.520   5.380  11.585  0.00  0.00    +0.000 C 
BRANCH  15  18
ATOM     18  O   UNL     1      44.858   4.362  11.655  0.00  0.00    +0.000 OA
BRANCH  18  22
ATOM     19  C   UNL     1      45.692   3.235   7.887  0.00  0.00    +0.000 A 
ATOM     20  C   UNL     1      45.872   4.553   8.270  0.00  0.00    +0.000 A 
ATOM     21  N   UNL     1      45.542   5.010   9.494  0.00  0.00    +0.000 NA
ATOM     22  C   UNL     1      45.034   4.064  10.327  0.00  0.00    +0.000 A 
ATOM     23  C   UNL     1      44.754   2.776   9.907  0.00  0.00    +0.000 A 
ATOM     24  N   UNL     1      45.086   2.323   8.671  0.00  0.00    +0.000 NA
BRANCH  19  25
ATOM     25  O   UNL     1      46.204   2.756   6.720  0.00  0.00    +0.000 OA
ATOM     26  H   UNL     1      45.856   1.859   6.604  0.00  0.00    +0.000 HD
ENDBRANCH  19  25
ENDBRANCH  18  22
ENDBRANCH  15  18
ENDBRANCH   1  15
TORSDOF 5
ENDMDL
MODEL 3
REMARK VINA RESULT:    -6.885      3.247      6.793
REMARK INTER + INTRA:          -8.624
REMARK INTER:                  -8.349
REMARK INTRA:                  -0.275
REMARK UNBOUND:                 0.071
REMARK  Name = 
REMARK  5 active torsions:
REMARK  status: ('A' for Active; 'I' for Inactive)
REMARK    1  A    between atoms: O_1  and  C_2
REMARK    2  A    between atoms: C_5  and  O_6
REMARK    3  A    between atoms: O_6  and  C_7
REMARK    4  A    between atoms: C_7  and  C_8
REMARK    5  A    between atoms: C_13  and  C_14
REMARK                            x       y       z     vdW  Elec       q    Type
REMARK                         _______ _______ _______ _____ _____    ______ ____
ROOT
ATOM      1  C   UNL     1      46.811   7.519  12.514  0.00  0.00    +0.000 A 
ATOM      2  C   UNL     1      46.347   8.847  12.495  0.00  0.00    +0.000 A 
ATOM      3  C   UNL     1      45.097   9.185  11.968  0.00  0.00    +0.000 A 
ATOM      4  C   UNL     1      44.286   8.192  11.435  0.00  0.00    +0.000 A 
ATOM      5  F   UNL     1      43.097   8.542  10.922  0.00  0.00    +0.000 F 
ATOM      6  C   UNL     1      44.692   6.857  11.421  0.00  0.00    +0.000 A 
ATOM      7  C   UNL     1      45.951   6.551  11.973  0.00  0.00    +0.000 A 
ENDROOT
BRANCH   6   8
ATOM      8  C   UNL     1      43.761   5.787  10.866  0.00  0.00    +0.000 C 
ATOM      9  C   UNL     1      42.586   5.522  11.821  0.00  0.00    +0.000 C 
ATOM     10  C   UNL     1      42.992   4.647  13.005  0.00  0.00    +0.000 C 
ATOM     11  C   UNL     1      43.737   3.385  12.569  0.00  0.00    +0.000 C 
ATOM     12  N   UNL     1      44.848   3.647  11.658  0.00  0.00    +0.000 NA
ATOM     13  C   UNL     1      44.445   4.451  10.498  0.00  0.00    +0.000 C 
ATOM     14  H   UNL     1      45.262   2.771  11.346  0.00  0.00    +0.000 HD
ENDBRANCH   6   8
BRANCH   1  15
ATOM     15  C   UNL     1      48.185   7.127  13.068  0.00  0.00    +0.000 C 
ATOM     16  C   UNL     1      49.435   7.802  12.519  0.00  0.00    +0.000 C 
ATOM     17  C   UNL     1      48.940   8.153  13.883  0.00  0.00    +0.000 C 
BRANCH  15  18
ATOM     18  O   UNL     1      48.460   5.716  13.304  0.00  0.00    +0.000 OA
BRANCH  18  22
ATOM     19  C   UNL     1      47.259   4.601  16.975  0.00  0.00    +0.000 A 
ATOM     20  C   UNL     1      48.381   5.399  16.828  0.00  0.00    +0.000 A 
ATOM     21  N   UNL     1      48.878   5.745  15.625  0.00  0.00    +0.000 NA
ATOM     22  C   UNL     1      48.174   5.261  14.567  0.00  0.00    +0.000 A 
ATOM     23  C   UNL     1      47.121   4.377  14.717  0.00  0.00    +0.000 A 
ATOM     24  N   UNL     1      46.628   4.028  15.933  0.00  0.00    +0.000 NA
BRANCH  19  25
ATOM     25  O   UNL     1      46.668   4.421  18.189  0.00  0.00    +0.000 OA
ATOM     26  H   UNL     1      47.307   4.701  18.861  0.00  0.00    +0.000 HD
ENDBRANCH  19  25
ENDBRANCH  18  22
ENDBRANCH  15  18
ENDBRANCH   1  15
TORSDOF 5
ENDMDL
MODEL 4
REMARK VINA RESULT:    -6.616      1.872      2.844
REMARK INTER + INTRA:          -8.285
REMARK INTER:                  -9.053
REMARK INTRA:                   0.769
REMARK UNBOUND:                 0.071
REMARK  Name = 
REMARK  5 active torsions:
REMARK  status: ('A' for Active; 'I' for Inactive)
REMARK    1  A    between atoms: O_1  and  C_2
REMARK    2  A    between atoms: C_5  and  O_6
REMARK    3  A    between atoms: O_6  and  C_7
REMARK    4  A    between atoms: C_7  and  C_8
REMARK    5  A    between atoms: C_13  and  C_14
REMARK                            x       y       z     vdW  Elec       q    Type
REMARK                         _______ _______ _______ _____ _____    ______ ____
ROOT
ATOM      1  C   UNL     1      44.315   5.412  11.365  0.00  0.00    +0.000 A 
ATOM      2  C   UNL     1      43.225   6.283  11.188  0.00  0.00    +0.000 A 
ATOM      3  C   UNL     1      43.374   7.672  11.239  0.00  0.00    +0.000 A 
ATOM      4  C   UNL     1      44.626   8.219  11.482  0.00  0.00    +0.000 A 
ATOM      5  F   UNL     1      44.744   9.554  11.541  0.00  0.00    +0.000 F 
ATOM      6  C   UNL     1      45.746   7.407  11.670  0.00  0.00    +0.000 A 
ATOM      7  C   UNL     1      45.562   6.013  11.597  0.00  0.00    +0.000 A 
ENDROOT
BRANCH   6   8
ATOM      8  C   UNL     1      47.113   8.040  11.893  0.00  0.00    +0.000 C 
ATOM      9  C   UNL     1      48.180   6.973  12.186  0.00  0.00    +0.000 C 
ATOM     10  C   UNL     1      48.108   6.465  13.625  0.00  0.00    +0.000 C 
ATOM     11  C   UNL     1      48.070   7.605  14.644  0.00  0.00    +0.000 C 
ATOM     12  N   UNL     1      47.058   8.616  14.353  0.00  0.00    +0.000 NA
ATOM     13  C   UNL     1      47.158   9.134  12.984  0.00  0.00    +0.000 C 
ATOM     14  H   UNL     1      47.124   9.383  15.020  0.00  0.00    +0.000 HD
ENDBRANCH   6   8
BRANCH   1  15
ATOM     15  C   UNL     1      44.173   3.886  11.333  0.00  0.00    +0.000 C 
ATOM     16  C   UNL     1      45.145   3.025  12.129  0.00  0.00    +0.000 C 
ATOM     17  C   UNL     1      43.739   3.187  12.603  0.00  0.00    +0.000 C 
BRANCH  15  18
ATOM     18  O   UNL     1      43.889   3.243  10.057  0.00  0.00    +0.000 OA
BRANCH  18  22
ATOM     19  C   UNL     1      46.700   3.137   7.185  0.00  0.00    +0.000 A 
ATOM     20  C   UNL     1      46.376   1.983   7.877  0.00  0.00    +0.000 A 
ATOM     21  N   UNL     1      45.498   1.967   8.900  0.00  0.00    +0.000 NA
ATOM     22  C   UNL     1      44.944   3.176   9.181  0.00  0.00    +0.000 A 
ATOM     23  C   UNL     1      45.350   4.343   8.560  0.00  0.00    +0.000 A 
ATOM     24  N   UNL     1      46.238   4.353   7.534  0.00  0.00    +0.000 NA
BRANCH  19  25
ATOM     25  O   UNL     1      47.439   3.097   6.042  0.00  0.00    +0.000 OA
ATOM     26  H   UNL     1      48.301   2.722   6.274  0.00  0.00    +0.000 HD
ENDBRANCH  19  25
ENDBRANCH  18  22
ENDBRANCH  15  18
ENDBRANCH   1  15
TORSDOF 5
ENDMDL
MODEL 5
REMARK VINA RESULT:    -6.596      3.159      5.124
REMARK INTER + INTRA:          -8.260
REMARK INTER:                  -8.206
REMARK INTRA:                  -0.055
REMARK UNBOUND:                 0.071
REMARK  Name = 
REMARK  5 active torsions:
REMARK  status: ('A' for Active; 'I' for Inactive)
REMARK    1  A    between atoms: O_1  and  C_2
REMARK    2  A    between atoms: C_5  and  O_6
REMARK    3  A    between atoms: O_6  and  C_7
REMARK    4  A    between atoms: C_7  and  C_8
REMARK    5  A    between atoms: C_13  and  C_14
REMARK                            x       y       z     vdW  Elec       q    Type
REMARK                         _______ _______ _______ _____ _____    ______ ____
ROOT
ATOM      1  C   UNL     1      48.063   6.746  14.072  0.00  0.00    +0.000 A 
ATOM      2  C   UNL     1      49.261   7.403  13.737  0.00  0.00    +0.000 A 
ATOM      3  C   UNL     1      50.353   7.437  14.608  0.00  0.00    +0.000 A 
ATOM      4  C   UNL     1      50.262   6.819  15.847  0.00  0.00    +0.000 A 
ATOM      5  F   UNL     1      51.318   6.876  16.673  0.00  0.00    +0.000 F 
ATOM      6  C   UNL     1      49.099   6.154  16.240  0.00  0.00    +0.000 A 
ATOM      7  C   UNL     1      48.023   6.128  15.331  0.00  0.00    +0.000 A 
ENDROOT
BRANCH   6   8
ATOM      8  C   UNL     1      49.046   5.451  17.589  0.00  0.00    +0.000 C 
ATOM      9  C   UNL     1      49.635   4.034  17.502  0.00  0.00    +0.000 C 
ATOM     10  C   UNL     1      48.659   3.042  16.873  0.00  0.00    +0.000 C 
ATOM     11  C   UNL     1      47.272   3.102  17.516  0.00  0.00    +0.000 C 
ATOM     12  N   UNL     1      46.724   4.453  17.599  0.00  0.00    +0.000 NA
ATOM     13  C   UNL     1      47.647   5.395  18.244  0.00  0.00    +0.000 C 
ATOM     14  H   UNL     1      45.835   4.443  18.096  0.00  0.00    +0.000 HD
ENDBRANCH   6   8
BRANCH   1  15
ATOM     15  C   UNL     1      46.846   6.713  13.142  0.00  0.00    +0.000 C 
ATOM     16  C   UNL     1      46.567   7.899  12.227  0.00  0.00    +0.000 C 
ATOM     17  C   UNL     1      47.092   6.625  11.652  0.00  0.00    +0.000 C 
BRANCH  15  18
ATOM     18  O   UNL     1      45.587   6.201  13.667  0.00  0.00    +0.000 OA
BRANCH  18  22
ATOM     19  C   UNL     1      43.692   3.103  11.940  0.00  0.00    +0.000 A 
ATOM     20  C   UNL     1      44.976   2.941  12.430  0.00  0.00    +0.000 A 
ATOM     21  N   UNL     1      45.692   3.956  12.952  0.00  0.00    +0.000 NA
ATOM     22  C   UNL     1      45.041   5.149  12.973  0.00  0.00    +0.000 A 
ATOM     23  C   UNL     1      43.803   5.330  12.385  0.00  0.00    +0.000 A 
ATOM     24  N   UNL     1      43.088   4.304  11.856  0.00  0.00    +0.000 NA
BRANCH  19  25
ATOM     25  O   UNL     1      42.922   2.036  11.593  0.00  0.00    +0.000 OA
ATOM     26  H   UNL     1      43.193   1.295  12.156  0.00  0.00    +0.000 HD
ENDBRANCH  19  25
ENDBRANCH  18  22
ENDBRANCH  15  18
ENDBRANCH   1  15
TORSDOF 5
ENDMDL
MODEL 6
REMARK VINA RESULT:    -6.402      3.184      6.734
REMARK INTER + INTRA:          -8.014
REMARK INTER:                  -7.995
REMARK INTRA:                  -0.020
REMARK UNBOUND:                 0.071
REMARK  Name = 
REMARK  5 active torsions:
REMARK  status: ('A' for Active; 'I' for Inactive)
REMARK    1  A    between atoms: O_1  and  C_2
REMARK    2  A    between atoms: C_5  and  O_6
REMARK    3  A    between atoms: O_6  and  C_7
REMARK    4  A    between atoms: C_7  and  C_8
REMARK    5  A    between atoms: C_13  and  C_14
REMARK                            x       y       z     vdW  Elec       q    Type
REMARK                         _______ _______ _______ _____ _____    ______ ____
ROOT
ATOM      1  C   UNL     1      45.690   5.140  12.269  0.00  0.00    +0.000 A 
ATOM      2  C   UNL     1      45.016   4.426  13.276  0.00  0.00    +0.000 A 
ATOM      3  C   UNL     1      44.088   3.425  12.977  0.00  0.00    +0.000 A 
ATOM      4  C   UNL     1      43.806   3.124  11.651  0.00  0.00    +0.000 A 
ATOM      5  F   UNL     1      42.902   2.169  11.387  0.00  0.00    +0.000 F 
ATOM      6  C   UNL     1      44.439   3.800  10.606  0.00  0.00    +0.000 A 
ATOM      7  C   UNL     1      45.378   4.793  10.945  0.00  0.00    +0.000 A 
ENDROOT
BRANCH   6   8
ATOM      8  C   UNL     1      44.139   3.418   9.164  0.00  0.00    +0.000 C 
ATOM      9  C   UNL     1      44.515   1.954   8.885  0.00  0.00    +0.000 C 
ATOM     10  C   UNL     1      46.019   1.774   8.688  0.00  0.00    +0.000 C 
ATOM     11  C   UNL     1      46.599   2.768   7.681  0.00  0.00    +0.000 C 
ATOM     12  N   UNL     1      46.230   4.155   7.952  0.00  0.00    +0.000 NA
ATOM     13  C   UNL     1      44.781   4.334   8.096  0.00  0.00    +0.000 C 
ATOM     14  H   UNL     1      46.583   4.763   7.215  0.00  0.00    +0.000 HD
ENDBRANCH   6   8
BRANCH   1  15
ATOM     15  C   UNL     1      46.695   6.256  12.573  0.00  0.00    +0.000 C 
ATOM     16  C   UNL     1      46.855   7.410  11.591  0.00  0.00    +0.000 C 
ATOM     17  C   UNL     1      46.154   7.632  12.890  0.00  0.00    +0.000 C 
BRANCH  15  18
ATOM     18  O   UNL     1      48.001   5.886  13.103  0.00  0.00    +0.000 OA
BRANCH  18  22
ATOM     19  C   UNL     1      48.791   6.066  17.041  0.00  0.00    +0.000 A 
ATOM     20  C   UNL     1      48.081   4.994  16.528  0.00  0.00    +0.000 A 
ATOM     21  N   UNL     1      47.720   4.911  15.232  0.00  0.00    +0.000 NA
ATOM     22  C   UNL     1      48.128   5.960  14.468  0.00  0.00    +0.000 A 
ATOM     23  C   UNL     1      48.741   7.077  15.005  0.00  0.00    +0.000 A 
ATOM     24  N   UNL     1      49.098   7.156  16.313  0.00  0.00    +0.000 NA
BRANCH  19  25
ATOM     25  O   UNL     1      49.306   6.040  18.301  0.00  0.00    +0.000 OA
ATOM     26  H   UNL     1      49.854   5.244  18.368  0.00  0.00    +0.000 HD
ENDBRANCH  19  25
ENDBRANCH  18  22
ENDBRANCH  15  18
ENDBRANCH   1  15
TORSDOF 5
ENDMDL
MODEL 7
REMARK VINA RESULT:    -6.237      3.270      5.573
REMARK INTER + INTRA:          -7.807
REMARK INTER:                  -7.438
REMARK INTRA:                  -0.368
REMARK UNBOUND:                 0.071
REMARK  Name = 
REMARK  5 active torsions:
REMARK  status: ('A' for Active; 'I' for Inactive)
REMARK    1  A    between atoms: O_1  and  C_2
REMARK    2  A    between atoms: C_5  and  O_6
REMARK    3  A    between atoms: O_6  and  C_7
REMARK    4  A    between atoms: C_7  and  C_8
REMARK    5  A    between atoms: C_13  and  C_14
REMARK                            x       y       z     vdW  Elec       q    Type
REMARK                         _______ _______ _______ _____ _____    ______ ____
ROOT
ATOM      1  C   UNL     1      48.277   7.854  14.493  0.00  0.00    +0.000 A 
ATOM      2  C   UNL     1      48.270   9.170  14.990  0.00  0.00    +0.000 A 
ATOM      3  C   UNL     1      48.493   9.450  16.341  0.00  0.00    +0.000 A 
ATOM      4  C   UNL     1      48.718   8.408  17.230  0.00  0.00    +0.000 A 
ATOM      5  F   UNL     1      48.916   8.700  18.525  0.00  0.00    +0.000 F 
ATOM      6  C   UNL     1      48.734   7.081  16.799  0.00  0.00    +0.000 A 
ATOM      7  C   UNL     1      48.520   6.837  15.429  0.00  0.00    +0.000 A 
ENDROOT
BRANCH   6   8
ATOM      8  C   UNL     1      49.025   5.965  17.792  0.00  0.00    +0.000 C 
ATOM      9  C   UNL     1      49.441   4.672  17.072  0.00  0.00    +0.000 C 
ATOM     10  C   UNL     1      48.243   3.927  16.486  0.00  0.00    +0.000 C 
ATOM     11  C   UNL     1      47.119   3.737  17.506  0.00  0.00    +0.000 C 
ATOM     12  N   UNL     1      46.736   4.970  18.189  0.00  0.00    +0.000 NA
ATOM     13  C   UNL     1      47.883   5.660  18.789  0.00  0.00    +0.000 C 
ATOM     14  H   UNL     1      46.036   4.774  18.903  0.00  0.00    +0.000 HD
ENDBRANCH   6   8
BRANCH   1  15
ATOM     15  C   UNL     1      48.015   7.521  13.021  0.00  0.00    +0.000 C 
ATOM     16  C   UNL     1      48.951   8.067  11.950  0.00  0.00    +0.000 C 
ATOM     17  C   UNL     1      49.000   6.619  12.310  0.00  0.00    +0.000 C 
BRANCH  15  18
ATOM     18  O   UNL     1      46.643   7.567  12.534  0.00  0.00    +0.000 OA
BRANCH  18  22
ATOM     19  C   UNL     1      45.149   3.838  12.376  0.00  0.00    +0.000 A 
ATOM     20  C   UNL     1      45.238   4.595  11.221  0.00  0.00    +0.000 A 
ATOM     21  N   UNL     1      45.659   5.875  11.218  0.00  0.00    +0.000 NA
ATOM     22  C   UNL     1      46.007   6.354  12.442  0.00  0.00    +0.000 A 
ATOM     23  C   UNL     1      45.814   5.631  13.605  0.00  0.00    +0.000 A 
ATOM     24  N   UNL     1      45.385   4.343  13.602  0.00  0.00    +0.000 NA
BRANCH  19  25
ATOM     25  O   UNL     1      44.905   2.499  12.332  0.00  0.00    +0.000 OA
ATOM     26  H   UNL     1      44.481   2.260  13.170  0.00  0.00    +0.000 HD
ENDBRANCH  19  25
ENDBRANCH  18  22
ENDBRANCH  15  18
ENDBRANCH   1  15
TORSDOF 5
ENDMDL
MODEL 8
REMARK VINA RESULT:    -5.959      5.219      7.273
REMARK INTER + INTRA:          -7.456
REMARK INTER:                  -7.024
REMARK INTRA:                  -0.432
REMARK UNBOUND:                 0.071
REMARK  Name = 
REMARK  5 active torsions:
REMARK  status: ('A' for Active; 'I' for Inactive)
REMARK    1  A    between atoms: O_1  and  C_2
REMARK    2  A    between atoms: C_5  and  O_6
REMARK    3  A    between atoms: O_6  and  C_7
REMARK    4  A    between atoms: C_7  and  C_8
REMARK    5  A    between atoms: C_13  and  C_14
REMARK                            x       y       z     vdW  Elec       q    Type
REMARK                         _______ _______ _______ _____ _____    ______ ____
ROOT
ATOM      1  C   UNL     1      49.485   3.113  17.187  0.00  0.00    +0.000 A 
ATOM      2  C   UNL     1      50.109   1.876  16.943  0.00  0.00    +0.000 A 
ATOM      3  C   UNL     1      51.439   1.636  17.301  0.00  0.00    +0.000 A 
ATOM      4  C   UNL     1      52.179   2.643  17.906  0.00  0.00    +0.000 A 
ATOM      5  F   UNL     1      53.457   2.395  18.229  0.00  0.00    +0.000 F 
ATOM      6  C   UNL     1      51.618   3.894  18.170  0.00  0.00    +0.000 A 
ATOM      7  C   UNL     1      50.272   4.095  17.809  0.00  0.00    +0.000 A 
ENDROOT
BRANCH   6   8
ATOM      8  C   UNL     1      52.444   4.962  18.872  0.00  0.00    +0.000 C 
ATOM      9  C   UNL     1      52.660   4.617  20.354  0.00  0.00    +0.000 C 
ATOM     10  C   UNL     1      51.427   4.921  21.202  0.00  0.00    +0.000 C 
ATOM     11  C   UNL     1      50.890   6.333  20.964  0.00  0.00    +0.000 C 
ATOM     12  N   UNL     1      50.694   6.654  19.552  0.00  0.00    +0.000 NA
ATOM     13  C   UNL     1      51.895   6.402  18.747  0.00  0.00    +0.000 C 
ATOM     14  H   UNL     1      50.404   7.624  19.449  0.00  0.00    +0.000 HD
ENDBRANCH   6   8
BRANCH   1  15
ATOM     15  C   UNL     1      48.036   3.406  16.784  0.00  0.00    +0.000 C 
ATOM     16  C   UNL     1      46.896   2.864  17.638  0.00  0.00    +0.000 C 
ATOM     17  C   UNL     1      47.223   4.321  17.674  0.00  0.00    +0.000 C 
BRANCH  15  18
ATOM     18  O   UNL     1      47.675   3.309  15.376  0.00  0.00    +0.000 OA
BRANCH  18  22
ATOM     19  C   UNL     1      46.844   6.586  13.200  0.00  0.00    +0.000 A 
ATOM     20  C   UNL     1      47.982   6.550  13.987  0.00  0.00    +0.000 A 
ATOM     21  N   UNL     1      48.278   5.513  14.795  0.00  0.00    +0.000 NA
ATOM     22  C   UNL     1      47.375   4.498  14.759  0.00  0.00    +0.000 A 
ATOM     23  C   UNL     1      46.187   4.584  14.056  0.00  0.00    +0.000 A 
ATOM     24  N   UNL     1      45.893   5.634  13.247  0.00  0.00    +0.000 NA
BRANCH  19  25
ATOM     25  O   UNL     1      46.661   7.549  12.256  0.00  0.00    +0.000 OA
ATOM     26  H   UNL     1      45.705   7.656  12.140  0.00  0.00    +0.000 HD
ENDBRANCH  19  25
ENDBRANCH  18  22
ENDBRANCH  15  18
ENDBRANCH   1  15
TORSDOF 5
ENDMDL
MODEL 9
REMARK VINA RESULT:    -5.808      4.868      7.286
REMARK INTER + INTRA:          -7.264
REMARK INTER:                  -7.078
REMARK INTRA:                  -0.186
REMARK UNBOUND:                 0.071
REMARK  Name = 
REMARK  5 active torsions:
REMARK  status: ('A' for Active; 'I' for Inactive)
REMARK    1  A    between atoms: O_1  and  C_2
REMARK    2  A    between atoms: C_5  and  O_6
REMARK    3  A    between atoms: O_6  and  C_7
REMARK    4  A    between atoms: C_7  and  C_8
REMARK    5  A    between atoms: C_13  and  C_14
REMARK                            x       y       z     vdW  Elec       q    Type
REMARK                         _______ _______ _______ _____ _____    ______ ____
ROOT
ATOM      1  C   UNL     1      48.161   5.339  15.766  0.00  0.00    +0.000 A 
ATOM      2  C   UNL     1      47.172   4.379  15.482  0.00  0.00    +0.000 A 
ATOM      3  C   UNL     1      46.489   4.361  14.263  0.00  0.00    +0.000 A 
ATOM      4  C   UNL     1      46.778   5.318  13.300  0.00  0.00    +0.000 A 
ATOM      5  F   UNL     1      46.101   5.290  12.142  0.00  0.00    +0.000 F 
ATOM      6  C   UNL     1      47.746   6.299  13.523  0.00  0.00    +0.000 A 
ATOM      7  C   UNL     1      48.424   6.278  14.757  0.00  0.00    +0.000 A 
ENDROOT
BRANCH   6   8
ATOM      8  C   UNL     1      48.068   7.309  12.431  0.00  0.00    +0.000 C 
ATOM      9  C   UNL     1      49.516   7.814  12.547  0.00  0.00    +0.000 C 
ATOM     10  C   UNL     1      49.675   8.858  13.651  0.00  0.00    +0.000 C 
ATOM     11  C   UNL     1      48.633   9.973  13.553  0.00  0.00    +0.000 C 
ATOM     12  N   UNL     1      47.262   9.483  13.437  0.00  0.00    +0.000 NA
ATOM     13  C   UNL     1      47.102   8.513  12.347  0.00  0.00    +0.000 C 
ATOM     14  H   UNL     1      46.620  10.263  13.304  0.00  0.00    +0.000 HD
ENDBRANCH   6   8
BRANCH   1  15
ATOM     15  C   UNL     1      48.908   5.391  17.103  0.00  0.00    +0.000 C 
ATOM     16  C   UNL     1      48.550   6.467  18.120  0.00  0.00    +0.000 C 
ATOM     17  C   UNL     1      48.138   5.053  18.360  0.00  0.00    +0.000 C 
BRANCH  15  18
ATOM     18  O   UNL     1      50.350   5.188  17.099  0.00  0.00    +0.000 OA
BRANCH  18  22
ATOM     19  C   UNL     1      51.897   1.511  17.602  0.00  0.00    +0.000 A 
ATOM     20  C   UNL     1      50.659   1.663  17.003  0.00  0.00    +0.000 A 
ATOM     21  N   UNL     1      50.053   2.860  16.872  0.00  0.00    +0.000 NA
ATOM     22  C   UNL     1      50.769   3.907  17.361  0.00  0.00    +0.000 A 
ATOM     23  C   UNL     1      51.953   3.739  18.055  0.00  0.00    +0.000 A 
ATOM     24  N   UNL     1      52.556   2.530  18.188  0.00  0.00    +0.000 NA
BRANCH  19  25
ATOM     25  O   UNL     1      52.571   0.329  17.555  0.00  0.00    +0.000 OA
ATOM     26  H   UNL     1      52.793   0.166  16.626  0.00  0.00    +0.000 HD
ENDBRANCH  19  25
ENDBRANCH  18  22
ENDBRANCH  15  18
ENDBRANCH   1  15
TORSDOF 5
ENDMDL
