MODEL 1
REMARK VINA RESULT:    -7.802      0.000      0.000
REMARK INTER + INTRA:         -10.294
REMARK INTER:                  -9.627
REMARK INTRA:                  -0.668
REMARK UNBOUND:                -0.668
REMARK  Name = 
REMARK  4 active torsions:
REMARK  status: ('A' for Active; 'I' for Inactive)
REMARK    1  A    between atoms: C_7  and  O_8
REMARK    2  A    between atoms: O_8  and  C_9
REMARK    3  A    between atoms: C_9  and  C_10
REMARK    4  A    between atoms: C_14  and  C_15
REMARK                            x       y       z     vdW  Elec       q    Type
REMARK                         _______ _______ _______ _____ _____    ______ ____
ROOT
ATOM      1  C   UNL     1      45.005   4.128  11.015  0.00  0.00    +0.000 A 
ATOM      2  C   UNL     1      45.077   3.443  12.221  0.00  0.00    +0.000 A 
ATOM      3  N   UNL     1      45.652   3.941  13.335  0.00  0.00    +0.000 NA
ATOM      4  C   UNL     1      46.201   5.177  13.237  0.00  0.00    +0.000 A 
ATOM      5  C   UNL     1      46.210   5.969  12.086  0.00  0.00    +0.000 A 
ATOM      6  C   UNL     1      45.590   5.400  10.959  0.00  0.00    +0.000 A 
ENDROOT
BRANCH   5   7
ATOM      7  C   UNL     1      46.825   7.316  12.059  0.00  0.00    +0.000 A 
ATOM      8  C   UNL     1      46.090   8.467  12.377  0.00  0.00    +0.000 A 
ATOM      9  C   UNL     1      46.708   9.709  12.344  0.00  0.00    +0.000 A 
ATOM     10  N   UNL     1      48.000   9.895  12.011  0.00  0.00    +0.000 NA
ATOM     11  C   UNL     1      48.703   8.789  11.700  0.00  0.00    +0.000 A 
ATOM     12  C   UNL     1      48.172   7.507  11.714  0.00  0.00    +0.000 A 
ENDBRANCH   5   7
BRANCH   1  13
ATOM     13  C   UNL     1      44.321   3.514   9.825  0.00  0.00    +0.000 C 
BRANCH  13  14
ATOM     14  O   UNL     1      44.980   3.945   8.633  0.00  0.00    +0.000 OA
BRANCH  14  21
ATOM     15  F   UNL     1      46.833  -0.461   8.069  0.00  0.00    +0.000 F 
ATOM     16  C   UNL     1      46.673   0.800   7.649  0.00  0.00    +0.000 A 
ATOM     17  C   UNL     1      47.297   1.214   6.484  0.00  0.00    +0.000 A 
ATOM     18  C   UNL     1      47.132   2.527   6.074  0.00  0.00    +0.000 A 
ATOM     19  F   UNL     1      47.730   2.947   4.952  0.00  0.00    +0.000 F 
ATOM     20  C   UNL     1      46.351   3.418   6.811  0.00  0.00    +0.000 A 
ATOM     21  C   UNL     1      45.709   2.987   7.974  0.00  0.00    +0.000 A 
ATOM     22  C   UNL     1      45.882   1.672   8.400  0.00  0.00    +0.000 A 
ENDBRANCH  14  21
ENDBRANCH  13  14
ENDBRANCH   1  13
TORSDOF 4
ENDMDL
MODEL 2
REMARK VINA RESULT:    -7.740      0.505      1.819
REMARK INTER + INTRA:         -10.218
REMARK INTER:                  -9.562
REMARK INTRA:                  -0.656
REMARK UNBOUND:                -0.668
REMARK  Name = 
REMARK  4 active torsions:
REMARK  status: ('A' for Active; 'I' for Inactive)
REMARK    1  A    between atoms: C_7  and  O_8
REMARK    2  A    between atoms: O_8  and  C_9
REMARK    3  A    between atoms: C_9  and  C_10
REMARK    4  A    between atoms: C_14  and  C_15
REMARK                            x       y       z     vdW  Elec       q    Type
REMARK                         _______ _______ _______ _____ _____    ______ ____
ROOT
ATOM      1  C   UNL     1      45.067   3.853  11.217  0.00  0.00    +0.000 A 
ATOM      2  C   UNL     1      45.376   3.185  12.395  0.00  0.00    +0.000 A 
ATOM      3  N   UNL     1      45.938   3.776  13.469  0.00  0.00    +0.000 NA
ATOM      4  C   UNL     1      46.226   5.097  13.357  0.00  0.00    +0.000 A 
ATOM      5  C   UNL     1      45.980   5.886  12.230  0.00  0.00    +0.000 A 
ATOM      6  C   UNL     1      45.387   5.217  11.145  0.00  0.00    +0.000 A 
ENDROOT
BRANCH   5   7
ATOM      7  C   UNL     1      46.317   7.327  12.187  0.00  0.00    +0.000 A 
ATOM      8  C   UNL     1      45.322   8.316  12.216  0.00  0.00    +0.000 A 
ATOM      9  C   UNL     1      45.684   9.655  12.179  0.00  0.00    +0.000 A 
ATOM     10  N   UNL     1      46.958  10.086  12.107  0.00  0.00    +0.000 NA
ATOM     11  C   UNL     1      47.911   9.136  12.072  0.00  0.00    +0.000 A 
ATOM     12  C   UNL     1      47.645   7.774  12.114  0.00  0.00    +0.000 A 
ENDBRANCH   5   7
BRANCH   1  13
ATOM     13  C   UNL     1      44.414   3.128  10.072  0.00  0.00    +0.000 C 
BRANCH  13  14
ATOM     14  O   UNL     1      44.797   3.752   8.845  0.00  0.00    +0.000 OA
BRANCH  14  21
ATOM     15  F   UNL     1      47.615   3.080   5.002  0.00  0.00    +0.000 F 
ATOM     16  C   UNL     1      47.040   2.624   6.122  0.00  0.00    +0.000 A 
ATOM     17  C   UNL     1      47.255   1.311   6.511  0.00  0.00    +0.000 A 
ATOM     18  C   UNL     1      46.639   0.853   7.665  0.00  0.00    +0.000 A 
ATOM     19  F   UNL     1      46.832  -0.413   8.055  0.00  0.00    +0.000 F 
ATOM     20  C   UNL     1      45.824   1.690   8.426  0.00  0.00    +0.000 A 
ATOM     21  C   UNL     1      45.629   3.019   8.037  0.00  0.00    +0.000 A 
ATOM     22  C   UNL     1      46.234   3.482   6.871  0.00  0.00    +0.000 A 
ENDBRANCH  14  21
ENDBRANCH  13  14
ENDBRANCH   1  13
TORSDOF 4
ENDMDL
MODEL 3
REMARK VINA RESULT:    -7.589      3.522      6.728
REMARK INTER + INTRA:         -10.032
REMARK INTER:                  -9.244
REMARK INTRA:                  -0.788
REMARK UNBOUND:                -0.668
REMARK  Name = 
REMARK  4 active torsions:
REMARK  status: ('A' for Active; 'I' for Inactive)
REMARK    1  A    between atoms: C_7  and  O_8
REMARK    2  A    between atoms: O_8  and  C_9
REMARK    3  A    between atoms: C_9  and  C_10
REMARK    4  A    between atoms: C_14  and  C_15
REMARK                            x       y       z     vdW  Elec       q    Type
REMARK                         _______ _______ _______ _____ _____    ______ ____
ROOT
ATOM      1  C   UNL     1      43.699   4.862  10.756  0.00  0.00    +0.000 A 
ATOM      2  C   UNL     1      43.096   3.853  11.495  0.00  0.00    +0.000 A 
ATOM      3  N   UNL     1      43.284   2.537  11.263  0.00  0.00    +0.000 NA
ATOM      4  C   UNL     1      44.100   2.210  10.231  0.00  0.00    +0.000 A 
ATOM      5  C   UNL     1      44.760   3.121   9.402  0.00  0.00    +0.000 A 
ATOM      6  C   UNL     1      44.531   4.477   9.695  0.00  0.00    +0.000 A 
ENDROOT
BRANCH   5   7
ATOM      7  C   UNL     1      45.643   2.686   8.296  0.00  0.00    +0.000 A 
ATOM      8  C   UNL     1      45.970   3.543   7.235  0.00  0.00    +0.000 A 
ATOM      9  C   UNL     1      46.806   3.095   6.222  0.00  0.00    +0.000 A 
ATOM     10  N   UNL     1      47.336   1.858   6.179  0.00  0.00    +0.000 NA
ATOM     11  C   UNL     1      47.015   1.034   7.195  0.00  0.00    +0.000 A 
ATOM     12  C   UNL     1      46.195   1.397   8.254  0.00  0.00    +0.000 A 
ENDBRANCH   5   7
BRANCH   1  13
ATOM     13  C   UNL     1      43.460   6.308  11.095  0.00  0.00    +0.000 C 
BRANCH  13  14
ATOM     14  O   UNL     1      43.951   6.567  12.411  0.00  0.00    +0.000 OA
BRANCH  14  21
ATOM     15  F   UNL     1      48.500   7.734  11.358  0.00  0.00    +0.000 F 
ATOM     16  C   UNL     1      47.610   7.030  12.069  0.00  0.00    +0.000 A 
ATOM     17  C   UNL     1      48.060   6.128  13.019  0.00  0.00    +0.000 A 
ATOM     18  C   UNL     1      47.124   5.398  13.734  0.00  0.00    +0.000 A 
ATOM     19  F   UNL     1      47.539   4.518  14.655  0.00  0.00    +0.000 F 
ATOM     20  C   UNL     1      45.757   5.565  13.511  0.00  0.00    +0.000 A 
ATOM     21  C   UNL     1      45.312   6.492  12.565  0.00  0.00    +0.000 A 
ATOM     22  C   UNL     1      46.248   7.220  11.832  0.00  0.00    +0.000 A 
ENDBRANCH  14  21
ENDBRANCH  13  14
ENDBRANCH   1  13
TORSDOF 4
ENDMDL
MODEL 4
REMARK VINA RESULT:    -7.333      1.649      2.621
REMARK INTER + INTRA:          -9.715
REMARK INTER:                  -8.953
REMARK INTRA:                  -0.763
REMARK UNBOUND:                -0.668
REMARK  Name = 
REMARK  4 active torsions:
REMARK  status: ('A' for Active; 'I' for Inactive)
REMARK    1  A    between atoms: C_7  and  O_8
REMARK    2  A    between atoms: O_8  and  C_9
REMARK    3  A    between atoms: C_9  and  C_10
REMARK    4  A    between atoms: C_14  and  C_15
REMARK                            x       y       z     vdW  Elec       q    Type
REMARK                         _______ _______ _______ _____ _____    ______ ____
ROOT
ATOM      1  C   UNL     1      44.571   4.511  11.326  0.00  0.00    +0.000 A 
ATOM      2  C   UNL     1      43.577   5.468  11.170  0.00  0.00    +0.000 A 
ATOM      3  N   UNL     1      43.765   6.788  11.375  0.00  0.00    +0.000 NA
ATOM      4  C   UNL     1      45.003   7.172  11.776  0.00  0.00    +0.000 A 
ATOM      5  C   UNL     1      46.088   6.316  11.983  0.00  0.00    +0.000 A 
ATOM      6  C   UNL     1      45.833   4.954  11.747  0.00  0.00    +0.000 A 
ENDROOT
BRANCH   5   7
ATOM      7  C   UNL     1      47.414   6.813  12.415  0.00  0.00    +0.000 A 
ATOM      8  C   UNL     1      48.265   7.500  11.536  0.00  0.00    +0.000 A 
ATOM      9  C   UNL     1      49.497   7.953  11.986  0.00  0.00    +0.000 A 
ATOM     10  N   UNL     1      49.952   7.768  13.240  0.00  0.00    +0.000 NA
ATOM     11  C   UNL     1      49.137   7.103  14.081  0.00  0.00    +0.000 A 
ATOM     12  C   UNL     1      47.885   6.621  13.723  0.00  0.00    +0.000 A 
ENDBRANCH   5   7
BRANCH   1  13
ATOM     13  C   UNL     1      44.288   3.060  11.051  0.00  0.00    +0.000 C 
BRANCH  13  14
ATOM     14  O   UNL     1      43.883   2.913   9.689  0.00  0.00    +0.000 OA
BRANCH  14  21
ATOM     15  F   UNL     1      46.844   4.278   6.148  0.00  0.00    +0.000 F 
ATOM     16  C   UNL     1      46.394   3.348   7.000  0.00  0.00    +0.000 A 
ATOM     17  C   UNL     1      46.946   2.078   6.974  0.00  0.00    +0.000 A 
ATOM     18  C   UNL     1      46.455   1.125   7.852  0.00  0.00    +0.000 A 
ATOM     19  F   UNL     1      46.974  -0.110   7.840  0.00  0.00    +0.000 F 
ATOM     20  C   UNL     1      45.433   1.431   8.750  0.00  0.00    +0.000 A 
ATOM     21  C   UNL     1      44.896   2.721   8.783  0.00  0.00    +0.000 A 
ATOM     22  C   UNL     1      45.374   3.681   7.893  0.00  0.00    +0.000 A 
ENDBRANCH  14  21
ENDBRANCH  13  14
ENDBRANCH   1  13
TORSDOF 4
ENDMDL
MODEL 5
REMARK VINA RESULT:    -7.277      1.673      2.041
REMARK INTER + INTRA:          -9.646
REMARK INTER:                  -8.903
REMARK INTRA:                  -0.743
REMARK UNBOUND:                -0.668
REMARK  Name = 
REMARK  4 active torsions:
REMARK  status: ('A' for Active; 'I' for Inactive)
REMARK    1  A    between atoms: C_7  and  O_8
REMARK    2  A    between atoms: O_8  and  C_9
REMARK    3  A    between atoms: C_9  and  C_10
REMARK    4  A    between atoms: C_14  and  C_15
REMARK                            x       y       z     vdW  Elec       q    Type
REMARK                         _______ _______ _______ _____ _____    ______ ____
ROOT
ATOM      1  C   UNL     1      44.499   4.601  11.272  0.00  0.00    +0.000 A 
ATOM      2  C   UNL     1      43.522   5.579  11.137  0.00  0.00    +0.000 A 
ATOM      3  N   UNL     1      43.720   6.883  11.417  0.00  0.00    +0.000 NA
ATOM      4  C   UNL     1      44.950   7.229  11.872  0.00  0.00    +0.000 A 
ATOM      5  C   UNL     1      46.018   6.349  12.065  0.00  0.00    +0.000 A 
ATOM      6  C   UNL     1      45.754   5.004  11.751  0.00  0.00    +0.000 A 
ENDROOT
BRANCH   5   7
ATOM      7  C   UNL     1      47.337   6.804  12.561  0.00  0.00    +0.000 A 
ATOM      8  C   UNL     1      48.224   7.520  11.742  0.00  0.00    +0.000 A 
ATOM      9  C   UNL     1      49.447   7.931  12.250  0.00  0.00    +0.000 A 
ATOM     10  N   UNL     1      49.861   7.680  13.507  0.00  0.00    +0.000 NA
ATOM     11  C   UNL     1      49.011   6.988  14.290  0.00  0.00    +0.000 A 
ATOM     12  C   UNL     1      47.765   6.543  13.872  0.00  0.00    +0.000 A 
ENDBRANCH   5   7
BRANCH   1  13
ATOM     13  C   UNL     1      44.207   3.170  10.913  0.00  0.00    +0.000 C 
BRANCH  13  14
ATOM     14  O   UNL     1      43.870   3.095   9.527  0.00  0.00    +0.000 OA
BRANCH  14  21
ATOM     15  F   UNL     1      47.050  -0.115   7.868  0.00  0.00    +0.000 F 
ATOM     16  C   UNL     1      46.492   1.101   7.831  0.00  0.00    +0.000 A 
ATOM     17  C   UNL     1      46.953   2.034   6.916  0.00  0.00    +0.000 A 
ATOM     18  C   UNL     1      46.373   3.292   6.903  0.00  0.00    +0.000 A 
ATOM     19  F   UNL     1      46.807   4.208   6.028  0.00  0.00    +0.000 F 
ATOM     20  C   UNL     1      45.344   3.620   7.786  0.00  0.00    +0.000 A 
ATOM     21  C   UNL     1      44.872   2.667   8.692  0.00  0.00    +0.000 A 
ATOM     22  C   UNL     1      45.459   1.404   8.720  0.00  0.00    +0.000 A 
ENDBRANCH  14  21
ENDBRANCH  13  14
ENDBRANCH   1  13
TORSDOF 4
ENDMDL
MODEL 6
REMARK VINA RESULT:    -7.084      3.695      7.064
REMARK INTER + INTRA:          -9.408
REMARK INTER:                  -8.738
REMARK INTRA:                  -0.670
REMARK UNBOUND:                -0.668
REMARK  Name = 
REMARK  4 active torsions:
REMARK  status: ('A' for Active; 'I' for Inactive)
REMARK    1  A    between atoms: C_7  and  O_8
REMARK    2  A    between atoms: O_8  and  C_9
REMARK    3  A    between atoms: C_9  and  C_10
REMARK    4  A    between atoms: C_14  and  C_15
REMARK                            x       y       z     vdW  Elec       q    Type
REMARK                         _______ _______ _______ _____ _____    ______ ____
ROOT
ATOM      1  C   UNL     1      44.888   4.696  10.089  0.00  0.00    +0.000 A 
ATOM      2  C   UNL     1      44.038   3.778  10.692  0.00  0.00    +0.000 A 
ATOM      3  N   UNL     1      43.897   2.502  10.281  0.00  0.00    +0.000 NA
ATOM      4  C   UNL     1      44.626   2.125   9.202  0.00  0.00    +0.000 A 
ATOM      5  C   UNL     1      45.508   2.946   8.495  0.00  0.00    +0.000 A 
ATOM      6  C   UNL     1      45.618   4.264   8.973  0.00  0.00    +0.000 A 
ENDROOT
BRANCH   5   7
ATOM      7  C   UNL     1      46.277   2.459   7.327  0.00  0.00    +0.000 A 
ATOM      8  C   UNL     1      46.485   3.262   6.195  0.00  0.00    +0.000 A 
ATOM      9  C   UNL     1      47.216   2.767   5.126  0.00  0.00    +0.000 A 
ATOM     10  N   UNL     1      47.751   1.531   5.091  0.00  0.00    +0.000 NA
ATOM     11  C   UNL     1      47.545   0.759   6.175  0.00  0.00    +0.000 A 
ATOM     12  C   UNL     1      46.835   1.172   7.293  0.00  0.00    +0.000 A 
ENDBRANCH   5   7
BRANCH   1  13
ATOM     13  C   UNL     1      45.010   6.096  10.626  0.00  0.00    +0.000 C 
BRANCH  13  14
ATOM     14  O   UNL     1      45.093   6.045  12.051  0.00  0.00    +0.000 OA
BRANCH  14  21
ATOM     15  F   UNL     1      48.448   5.811  15.494  0.00  0.00    +0.000 F 
ATOM     16  C   UNL     1      48.046   6.212  14.281  0.00  0.00    +0.000 A 
ATOM     17  C   UNL     1      48.908   6.954  13.489  0.00  0.00    +0.000 A 
ATOM     18  C   UNL     1      48.468   7.372  12.244  0.00  0.00    +0.000 A 
ATOM     19  F   UNL     1      49.285   8.093  11.465  0.00  0.00    +0.000 F 
ATOM     20  C   UNL     1      47.189   7.054  11.787  0.00  0.00    +0.000 A 
ATOM     21  C   UNL     1      46.334   6.288  12.584  0.00  0.00    +0.000 A 
ATOM     22  C   UNL     1      46.764   5.875  13.844  0.00  0.00    +0.000 A 
ENDBRANCH  14  21
ENDBRANCH  13  14
ENDBRANCH   1  13
TORSDOF 4
ENDMDL
MODEL 7
REMARK VINA RESULT:    -6.894      1.682      2.930
REMARK INTER + INTRA:          -9.173
REMARK INTER:                  -8.436
REMARK INTRA:                  -0.737
REMARK UNBOUND:                -0.668
REMARK  Name = 
REMARK  4 active torsions:
REMARK  status: ('A' for Active; 'I' for Inactive)
REMARK    1  A    between atoms: C_7  and  O_8
REMARK    2  A    between atoms: O_8  and  C_9
REMARK    3  A    between atoms: C_9  and  C_10
REMARK    4  A    between atoms: C_14  and  C_15
REMARK                            x       y       z     vdW  Elec       q    Type
REMARK                         _______ _______ _______ _____ _____    ______ ____
ROOT
ATOM      1  C   UNL     1      45.440   5.336  12.630  0.00  0.00    +0.000 A 
ATOM      2  C   UNL     1      46.221   4.587  13.500  0.00  0.00    +0.000 A 
ATOM      3  N   UNL     1      47.419   4.990  13.971  0.00  0.00    +0.000 NA
ATOM      4  C   UNL     1      47.870   6.194  13.538  0.00  0.00    +0.000 A 
ATOM      5  C   UNL     1      47.194   7.042  12.657  0.00  0.00    +0.000 A 
ATOM      6  C   UNL     1      45.948   6.571  12.205  0.00  0.00    +0.000 A 
ENDROOT
BRANCH   5   7
ATOM      7  C   UNL     1      47.750   8.348  12.235  0.00  0.00    +0.000 A 
ATOM      8  C   UNL     1      49.090   8.486  11.844  0.00  0.00    +0.000 A 
ATOM      9  C   UNL     1      49.567   9.728  11.451  0.00  0.00    +0.000 A 
ATOM     10  N   UNL     1      48.816  10.845  11.423  0.00  0.00    +0.000 NA
ATOM     11  C   UNL     1      47.531  10.713  11.805  0.00  0.00    +0.000 A 
ATOM     12  C   UNL     1      46.965   9.511  12.205  0.00  0.00    +0.000 A 
ENDBRANCH   5   7
BRANCH   1  13
ATOM     13  C   UNL     1      44.101   4.827  12.171  0.00  0.00    +0.000 C 
BRANCH  13  14
ATOM     14  O   UNL     1      43.912   5.180  10.800  0.00  0.00    +0.000 OA
BRANCH  14  21
ATOM     15  F   UNL     1      46.997   4.405   7.188  0.00  0.00    +0.000 F 
ATOM     16  C   UNL     1      46.095   3.955   8.069  0.00  0.00    +0.000 A 
ATOM     17  C   UNL     1      45.754   2.612   8.068  0.00  0.00    +0.000 A 
ATOM     18  C   UNL     1      44.806   2.169   8.977  0.00  0.00    +0.000 A 
ATOM     19  F   UNL     1      44.462   0.875   8.990  0.00  0.00    +0.000 F 
ATOM     20  C   UNL     1      44.207   3.048   9.879  0.00  0.00    +0.000 A 
ATOM     21  C   UNL     1      44.572   4.397   9.886  0.00  0.00    +0.000 A 
ATOM     22  C   UNL     1      45.514   4.853   8.966  0.00  0.00    +0.000 A 
ENDBRANCH  14  21
ENDBRANCH  13  14
ENDBRANCH   1  13
TORSDOF 4
ENDMDL
MODEL 8
REMARK VINA RESULT:    -6.562      1.809      2.406
REMARK INTER + INTRA:          -8.764
REMARK INTER:                  -7.989
REMARK INTRA:                  -0.775
REMARK UNBOUND:                -0.668
REMARK  Name = 
REMARK  4 active torsions:
REMARK  status: ('A' for Active; 'I' for Inactive)
REMARK    1  A    between atoms: C_7  and  O_8
REMARK    2  A    between atoms: O_8  and  C_9
REMARK    3  A    between atoms: C_9  and  C_10
REMARK    4  A    between atoms: C_14  and  C_15
REMARK                            x       y       z     vdW  Elec       q    Type
REMARK                         _______ _______ _______ _____ _____    ______ ____
ROOT
ATOM      1  C   UNL     1      45.629   5.450  12.841  0.00  0.00    +0.000 A 
ATOM      2  C   UNL     1      46.236   4.608  13.764  0.00  0.00    +0.000 A 
ATOM      3  N   UNL     1      47.398   4.889  14.388  0.00  0.00    +0.000 NA
ATOM      4  C   UNL     1      47.996   6.062  14.063  0.00  0.00    +0.000 A 
ATOM      5  C   UNL     1      47.503   6.995  13.147  0.00  0.00    +0.000 A 
ATOM      6  C   UNL     1      46.286   6.650  12.533  0.00  0.00    +0.000 A 
ENDROOT
BRANCH   5   7
ATOM      7  C   UNL     1      48.212   8.260  12.849  0.00  0.00    +0.000 A 
ATOM      8  C   UNL     1      48.152   9.359  13.719  0.00  0.00    +0.000 A 
ATOM      9  C   UNL     1      48.836  10.524  13.402  0.00  0.00    +0.000 A 
ATOM     10  N   UNL     1      49.571  10.682  12.284  0.00  0.00    +0.000 NA
ATOM     11  C   UNL     1      49.623   9.628  11.448  0.00  0.00    +0.000 A 
ATOM     12  C   UNL     1      48.979   8.422  11.685  0.00  0.00    +0.000 A 
ENDBRANCH   5   7
BRANCH   1  13
ATOM     13  C   UNL     1      44.317   5.076  12.208  0.00  0.00    +0.000 C 
BRANCH  13  14
ATOM     14  O   UNL     1      44.332   5.472  10.836  0.00  0.00    +0.000 OA
BRANCH  14  21
ATOM     15  F   UNL     1      44.375   1.005   9.044  0.00  0.00    +0.000 F 
ATOM     16  C   UNL     1      44.779   2.280   9.008  0.00  0.00    +0.000 A 
ATOM     17  C   UNL     1      45.671   2.684   8.027  0.00  0.00    +0.000 A 
ATOM     18  C   UNL     1      46.090   4.005   8.017  0.00  0.00    +0.000 A 
ATOM     19  F   UNL     1      46.953   4.414   7.078  0.00  0.00    +0.000 F 
ATOM     20  C   UNL     1      45.626   4.915   8.966  0.00  0.00    +0.000 A 
ATOM     21  C   UNL     1      44.712   4.504   9.940  0.00  0.00    +0.000 A 
ATOM     22  C   UNL     1      44.296   3.174   9.965  0.00  0.00    +0.000 A 
ENDBRANCH  14  21
ENDBRANCH  13  14
ENDBRANCH   1  13
TORSDOF 4
ENDMDL
MODEL 9
REMARK VINA RESULT:    -6.441      4.815      7.975
REMARK INTER + INTRA:          -8.615
REMARK INTER:                  -7.879
REMARK INTRA:                  -0.736
REMARK UNBOUND:                -0.668
REMARK  Name = 
REMARK  4 active torsions:
REMARK  status: ('A' for Active; 'I' for Inactive)
REMARK    1  A    between atoms: C_7  and  O_8
REMARK    2  A    between atoms: O_8  and  C_9
REMARK    3  A    between atoms: C_9  and  C_10
REMARK    4  A    between atoms: C_14  and  C_15
REMARK                            x       y       z     vdW  Elec       q    Type
REMARK                         _______ _______ _______ _____ _____    ______ ____
ROOT
ATOM      1  C   UNL     1      47.709   7.108  13.924  0.00  0.00    +0.000 A 
ATOM      2  C   UNL     1      47.268   8.403  13.685  0.00  0.00    +0.000 A 
ATOM      3  N   UNL     1      46.170   8.701  12.960  0.00  0.00    +0.000 NA
ATOM      4  C   UNL     1      45.486   7.656  12.431  0.00  0.00    +0.000 A 
ATOM      5  C   UNL     1      45.824   6.308  12.583  0.00  0.00    +0.000 A 
ATOM      6  C   UNL     1      46.974   6.059  13.353  0.00  0.00    +0.000 A 
ENDROOT
BRANCH   5   7
ATOM      7  C   UNL     1      45.023   5.220  11.979  0.00  0.00    +0.000 A 
ATOM      8  C   UNL     1      44.974   5.025  10.590  0.00  0.00    +0.000 A 
ATOM      9  C   UNL     1      44.214   3.989  10.068  0.00  0.00    +0.000 A 
ATOM     10  N   UNL     1      43.492   3.135  10.820  0.00  0.00    +0.000 NA
ATOM     11  C   UNL     1      43.534   3.327  12.152  0.00  0.00    +0.000 A 
ATOM     12  C   UNL     1      44.273   4.330  12.764  0.00  0.00    +0.000 A 
ENDBRANCH   5   7
BRANCH   1  13
ATOM     13  C   UNL     1      48.930   6.857  14.766  0.00  0.00    +0.000 C 
BRANCH  13  14
ATOM     14  O   UNL     1      48.532   6.693  16.128  0.00  0.00    +0.000 OA
BRANCH  14  21
ATOM     15  F   UNL     1      46.885   2.429  17.637  0.00  0.00    +0.000 F 
ATOM     16  C   UNL     1      47.896   3.280  17.421  0.00  0.00    +0.000 A 
ATOM     17  C   UNL     1      49.187   2.901  17.755  0.00  0.00    +0.000 A 
ATOM     18  C   UNL     1      50.217   3.802  17.539  0.00  0.00    +0.000 A 
ATOM     19  F   UNL     1      51.471   3.455  17.858  0.00  0.00    +0.000 F 
ATOM     20  C   UNL     1      49.971   5.061  16.993  0.00  0.00    +0.000 A 
ATOM     21  C   UNL     1      48.669   5.427  16.641  0.00  0.00    +0.000 A 
ATOM     22  C   UNL     1      47.625   4.532  16.868  0.00  0.00    +0.000 A 
ENDBRANCH  14  21
ENDBRANCH  13  14
ENDBRANCH   1  13
TORSDOF 4
ENDMDL
