MODEL 1
REMARK VINA RESULT:    -7.519      0.000      0.000
REMARK INTER + INTRA:         -13.017
REMARK INTER:                 -11.694
REMARK INTRA:                  -1.323
REMARK UNBOUND:                -1.323
REMARK  Name = 
REMARK  11 active torsions:
REMARK  status: ('A' for Active; 'I' for Inactive)
REMARK    1  A    between atoms: C_1  and  C_2
REMARK    2  A    between atoms: C_2  and  N_3
REMARK    3  A    between atoms: C_2  and  C_22
REMARK    4  A    between atoms: N_3  and  C_4
REMARK    5  A    between atoms: C_4  and  C_5
REMARK    6  A    between atoms: C_8  and  C_9
REMARK    7  A    between atoms: C_9  and  N_10
REMARK    8  A    between atoms: N_10  and  CA_11
REMARK    9  A    between atoms: CA_11  and  C_12
REMARK   10  A    between atoms: CA_11  and  C_14
REMARK   11  A    between atoms: C_12  and  O_13
REMARK                            x       y       z     vdW  Elec       q    Type
REMARK                         _______ _______ _______ _____ _____    ______ ____
ROOT
ATOM      1  C   UNL     1      47.283   6.722  12.987  0.00  0.00    +0.000 A 
ATOM      2  C   UNL     1      46.915   7.382  11.807  0.00  0.00    +0.000 A 
ATOM      3  C   UNL     1      45.638   7.205  11.269  0.00  0.00    +0.000 A 
ATOM      4  C   UNL     1      44.708   6.368  11.905  0.00  0.00    +0.000 A 
ATOM      5  C   UNL     1      45.079   5.708  13.080  0.00  0.00    +0.000 A 
ATOM      6  C   UNL     1      46.354   5.886  13.619  0.00  0.00    +0.000 A 
ENDROOT
BRANCH   1   7
ATOM      7  C   UNL     1      48.683   6.848  13.534  0.00  0.00    +0.000 C 
BRANCH   7   8
ATOM      8  N   UNL     1      48.859   6.143  14.805  0.00  0.00    +0.000 NA
ATOM      9  H   UNL     1      49.294   5.239  14.612  0.00  0.00    +0.000 HD
BRANCH   8  11
ATOM     10  C   UNL     1      50.111   8.284  15.215  0.00  0.00    +0.000 C 
ATOM     11  C   UNL     1      49.742   6.880  15.724  0.00  0.00    +0.000 C 
BRANCH  11  12
ATOM     12  C   UNL     1      49.041   6.985  17.068  0.00  0.00    +0.000 A 
ATOM     13  C   UNL     1      48.477   8.150  17.569  0.00  0.00    +0.000 A 
ATOM     14  S   UNL     1      47.917   7.998  19.175  0.00  0.00    +0.000 S 
ATOM     15  C   UNL     1      48.418   6.372  19.257  0.00  0.00    +0.000 A 
ATOM     16  N   UNL     1      48.313   5.659  20.411  0.00  0.00    +0.000 NA
ATOM     17  C   UNL     1      48.758   4.450  20.327  0.00  0.00    +0.000 A 
ATOM     18  N   UNL     1      49.259   3.875  19.186  0.00  0.00    +0.000 N 
ATOM     19  C   UNL     1      49.304   4.530  17.976  0.00  0.00    +0.000 A 
ATOM     20  O   UNL     1      49.619   3.949  16.944  0.00  0.00    +0.000 OA
ATOM     21  C   UNL     1      48.924   5.931  18.050  0.00  0.00    +0.000 A 
ATOM     22  H   UNL     1      49.528   2.904  19.174  0.00  0.00    +0.000 HD
ENDBRANCH  11  12
ENDBRANCH   8  11
ENDBRANCH   7   8
ENDBRANCH   1   7
BRANCH   4  23
ATOM     23  C   UNL     1      43.311   6.210  11.353  0.00  0.00    +0.000 C 
BRANCH  23  24
ATOM     24  N   UNL     1      43.256   5.117  10.395  0.00  0.00    +0.000 NA
ATOM     25  H   UNL     1      43.591   5.468   9.495  0.00  0.00    +0.000 HD
BRANCH  24  26
ATOM     26  CA  UNL     1      44.091   3.950  10.765  0.00  0.00    +0.000 C 
BRANCH  26  27
ATOM     27  C   UNL     1      44.911   3.467   9.564  0.00  0.00    +0.000 A 
ATOM     28  C   UNL     1      45.476   4.373   8.660  0.00  0.00    +0.000 A 
ATOM     29  C   UNL     1      46.268   3.895   7.617  0.00  0.00    +0.000 A 
ATOM     30  C   UNL     1      46.461   2.528   7.488  0.00  0.00    +0.000 A 
ATOM     31  C   UNL     1      45.841   1.686   8.401  0.00  0.00    +0.000 A 
ATOM     32  N   UNL     1      45.065   2.127   9.419  0.00  0.00    +0.000 NA
ENDBRANCH  26  27
BRANCH  26  33
ATOM     33  C   UNL     1      43.281   2.759  11.343  0.00  0.00    +0.000 C 
BRANCH  33  34
ATOM     34  O   UNL     1      43.896   2.160  12.485  0.00  0.00    +0.000 OA
ATOM     35  H   UNL     1      43.214   2.104  13.185  0.00  0.00    +0.000 HD
ENDBRANCH  33  34
ENDBRANCH  26  33
ENDBRANCH  24  26
ENDBRANCH  23  24
ENDBRANCH   4  23
TORSDOF 10
ENDMDL
MODEL 2
REMARK VINA RESULT:    -7.392      1.748      2.141
REMARK INTER + INTRA:         -12.820
REMARK INTER:                 -11.782
REMARK INTRA:                  -1.038
REMARK UNBOUND:                -1.323
REMARK  Name = 
REMARK  11 active torsions:
REMARK  status: ('A' for Active; 'I' for Inactive)
REMARK    1  A    between atoms: C_1  and  C_2
REMARK    2  A    between atoms: C_2  and  N_3
REMARK    3  A    between atoms: C_2  and  C_22
REMARK    4  A    between atoms: N_3  and  C_4
REMARK    5  A    between atoms: C_4  and  C_5
REMARK    6  A    between atoms: C_8  and  C_9
REMARK    7  A    between atoms: C_9  and  N_10
REMARK    8  A    between atoms: N_10  and  CA_11
REMARK    9  A    between atoms: CA_11  and  C_12
REMARK   10  A    between atoms: CA_11  and  C_14
REMARK   11  A    between atoms: C_12  and  O_13
REMARK                            x       y       z     vdW  Elec       q    Type
REMARK                         _______ _______ _______ _____ _____    ______ ____
ROOT
ATOM      1  C   UNL     1      46.508   7.394  12.509  0.00  0.00    +0.000 A 
ATOM      2  C   UNL     1      45.147   7.397  12.842  0.00  0.00    +0.000 A 
ATOM      3  C   UNL     1      44.237   6.648  12.093  0.00  0.00    +0.000 A 
ATOM      4  C   UNL     1      44.673   5.883  11.000  0.00  0.00    +0.000 A 
ATOM      5  C   UNL     1      46.031   5.884  10.668  0.00  0.00    +0.000 A 
ATOM      6  C   UNL     1      46.942   6.630  11.418  0.00  0.00    +0.000 A 
ENDROOT
BRANCH   1   7
ATOM      7  C   UNL     1      47.488   8.256  13.265  0.00  0.00    +0.000 C 
BRANCH   7   8
ATOM      8  N   UNL     1      47.730   7.777  14.627  0.00  0.00    +0.000 NA
ATOM      9  H   UNL     1      46.952   7.171  14.896  0.00  0.00    +0.000 HD
BRANCH   8  11
ATOM     10  C   UNL     1      50.237   7.813  14.450  0.00  0.00    +0.000 C 
ATOM     11  C   UNL     1      48.968   6.986  14.719  0.00  0.00    +0.000 C 
BRANCH  11  12
ATOM     12  C   UNL     1      49.035   6.375  16.108  0.00  0.00    +0.000 A 
ATOM     13  C   UNL     1      49.865   6.826  17.125  0.00  0.00    +0.000 A 
ATOM     14  S   UNL     1      49.842   5.831  18.512  0.00  0.00    +0.000 S 
ATOM     15  C   UNL     1      48.728   4.760  17.798  0.00  0.00    +0.000 A 
ATOM     16  N   UNL     1      48.345   3.617  18.428  0.00  0.00    +0.000 NA
ATOM     17  C   UNL     1      47.517   2.893  17.751  0.00  0.00    +0.000 A 
ATOM     18  N   UNL     1      47.005   3.226  16.523  0.00  0.00    +0.000 N 
ATOM     19  C   UNL     1      47.298   4.411  15.887  0.00  0.00    +0.000 A 
ATOM     20  O   UNL     1      46.716   4.749  14.862  0.00  0.00    +0.000 OA
ATOM     21  C   UNL     1      48.316   5.203  16.555  0.00  0.00    +0.000 A 
ATOM     22  H   UNL     1      46.310   2.646  16.079  0.00  0.00    +0.000 HD
ENDBRANCH  11  12
ENDBRANCH   8  11
ENDBRANCH   7   8
ENDBRANCH   1   7
BRANCH   4  23
ATOM     23  C   UNL     1      43.700   5.035  10.216  0.00  0.00    +0.000 C 
BRANCH  23  24
ATOM     24  N   UNL     1      44.363   4.397   9.089  0.00  0.00    +0.000 NA
ATOM     25  H   UNL     1      45.084   5.035   8.745  0.00  0.00    +0.000 HD
BRANCH  24  26
ATOM     26  CA  UNL     1      45.018   3.113   9.427  0.00  0.00    +0.000 C 
BRANCH  26  27
ATOM     27  C   UNL     1      45.839   2.594   8.241  0.00  0.00    +0.000 A 
ATOM     28  C   UNL     1      46.157   3.424   7.160  0.00  0.00    +0.000 A 
ATOM     29  C   UNL     1      46.959   2.931   6.132  0.00  0.00    +0.000 A 
ATOM     30  C   UNL     1      47.406   1.621   6.193  0.00  0.00    +0.000 A 
ATOM     31  C   UNL     1      47.023   0.844   7.279  0.00  0.00    +0.000 A 
ATOM     32  N   UNL     1      46.242   1.299   8.287  0.00  0.00    +0.000 NA
ENDBRANCH  26  27
BRANCH  26  33
ATOM     33  C   UNL     1      44.030   2.007   9.886  0.00  0.00    +0.000 C 
BRANCH  33  34
ATOM     34  O   UNL     1      43.714   2.077  11.278  0.00  0.00    +0.000 OA
ATOM     35  H   UNL     1      42.739   2.119  11.352  0.00  0.00    +0.000 HD
ENDBRANCH  33  34
ENDBRANCH  26  33
ENDBRANCH  24  26
ENDBRANCH  23  24
ENDBRANCH   4  23
TORSDOF 10
ENDMDL
MODEL 3
REMARK VINA RESULT:    -7.252      2.083      2.907
REMARK INTER + INTRA:         -12.603
REMARK INTER:                 -11.798
REMARK INTRA:                  -0.805
REMARK UNBOUND:                -1.323
REMARK  Name = 
REMARK  11 active torsions:
REMARK  status: ('A' for Active; 'I' for Inactive)
REMARK    1  A    between atoms: C_1  and  C_2
REMARK    2  A    between atoms: C_2  and  N_3
REMARK    3  A    between atoms: C_2  and  C_22
REMARK    4  A    between atoms: N_3  and  C_4
REMARK    5  A    between atoms: C_4  and  C_5
REMARK    6  A    between atoms: C_8  and  C_9
REMARK    7  A    between atoms: C_9  and  N_10
REMARK    8  A    between atoms: N_10  and  CA_11
REMARK    9  A    between atoms: CA_11  and  C_12
REMARK   10  A    between atoms: CA_11  and  C_14
REMARK   11  A    between atoms: C_12  and  O_13
REMARK                            x       y       z     vdW  Elec       q    Type
REMARK                         _______ _______ _______ _____ _____    ______ ____
ROOT
ATOM      1  C   UNL     1      47.537   6.023  13.798  0.00  0.00    +0.000 A 
ATOM      2  C   UNL     1      46.717   4.889  13.729  0.00  0.00    +0.000 A 
ATOM      3  C   UNL     1      45.808   4.738  12.680  0.00  0.00    +0.000 A 
ATOM      4  C   UNL     1      45.705   5.719  11.681  0.00  0.00    +0.000 A 
ATOM      5  C   UNL     1      46.522   6.851  11.753  0.00  0.00    +0.000 A 
ATOM      6  C   UNL     1      47.433   7.001  12.800  0.00  0.00    +0.000 A 
ENDROOT
BRANCH   1   7
ATOM      7  C   UNL     1      48.469   6.231  14.965  0.00  0.00    +0.000 C 
BRANCH   7   8
ATOM      8  N   UNL     1      48.526   5.071  15.856  0.00  0.00    +0.000 NA
ATOM      9  H   UNL     1      49.389   4.560  15.662  0.00  0.00    +0.000 HD
BRANCH   8  11
ATOM     10  C   UNL     1      47.335   4.955  18.068  0.00  0.00    +0.000 C 
ATOM     11  C   UNL     1      48.549   5.469  17.274  0.00  0.00    +0.000 C 
BRANCH  11  12
ATOM     12  C   UNL     1      49.832   4.938  17.892  0.00  0.00    +0.000 A 
ATOM     13  C   UNL     1      50.713   5.700  18.646  0.00  0.00    +0.000 A 
ATOM     14  S   UNL     1      52.149   4.871  19.056  0.00  0.00    +0.000 S 
ATOM     15  C   UNL     1      51.644   3.469  18.232  0.00  0.00    +0.000 A 
ATOM     16  N   UNL     1      52.460   2.388  18.114  0.00  0.00    +0.000 NA
ATOM     17  C   UNL     1      51.950   1.412  17.439  0.00  0.00    +0.000 A 
ATOM     18  N   UNL     1      50.684   1.401  16.909  0.00  0.00    +0.000 N 
ATOM     19  C   UNL     1      49.793   2.437  17.078  0.00  0.00    +0.000 A 
ATOM     20  O   UNL     1      48.625   2.342  16.721  0.00  0.00    +0.000 OA
ATOM     21  C   UNL     1      50.364   3.604  17.728  0.00  0.00    +0.000 A 
ATOM     22  H   UNL     1      50.325   0.578  16.451  0.00  0.00    +0.000 HD
ENDBRANCH  11  12
ENDBRANCH   8  11
ENDBRANCH   7   8
ENDBRANCH   1   7
BRANCH   4  23
ATOM     23  C   UNL     1      44.757   5.538  10.520  0.00  0.00    +0.000 C 
BRANCH  23  24
ATOM     24  N   UNL     1      45.420   4.870   9.411  0.00  0.00    +0.000 NA
ATOM     25  H   UNL     1      46.397   5.170   9.400  0.00  0.00    +0.000 HD
BRANCH  24  26
ATOM     26  CA  UNL     1      45.402   3.392   9.503  0.00  0.00    +0.000 C 
BRANCH  26  27
ATOM     27  C   UNL     1      46.065   2.763   8.273  0.00  0.00    +0.000 A 
ATOM     28  C   UNL     1      46.378   3.531   7.145  0.00  0.00    +0.000 A 
ATOM     29  C   UNL     1      47.039   2.934   6.073  0.00  0.00    +0.000 A 
ATOM     30  C   UNL     1      47.354   1.586   6.140  0.00  0.00    +0.000 A 
ATOM     31  C   UNL     1      46.982   0.878   7.276  0.00  0.00    +0.000 A 
ATOM     32  N   UNL     1      46.337   1.435   8.328  0.00  0.00    +0.000 NA
ENDBRANCH  26  27
BRANCH  26  33
ATOM     33  C   UNL     1      43.980   2.793   9.678  0.00  0.00    +0.000 C 
BRANCH  33  34
ATOM     34  O   UNL     1      43.752   2.251  10.980  0.00  0.00    +0.000 OA
ATOM     35  H   UNL     1      44.245   2.809  11.616  0.00  0.00    +0.000 HD
ENDBRANCH  33  34
ENDBRANCH  26  33
ENDBRANCH  24  26
ENDBRANCH  23  24
ENDBRANCH   4  23
TORSDOF 10
ENDMDL
MODEL 4
REMARK VINA RESULT:    -7.119      1.644      2.039
REMARK INTER + INTRA:         -12.395
REMARK INTER:                 -10.622
REMARK INTRA:                  -1.772
REMARK UNBOUND:                -1.323
REMARK  Name = 
REMARK  11 active torsions:
REMARK  status: ('A' for Active; 'I' for Inactive)
REMARK    1  A    between atoms: C_1  and  C_2
REMARK    2  A    between atoms: C_2  and  N_3
REMARK    3  A    between atoms: C_2  and  C_22
REMARK    4  A    between atoms: N_3  and  C_4
REMARK    5  A    between atoms: C_4  and  C_5
REMARK    6  A    between atoms: C_8  and  C_9
REMARK    7  A    between atoms: C_9  and  N_10
REMARK    8  A    between atoms: N_10  and  CA_11
REMARK    9  A    between atoms: CA_11  and  C_12
REMARK   10  A    between atoms: CA_11  and  C_14
REMARK   11  A    between atoms: C_12  and  O_13
REMARK                            x       y       z     vdW  Elec       q    Type
REMARK                         _______ _______ _______ _____ _____    ______ ____
ROOT
ATOM      1  C   UNL     1      49.045   8.228  13.085  0.00  0.00    +0.000 A 
ATOM      2  C   UNL     1      47.953   8.829  13.724  0.00  0.00    +0.000 A 
ATOM      3  C   UNL     1      46.648   8.498  13.351  0.00  0.00    +0.000 A 
ATOM      4  C   UNL     1      46.415   7.560  12.334  0.00  0.00    +0.000 A 
ATOM      5  C   UNL     1      47.506   6.964  11.695  0.00  0.00    +0.000 A 
ATOM      6  C   UNL     1      48.811   7.292  12.069  0.00  0.00    +0.000 A 
ENDROOT
BRANCH   1   7
ATOM      7  C   UNL     1      50.457   8.632  13.429  0.00  0.00    +0.000 C 
BRANCH   7   8
ATOM      8  N   UNL     1      50.677   8.745  14.872  0.00  0.00    +0.000 NA
ATOM      9  H   UNL     1      49.860   9.199  15.285  0.00  0.00    +0.000 HD
BRANCH   8  11
ATOM     10  C   UNL     1      52.293   7.074  15.829  0.00  0.00    +0.000 C 
ATOM     11  C   UNL     1      50.829   7.427  15.509  0.00  0.00    +0.000 C 
BRANCH  11  12
ATOM     12  C   UNL     1      50.007   7.423  16.787  0.00  0.00    +0.000 A 
ATOM     13  C   UNL     1      50.261   8.231  17.886  0.00  0.00    +0.000 A 
ATOM     14  S   UNL     1      49.273   7.877  19.233  0.00  0.00    +0.000 S 
ATOM     15  C   UNL     1      48.479   6.625  18.395  0.00  0.00    +0.000 A 
ATOM     16  N   UNL     1      47.559   5.837  19.012  0.00  0.00    +0.000 NA
ATOM     17  C   UNL     1      47.062   4.914  18.258  0.00  0.00    +0.000 A 
ATOM     18  N   UNL     1      47.369   4.734  16.932  0.00  0.00    +0.000 N 
ATOM     19  C   UNL     1      48.229   5.561  16.244  0.00  0.00    +0.000 A 
ATOM     20  O   UNL     1      48.374   5.468  15.031  0.00  0.00    +0.000 OA
ATOM     21  C   UNL     1      48.902   6.539  17.082  0.00  0.00    +0.000 A 
ATOM     22  H   UNL     1      46.894   4.035  16.384  0.00  0.00    +0.000 HD
ENDBRANCH  11  12
ENDBRANCH   8  11
ENDBRANCH   7   8
ENDBRANCH   1   7
BRANCH   4  23
ATOM     23  C   UNL     1      45.007   7.165  11.959  0.00  0.00    +0.000 C 
BRANCH  23  24
ATOM     24  N   UNL     1      44.999   6.391  10.726  0.00  0.00    +0.000 NA
ATOM     25  H   UNL     1      45.942   6.412  10.334  0.00  0.00    +0.000 HD
BRANCH  24  26
ATOM     26  CA  UNL     1      44.615   4.972  10.910  0.00  0.00    +0.000 C 
BRANCH  26  27
ATOM     27  C   UNL     1      45.129   4.116   9.747  0.00  0.00    +0.000 A 
ATOM     28  C   UNL     1      45.764   4.697   8.644  0.00  0.00    +0.000 A 
ATOM     29  C   UNL     1      46.274   3.878   7.639  0.00  0.00    +0.000 A 
ATOM     30  C   UNL     1      46.121   2.504   7.744  0.00  0.00    +0.000 A 
ATOM     31  C   UNL     1      45.449   1.999   8.850  0.00  0.00    +0.000 A 
ATOM     32  N   UNL     1      44.943   2.775   9.838  0.00  0.00    +0.000 NA
ENDBRANCH  26  27
BRANCH  26  33
ATOM     33  C   UNL     1      43.087   4.752  11.070  0.00  0.00    +0.000 C 
BRANCH  33  34
ATOM     34  O   UNL     1      42.748   3.425  11.475  0.00  0.00    +0.000 OA
ATOM     35  H   UNL     1      43.234   2.809  10.890  0.00  0.00    +0.000 HD
ENDBRANCH  33  34
ENDBRANCH  26  33
ENDBRANCH  24  26
ENDBRANCH  23  24
ENDBRANCH   4  23
TORSDOF 10
ENDMDL
MODEL 5
REMARK VINA RESULT:    -7.048      3.052      3.978
REMARK INTER + INTRA:         -12.284
REMARK INTER:                 -11.097
REMARK INTRA:                  -1.187
REMARK UNBOUND:                -1.323
REMARK  Name = 
REMARK  11 active torsions:
REMARK  status: ('A' for Active; 'I' for Inactive)
REMARK    1  A    between atoms: C_1  and  C_2
REMARK    2  A    between atoms: C_2  and  N_3
REMARK    3  A    between atoms: C_2  and  C_22
REMARK    4  A    between atoms: N_3  and  C_4
REMARK    5  A    between atoms: C_4  and  C_5
REMARK    6  A    between atoms: C_8  and  C_9
REMARK    7  A    between atoms: C_9  and  N_10
REMARK    8  A    between atoms: N_10  and  CA_11
REMARK    9  A    between atoms: CA_11  and  C_12
REMARK   10  A    between atoms: CA_11  and  C_14
REMARK   11  A    between atoms: C_12  and  O_13
REMARK                            x       y       z     vdW  Elec       q    Type
REMARK                         _______ _______ _______ _____ _____    ______ ____
ROOT
ATOM      1  C   UNL     1      48.552   6.005  16.400  0.00  0.00    +0.000 A 
ATOM      2  C   UNL     1      48.513   6.530  15.101  0.00  0.00    +0.000 A 
ATOM      3  C   UNL     1      47.792   5.878  14.098  0.00  0.00    +0.000 A 
ATOM      4  C   UNL     1      47.095   4.692  14.379  0.00  0.00    +0.000 A 
ATOM      5  C   UNL     1      47.138   4.169  15.675  0.00  0.00    +0.000 A 
ATOM      6  C   UNL     1      47.857   4.821  16.678  0.00  0.00    +0.000 A 
ENDROOT
BRANCH   1   7
ATOM      7  C   UNL     1      49.388   6.661  17.470  0.00  0.00    +0.000 C 
BRANCH   7   8
ATOM      8  N   UNL     1      50.331   5.734  18.098  0.00  0.00    +0.000 NA
ATOM      9  H   UNL     1      49.841   4.858  18.286  0.00  0.00    +0.000 HD
BRANCH   8  11
ATOM     10  C   UNL     1      52.263   6.682  16.797  0.00  0.00    +0.000 C 
ATOM     11  C   UNL     1      51.472   5.431  17.218  0.00  0.00    +0.000 C 
BRANCH  11  12
ATOM     12  C   UNL     1      52.388   4.464  17.949  0.00  0.00    +0.000 A 
ATOM     13  C   UNL     1      53.502   4.843  18.685  0.00  0.00    +0.000 A 
ATOM     14  S   UNL     1      54.428   3.522  19.244  0.00  0.00    +0.000 S 
ATOM     15  C   UNL     1      53.375   2.400  18.515  0.00  0.00    +0.000 A 
ATOM     16  N   UNL     1      53.642   1.066  18.535  0.00  0.00    +0.000 NA
ATOM     17  C   UNL     1      52.768   0.343  17.918  0.00  0.00    +0.000 A 
ATOM     18  N   UNL     1      51.631   0.825  17.320  0.00  0.00    +0.000 N 
ATOM     19  C   UNL     1      51.277   2.156  17.350  0.00  0.00    +0.000 A 
ATOM     20  O   UNL     1      50.188   2.539  16.937  0.00  0.00    +0.000 OA
ATOM     21  C   UNL     1      52.289   3.022  17.929  0.00  0.00    +0.000 A 
ATOM     22  H   UNL     1      50.956   0.197  16.914  0.00  0.00    +0.000 HD
ENDBRANCH  11  12
ENDBRANCH   8  11
ENDBRANCH   7   8
ENDBRANCH   1   7
BRANCH   4  23
ATOM     23  C   UNL     1      46.276   4.009  13.311  0.00  0.00    +0.000 C 
BRANCH  23  24
ATOM     24  N   UNL     1      45.304   4.930  12.739  0.00  0.00    +0.000 NA
ATOM     25  H   UNL     1      45.784   5.501  12.041  0.00  0.00    +0.000 HD
BRANCH  24  26
ATOM     26  CA  UNL     1      44.165   4.260  12.069  0.00  0.00    +0.000 C 
BRANCH  26  27
ATOM     27  C   UNL     1      44.528   3.882  10.629  0.00  0.00    +0.000 A 
ATOM     28  C   UNL     1      45.096   4.816   9.755  0.00  0.00    +0.000 A 
ATOM     29  C   UNL     1      45.469   4.414   8.474  0.00  0.00    +0.000 A 
ATOM     30  C   UNL     1      45.251   3.102   8.087  0.00  0.00    +0.000 A 
ATOM     31  C   UNL     1      44.651   2.238   8.994  0.00  0.00    +0.000 A 
ATOM     32  N   UNL     1      44.276   2.606  10.242  0.00  0.00    +0.000 NA
ENDBRANCH  26  27
BRANCH  26  33
ATOM     33  C   UNL     1      42.860   5.101  12.064  0.00  0.00    +0.000 C 
BRANCH  33  34
ATOM     34  O   UNL     1      42.476   5.555  13.363  0.00  0.00    +0.000 OA
ATOM     35  H   UNL     1      43.287   5.870  13.811  0.00  0.00    +0.000 HD
ENDBRANCH  33  34
ENDBRANCH  26  33
ENDBRANCH  24  26
ENDBRANCH  23  24
ENDBRANCH   4  23
TORSDOF 10
ENDMDL
MODEL 6
REMARK VINA RESULT:    -6.976      1.854      2.434
REMARK INTER + INTRA:         -12.173
REMARK INTER:                 -10.263
REMARK INTRA:                  -1.910
REMARK UNBOUND:                -1.323
REMARK  Name = 
REMARK  11 active torsions:
REMARK  status: ('A' for Active; 'I' for Inactive)
REMARK    1  A    between atoms: C_1  and  C_2
REMARK    2  A    between atoms: C_2  and  N_3
REMARK    3  A    between atoms: C_2  and  C_22
REMARK    4  A    between atoms: N_3  and  C_4
REMARK    5  A    between atoms: C_4  and  C_5
REMARK    6  A    between atoms: C_8  and  C_9
REMARK    7  A    between atoms: C_9  and  N_10
REMARK    8  A    between atoms: N_10  and  CA_11
REMARK    9  A    between atoms: CA_11  and  C_12
REMARK   10  A    between atoms: CA_11  and  C_14
REMARK   11  A    between atoms: C_12  and  O_13
REMARK                            x       y       z     vdW  Elec       q    Type
REMARK                         _______ _______ _______ _____ _____    ______ ____
ROOT
ATOM      1  C   UNL     1      48.007   8.817  12.025  0.00  0.00    +0.000 A 
ATOM      2  C   UNL     1      48.082   7.458  11.690  0.00  0.00    +0.000 A 
ATOM      3  C   UNL     1      47.002   6.609  11.943  0.00  0.00    +0.000 A 
ATOM      4  C   UNL     1      45.829   7.105  12.533  0.00  0.00    +0.000 A 
ATOM      5  C   UNL     1      45.758   8.460  12.870  0.00  0.00    +0.000 A 
ATOM      6  C   UNL     1      46.836   9.310  12.615  0.00  0.00    +0.000 A 
ENDROOT
BRANCH   1   7
ATOM      7  C   UNL     1      49.193   9.726  11.824  0.00  0.00    +0.000 C 
BRANCH   7   8
ATOM      8  N   UNL     1      49.713  10.264  13.082  0.00  0.00    +0.000 NA
ATOM      9  H   UNL     1      48.966  10.794  13.537  0.00  0.00    +0.000 HD
BRANCH   8  11
ATOM     10  C   UNL     1      51.646   9.194  14.282  0.00  0.00    +0.000 C 
ATOM     11  C   UNL     1      50.132   9.196  14.005  0.00  0.00    +0.000 C 
BRANCH  11  12
ATOM     12  C   UNL     1      49.370   9.372  15.307  0.00  0.00    +0.000 A 
ATOM     13  C   UNL     1      49.129  10.596  15.916  0.00  0.00    +0.000 A 
ATOM     14  S   UNL     1      48.399  10.457  17.454  0.00  0.00    +0.000 S 
ATOM     15  C   UNL     1      48.388   8.757  17.360  0.00  0.00    +0.000 A 
ATOM     16  N   UNL     1      47.969   7.996  18.407  0.00  0.00    +0.000 NA
ATOM     17  C   UNL     1      48.044   6.724  18.198  0.00  0.00    +0.000 A 
ATOM     18  N   UNL     1      48.458   6.144  17.026  0.00  0.00    +0.000 N 
ATOM     19  C   UNL     1      48.809   6.874  15.912  0.00  0.00    +0.000 A 
ATOM     20  O   UNL     1      49.035   6.333  14.836  0.00  0.00    +0.000 OA
ATOM     21  C   UNL     1      48.854   8.308  16.139  0.00  0.00    +0.000 A 
ATOM     22  H   UNL     1      48.429   5.143  16.907  0.00  0.00    +0.000 HD
ENDBRANCH  11  12
ENDBRANCH   8  11
ENDBRANCH   7   8
ENDBRANCH   1   7
BRANCH   4  23
ATOM     23  C   UNL     1      44.643   6.201  12.766  0.00  0.00    +0.000 C 
BRANCH  23  24
ATOM     24  N   UNL     1      44.221   5.574  11.523  0.00  0.00    +0.000 NA
ATOM     25  H   UNL     1      44.749   6.000  10.759  0.00  0.00    +0.000 HD
BRANCH  24  26
ATOM     26  CA  UNL     1      44.458   4.112  11.477  0.00  0.00    +0.000 C 
BRANCH  26  27
ATOM     27  C   UNL     1      44.986   3.691  10.101  0.00  0.00    +0.000 A 
ATOM     28  C   UNL     1      45.426   4.639   9.171  0.00  0.00    +0.000 A 
ATOM     29  C   UNL     1      45.957   4.210   7.957  0.00  0.00    +0.000 A 
ATOM     30  C   UNL     1      46.019   2.852   7.688  0.00  0.00    +0.000 A 
ATOM     31  C   UNL     1      45.532   1.969   8.643  0.00  0.00    +0.000 A 
ATOM     32  N   UNL     1      45.008   2.362   9.828  0.00  0.00    +0.000 NA
ENDBRANCH  26  27
BRANCH  26  33
ATOM     33  C   UNL     1      43.206   3.263  11.826  0.00  0.00    +0.000 C 
BRANCH  33  34
ATOM     34  O   UNL     1      43.522   2.043  12.500  0.00  0.00    +0.000 OA
ATOM     35  H   UNL     1      44.423   2.141  12.869  0.00  0.00    +0.000 HD
ENDBRANCH  33  34
ENDBRANCH  26  33
ENDBRANCH  24  26
ENDBRANCH  23  24
ENDBRANCH   4  23
TORSDOF 10
ENDMDL
MODEL 7
REMARK VINA RESULT:    -6.926      2.813      8.142
REMARK INTER + INTRA:         -12.095
REMARK INTER:                 -10.156
REMARK INTRA:                  -1.939
REMARK UNBOUND:                -1.323
REMARK  Name = 
REMARK  11 active torsions:
REMARK  status: ('A' for Active; 'I' for Inactive)
REMARK    1  A    between atoms: C_1  and  C_2
REMARK    2  A    between atoms: C_2  and  N_3
REMARK    3  A    between atoms: C_2  and  C_22
REMARK    4  A    between atoms: N_3  and  C_4
REMARK    5  A    between atoms: C_4  and  C_5
REMARK    6  A    between atoms: C_8  and  C_9
REMARK    7  A    between atoms: C_9  and  N_10
REMARK    8  A    between atoms: N_10  and  CA_11
REMARK    9  A    between atoms: CA_11  and  C_12
REMARK   10  A    between atoms: CA_11  and  C_14
REMARK   11  A    between atoms: C_12  and  O_13
REMARK                            x       y       z     vdW  Elec       q    Type
REMARK                         _______ _______ _______ _____ _____    ______ ____
ROOT
ATOM      1  C   UNL     1      48.509   8.241  13.892  0.00  0.00    +0.000 A 
ATOM      2  C   UNL     1      48.118   9.177  14.859  0.00  0.00    +0.000 A 
ATOM      3  C   UNL     1      48.482   9.003  16.196  0.00  0.00    +0.000 A 
ATOM      4  C   UNL     1      49.246   7.891  16.588  0.00  0.00    +0.000 A 
ATOM      5  C   UNL     1      49.631   6.958  15.621  0.00  0.00    +0.000 A 
ATOM      6  C   UNL     1      49.270   7.132  14.284  0.00  0.00    +0.000 A 
ENDROOT
BRANCH   1   7
ATOM      7  C   UNL     1      48.059   8.381  12.460  0.00  0.00    +0.000 C 
BRANCH   7   8
ATOM      8  N   UNL     1      47.645   7.107  11.870  0.00  0.00    +0.000 NA
ATOM      9  H   UNL     1      48.230   6.367  12.263  0.00  0.00    +0.000 HD
BRANCH   8  11
ATOM     10  C   UNL     1      45.305   8.002  12.085  0.00  0.00    +0.000 C 
ATOM     11  C   UNL     1      46.243   6.785  12.185  0.00  0.00    +0.000 C 
BRANCH  11  12
ATOM     12  C   UNL     1      45.782   5.699  11.228  0.00  0.00    +0.000 A 
ATOM     13  C   UNL     1      45.957   5.740   9.851  0.00  0.00    +0.000 A 
ATOM     14  S   UNL     1      45.181   4.460   9.030  0.00  0.00    +0.000 S 
ATOM     15  C   UNL     1      44.578   3.814  10.485  0.00  0.00    +0.000 A 
ATOM     16  N   UNL     1      43.741   2.742  10.487  0.00  0.00    +0.000 NA
ATOM     17  C   UNL     1      43.345   2.383  11.662  0.00  0.00    +0.000 A 
ATOM     18  N   UNL     1      43.742   2.969  12.837  0.00  0.00    +0.000 N 
ATOM     19  C   UNL     1      44.653   4.000  12.889  0.00  0.00    +0.000 A 
ATOM     20  O   UNL     1      45.100   4.408  13.955  0.00  0.00    +0.000 OA
ATOM     21  C   UNL     1      45.034   4.514  11.585  0.00  0.00    +0.000 A 
ATOM     22  H   UNL     1      43.446   2.595  13.725  0.00  0.00    +0.000 HD
ENDBRANCH  11  12
ENDBRANCH   8  11
ENDBRANCH   7   8
ENDBRANCH   1   7
BRANCH   4  23
ATOM     23  C   UNL     1      49.681   7.724  18.023  0.00  0.00    +0.000 C 
BRANCH  23  24
ATOM     24  N   UNL     1      48.583   7.229  18.841  0.00  0.00    +0.000 NA
ATOM     25  H   UNL     1      47.762   7.132  18.241  0.00  0.00    +0.000 HD
BRANCH  24  26
ATOM     26  CA  UNL     1      48.846   5.912  19.466  0.00  0.00    +0.000 C 
BRANCH  26  27
ATOM     27  C   UNL     1      48.571   4.776  18.475  0.00  0.00    +0.000 A 
ATOM     28  C   UNL     1      47.399   4.749  17.711  0.00  0.00    +0.000 A 
ATOM     29  C   UNL     1      47.217   3.732  16.775  0.00  0.00    +0.000 A 
ATOM     30  C   UNL     1      48.193   2.758  16.637  0.00  0.00    +0.000 A 
ATOM     31  C   UNL     1      49.315   2.829  17.453  0.00  0.00    +0.000 A 
ATOM     32  N   UNL     1      49.512   3.804  18.371  0.00  0.00    +0.000 NA
ENDBRANCH  26  27
BRANCH  26  33
ATOM     33  C   UNL     1      48.036   5.663  20.766  0.00  0.00    +0.000 C 
BRANCH  33  34
ATOM     34  O   UNL     1      48.029   4.293  21.173  0.00  0.00    +0.000 OA
ATOM     35  H   UNL     1      48.154   3.751  20.368  0.00  0.00    +0.000 HD
ENDBRANCH  33  34
ENDBRANCH  26  33
ENDBRANCH  24  26
ENDBRANCH  23  24
ENDBRANCH   4  23
TORSDOF 10
ENDMDL
MODEL 8
REMARK VINA RESULT:    -6.689      2.107      3.139
REMARK INTER + INTRA:         -11.726
REMARK INTER:                 -10.829
REMARK INTRA:                  -0.896
REMARK UNBOUND:                -1.323
REMARK  Name = 
REMARK  11 active torsions:
REMARK  status: ('A' for Active; 'I' for Inactive)
REMARK    1  A    between atoms: C_1  and  C_2
REMARK    2  A    between atoms: C_2  and  N_3
REMARK    3  A    between atoms: C_2  and  C_22
REMARK    4  A    between atoms: N_3  and  C_4
REMARK    5  A    between atoms: C_4  and  C_5
REMARK    6  A    between atoms: C_8  and  C_9
REMARK    7  A    between atoms: C_9  and  N_10
REMARK    8  A    between atoms: N_10  and  CA_11
REMARK    9  A    between atoms: CA_11  and  C_12
REMARK   10  A    between atoms: CA_11  and  C_14
REMARK   11  A    between atoms: C_12  and  O_13
REMARK                            x       y       z     vdW  Elec       q    Type
REMARK                         _______ _______ _______ _____ _____    ______ ____
ROOT
ATOM      1  C   UNL     1      48.331   7.806  15.319  0.00  0.00    +0.000 A 
ATOM      2  C   UNL     1      48.423   6.479  14.876  0.00  0.00    +0.000 A 
ATOM      3  C   UNL     1      47.873   6.106  13.648  0.00  0.00    +0.000 A 
ATOM      4  C   UNL     1      47.224   7.054  12.841  0.00  0.00    +0.000 A 
ATOM      5  C   UNL     1      47.131   8.376  13.286  0.00  0.00    +0.000 A 
ATOM      6  C   UNL     1      47.683   8.750  14.513  0.00  0.00    +0.000 A 
ENDROOT
BRANCH   1   7
ATOM      7  C   UNL     1      48.855   8.203  16.676  0.00  0.00    +0.000 C 
BRANCH   7   8
ATOM      8  N   UNL     1      48.102   7.595  17.774  0.00  0.00    +0.000 NA
ATOM      9  H   UNL     1      47.621   6.769  17.413  0.00  0.00    +0.000 HD
BRANCH   8  11
ATOM     10  C   UNL     1      48.246   6.991  20.210  0.00  0.00    +0.000 C 
ATOM     11  C   UNL     1      48.983   7.159  18.870  0.00  0.00    +0.000 C 
BRANCH  11  12
ATOM     12  C   UNL     1      49.624   5.843  18.465  0.00  0.00    +0.000 A 
ATOM     13  C   UNL     1      50.990   5.595  18.487  0.00  0.00    +0.000 A 
ATOM     14  S   UNL     1      51.418   4.086  17.812  0.00  0.00    +0.000 S 
ATOM     15  C   UNL     1      49.793   3.718  17.458  0.00  0.00    +0.000 A 
ATOM     16  N   UNL     1      49.458   2.587  16.780  0.00  0.00    +0.000 NA
ATOM     17  C   UNL     1      48.192   2.458  16.563  0.00  0.00    +0.000 A 
ATOM     18  N   UNL     1      47.227   3.331  16.997  0.00  0.00    +0.000 N 
ATOM     19  C   UNL     1      47.512   4.442  17.759  0.00  0.00    +0.000 A 
ATOM     20  O   UNL     1      46.622   5.124  18.256  0.00  0.00    +0.000 OA
ATOM     21  C   UNL     1      48.933   4.692  17.927  0.00  0.00    +0.000 A 
ATOM     22  H   UNL     1      46.249   3.135  16.850  0.00  0.00    +0.000 HD
ENDBRANCH  11  12
ENDBRANCH   8  11
ENDBRANCH   7   8
ENDBRANCH   1   7
BRANCH   4  23
ATOM     23  C   UNL     1      46.670   6.666  11.492  0.00  0.00    +0.000 C 
BRANCH  23  24
ATOM     24  N   UNL     1      45.220   6.553  11.543  0.00  0.00    +0.000 NA
ATOM     25  H   UNL     1      44.844   6.898  10.657  0.00  0.00    +0.000 HD
BRANCH  24  26
ATOM     26  CA  UNL     1      44.733   5.166  11.732  0.00  0.00    +0.000 C 
BRANCH  26  27
ATOM     27  C   UNL     1      44.913   4.348  10.448  0.00  0.00    +0.000 A 
ATOM     28  C   UNL     1      45.422   4.931   9.282  0.00  0.00    +0.000 A 
ATOM     29  C   UNL     1      45.630   4.137   8.156  0.00  0.00    +0.000 A 
ATOM     30  C   UNL     1      45.309   2.790   8.210  0.00  0.00    +0.000 A 
ATOM     31  C   UNL     1      44.775   2.287   9.390  0.00  0.00    +0.000 A 
ATOM     32  N   UNL     1      44.561   3.039  10.495  0.00  0.00    +0.000 NA
ENDBRANCH  26  27
BRANCH  26  33
ATOM     33  C   UNL     1      43.251   5.080  12.188  0.00  0.00    +0.000 C 
BRANCH  33  34
ATOM     34  O   UNL     1      42.987   5.813  13.386  0.00  0.00    +0.000 OA
ATOM     35  H   UNL     1      42.224   6.399  13.204  0.00  0.00    +0.000 HD
ENDBRANCH  33  34
ENDBRANCH  26  33
ENDBRANCH  24  26
ENDBRANCH  23  24
ENDBRANCH   4  23
TORSDOF 10
ENDMDL
MODEL 9
REMARK VINA RESULT:    -6.626      2.765      8.221
REMARK INTER + INTRA:         -11.629
REMARK INTER:                  -9.660
REMARK INTRA:                  -1.969
REMARK UNBOUND:                -1.323
REMARK  Name = 
REMARK  11 active torsions:
REMARK  status: ('A' for Active; 'I' for Inactive)
REMARK    1  A    between atoms: C_1  and  C_2
REMARK    2  A    between atoms: C_2  and  N_3
REMARK    3  A    between atoms: C_2  and  C_22
REMARK    4  A    between atoms: N_3  and  C_4
REMARK    5  A    between atoms: C_4  and  C_5
REMARK    6  A    between atoms: C_8  and  C_9
REMARK    7  A    between atoms: C_9  and  N_10
REMARK    8  A    between atoms: N_10  and  CA_11
REMARK    9  A    between atoms: CA_11  and  C_12
REMARK   10  A    between atoms: CA_11  and  C_14
REMARK   11  A    between atoms: C_12  and  O_13
REMARK                            x       y       z     vdW  Elec       q    Type
REMARK                         _______ _______ _______ _____ _____    ______ ____
ROOT
ATOM      1  C   UNL     1      48.659   8.799  15.665  0.00  0.00    +0.000 A 
ATOM      2  C   UNL     1      48.164   9.309  16.873  0.00  0.00    +0.000 A 
ATOM      3  C   UNL     1      48.622   8.805  18.092  0.00  0.00    +0.000 A 
ATOM      4  C   UNL     1      49.585   7.784  18.124  0.00  0.00    +0.000 A 
ATOM      5  C   UNL     1      50.075   7.275  16.917  0.00  0.00    +0.000 A 
ATOM      6  C   UNL     1      49.620   7.780  15.698  0.00  0.00    +0.000 A 
ENDROOT
BRANCH   1   7
ATOM      7  C   UNL     1      48.118   9.285  14.344  0.00  0.00    +0.000 C 
BRANCH   7   8
ATOM      8  N   UNL     1      46.853   8.644  13.981  0.00  0.00    +0.000 NA
ATOM      9  H   UNL     1      46.133   9.367  13.923  0.00  0.00    +0.000 HD
BRANCH   8  11
ATOM     10  C   UNL     1      48.343   8.006  12.059  0.00  0.00    +0.000 C 
ATOM     11  C   UNL     1      46.930   7.981  12.669  0.00  0.00    +0.000 C 
BRANCH  11  12
ATOM     12  C   UNL     1      46.467   6.544  12.839  0.00  0.00    +0.000 A 
ATOM     13  C   UNL     1      47.146   5.583  13.577  0.00  0.00    +0.000 A 
ATOM     14  S   UNL     1      46.472   4.020  13.439  0.00  0.00    +0.000 S 
ATOM     15  C   UNL     1      45.256   4.574  12.383  0.00  0.00    +0.000 A 
ATOM     16  N   UNL     1      44.377   3.711  11.806  0.00  0.00    +0.000 NA
ATOM     17  C   UNL     1      43.531   4.273  11.009  0.00  0.00    +0.000 A 
ATOM     18  N   UNL     1      43.457   5.622  10.767  0.00  0.00    +0.000 N 
ATOM     19  C   UNL     1      44.269   6.540  11.394  0.00  0.00    +0.000 A 
ATOM     20  O   UNL     1      44.087   7.746  11.272  0.00  0.00    +0.000 OA
ATOM     21  C   UNL     1      45.314   5.943  12.208  0.00  0.00    +0.000 A 
ATOM     22  H   UNL     1      42.728   6.002  10.184  0.00  0.00    +0.000 HD
ENDBRANCH  11  12
ENDBRANCH   8  11
ENDBRANCH   7   8
ENDBRANCH   1   7
BRANCH   4  23
ATOM     23  C   UNL     1      50.117   7.268  19.439  0.00  0.00    +0.000 C 
BRANCH  23  24
ATOM     24  N   UNL     1      50.682   5.936  19.280  0.00  0.00    +0.000 NA
ATOM     25  H   UNL     1      51.546   5.893  19.824  0.00  0.00    +0.000 HD
BRANCH  24  26
ATOM     26  CA  UNL     1      49.794   4.848  19.752  0.00  0.00    +0.000 C 
BRANCH  26  27
ATOM     27  C   UNL     1      49.217   4.066  18.567  0.00  0.00    +0.000 A 
ATOM     28  C   UNL     1      49.996   3.149  17.853  0.00  0.00    +0.000 A 
ATOM     29  C   UNL     1      49.414   2.413  16.823  0.00  0.00    +0.000 A 
ATOM     30  C   UNL     1      48.079   2.622  16.514  0.00  0.00    +0.000 A 
ATOM     31  C   UNL     1      47.376   3.573  17.241  0.00  0.00    +0.000 A 
ATOM     32  N   UNL     1      47.920   4.302  18.244  0.00  0.00    +0.000 NA
ENDBRANCH  26  27
BRANCH  26  33
ATOM     33  C   UNL     1      48.632   5.336  20.657  0.00  0.00    +0.000 C 
BRANCH  33  34
ATOM     34  O   UNL     1      47.977   4.275  21.356  0.00  0.00    +0.000 OA
ATOM     35  H   UNL     1      48.261   4.326  22.291  0.00  0.00    +0.000 HD
ENDBRANCH  33  34
ENDBRANCH  26  33
ENDBRANCH  24  26
ENDBRANCH  23  24
ENDBRANCH   4  23
TORSDOF 10
ENDMDL
