MODEL 1
REMARK VINA RESULT:    -8.391      0.000      0.000
REMARK INTER + INTRA:         -11.682
REMARK INTER:                 -10.843
REMARK INTRA:                  -0.839
REMARK UNBOUND:                -0.839
REMARK  Name = 
REMARK  5 active torsions:
REMARK  status: ('A' for Active; 'I' for Inactive)
REMARK    1  A    between atoms: C_2  and  C_4
REMARK    2  A    between atoms: C_8  and  N_9
REMARK    3  A    between atoms: N_9  and  C_10
REMARK    4  A    between atoms: C_10  and  C_11
REMARK    5  A    between atoms: C_15  and  C_16
REMARK                            x       y       z     vdW  Elec       q    Type
REMARK                         _______ _______ _______ _____ _____    ______ ____
ROOT
ATOM      1  N   UNL     1      43.779   6.663  12.281  0.00  0.00    +0.000 N 
ATOM      2  H   UNL     1      43.202   6.338  13.055  0.00  0.00    +0.000 HD
ENDROOT
BRANCH   1   7
ATOM      3  C   UNL     1      46.881   5.322  13.829  0.00  0.00    +0.000 A 
ATOM      4  C   UNL     1      47.870   6.067  13.183  0.00  0.00    +0.000 A 
ATOM      5  C   UNL     1      47.503   7.026  12.245  0.00  0.00    +0.000 A 
ATOM      6  C   UNL     1      46.154   7.225  11.935  0.00  0.00    +0.000 A 
ATOM      7  C   UNL     1      45.146   6.452  12.527  0.00  0.00    +0.000 A 
ATOM      8  C   UNL     1      45.529   5.523  13.505  0.00  0.00    +0.000 A 
BRANCH   3  10
ATOM      9  N   UNL     1      47.317   4.692  16.142  0.00  0.00    +0.000 N 
ATOM     10  C   UNL     1      47.227   4.289  14.839  0.00  0.00    +0.000 C 
ATOM     11  O   UNL     1      47.400   3.117  14.525  0.00  0.00    +0.000 OA
ATOM     12  H   UNL     1      47.456   3.960  16.828  0.00  0.00    +0.000 HD
ATOM     13  H   UNL     1      46.942   5.571  16.466  0.00  0.00    +0.000 HD
ENDBRANCH   3  10
ENDBRANCH   1   7
BRANCH   1  14
ATOM     14  C   UNL     1      43.246   6.256  10.985  0.00  0.00    +0.000 C 
BRANCH  14  15
ATOM     15  C   UNL     1      43.595   4.821  10.707  0.00  0.00    +0.000 A 
ATOM     16  C   UNL     1      43.059   3.801  11.480  0.00  0.00    +0.000 A 
ATOM     17  N   UNL     1      43.302   2.491  11.269  0.00  0.00    +0.000 NA
ATOM     18  C   UNL     1      44.138   2.183  10.247  0.00  0.00    +0.000 A 
ATOM     19  C   UNL     1      44.753   3.109   9.398  0.00  0.00    +0.000 A 
ATOM     20  C   UNL     1      44.458   4.456   9.661  0.00  0.00    +0.000 A 
BRANCH  19  21
ATOM     21  C   UNL     1      45.643   2.695   8.289  0.00  0.00    +0.000 A 
ATOM     22  C   UNL     1      45.955   3.563   7.232  0.00  0.00    +0.000 A 
ATOM     23  C   UNL     1      46.798   3.131   6.215  0.00  0.00    +0.000 A 
ATOM     24  N   UNL     1      47.357   1.908   6.175  0.00  0.00    +0.000 NA
ATOM     25  C   UNL     1      47.057   1.077   7.192  0.00  0.00    +0.000 A 
ATOM     26  C   UNL     1      46.220   1.417   8.246  0.00  0.00    +0.000 A 
ENDBRANCH  19  21
ENDBRANCH  14  15
ENDBRANCH   1  14
TORSDOF 5
ENDMDL
MODEL 2
REMARK VINA RESULT:    -7.704      2.804      6.647
REMARK INTER + INTRA:         -10.794
REMARK INTER:                 -10.076
REMARK INTRA:                  -0.718
REMARK UNBOUND:                -0.839
REMARK  Name = 
REMARK  5 active torsions:
REMARK  status: ('A' for Active; 'I' for Inactive)
REMARK    1  A    between atoms: C_2  and  C_4
REMARK    2  A    between atoms: C_8  and  N_9
REMARK    3  A    between atoms: N_9  and  C_10
REMARK    4  A    between atoms: C_10  and  C_11
REMARK    5  A    between atoms: C_15  and  C_16
REMARK                            x       y       z     vdW  Elec       q    Type
REMARK                         _______ _______ _______ _____ _____    ______ ____
ROOT
ATOM      1  N   UNL     1      44.452   4.921   9.251  0.00  0.00    +0.000 N 
ATOM      2  H   UNL     1      45.077   5.718   9.149  0.00  0.00    +0.000 HD
ENDROOT
BRANCH   1   7
ATOM      3  C   UNL     1      46.519   2.603   7.209  0.00  0.00    +0.000 A 
ATOM      4  C   UNL     1      46.197   1.363   7.766  0.00  0.00    +0.000 A 
ATOM      5  C   UNL     1      45.279   1.299   8.810  0.00  0.00    +0.000 A 
ATOM      6  C   UNL     1      44.703   2.469   9.312  0.00  0.00    +0.000 A 
ATOM      7  C   UNL     1      45.052   3.730   8.809  0.00  0.00    +0.000 A 
ATOM      8  C   UNL     1      45.942   3.774   7.726  0.00  0.00    +0.000 A 
BRANCH   3  10
ATOM      9  N   UNL     1      48.819   2.613   6.404  0.00  0.00    +0.000 N 
ATOM     10  C   UNL     1      47.492   2.719   6.093  0.00  0.00    +0.000 C 
ATOM     11  O   UNL     1      47.125   2.879   4.934  0.00  0.00    +0.000 OA
ATOM     12  H   UNL     1      49.462   2.597   5.622  0.00  0.00    +0.000 HD
ATOM     13  H   UNL     1      49.141   2.238   7.284  0.00  0.00    +0.000 HD
ENDBRANCH   3  10
ENDBRANCH   1   7
BRANCH   1  14
ATOM     14  C   UNL     1      43.777   4.907  10.545  0.00  0.00    +0.000 C 
BRANCH  14  15
ATOM     15  C   UNL     1      44.787   4.938  11.659  0.00  0.00    +0.000 A 
ATOM     16  C   UNL     1      44.694   4.050  12.721  0.00  0.00    +0.000 A 
ATOM     17  N   UNL     1      45.579   3.999  13.737  0.00  0.00    +0.000 NA
ATOM     18  C   UNL     1      46.599   4.892  13.702  0.00  0.00    +0.000 A 
ATOM     19  C   UNL     1      46.807   5.844  12.699  0.00  0.00    +0.000 A 
ATOM     20  C   UNL     1      45.857   5.847  11.665  0.00  0.00    +0.000 A 
BRANCH  19  21
ATOM     21  C   UNL     1      47.957   6.777  12.721  0.00  0.00    +0.000 A 
ATOM     22  C   UNL     1      48.293   7.558  11.605  0.00  0.00    +0.000 A 
ATOM     23  C   UNL     1      49.378   8.421  11.673  0.00  0.00    +0.000 A 
ATOM     24  N   UNL     1      50.149   8.571  12.767  0.00  0.00    +0.000 NA
ATOM     25  C   UNL     1      49.823   7.821  13.837  0.00  0.00    +0.000 A 
ATOM     26  C   UNL     1      48.762   6.926  13.860  0.00  0.00    +0.000 A 
ENDBRANCH  19  21
ENDBRANCH  14  15
ENDBRANCH   1  14
TORSDOF 5
ENDMDL
MODEL 3
REMARK VINA RESULT:    -7.615      2.352      6.459
REMARK INTER + INTRA:         -10.680
REMARK INTER:                 -10.053
REMARK INTRA:                  -0.627
REMARK UNBOUND:                -0.839
REMARK  Name = 
REMARK  5 active torsions:
REMARK  status: ('A' for Active; 'I' for Inactive)
REMARK    1  A    between atoms: C_2  and  C_4
REMARK    2  A    between atoms: C_8  and  N_9
REMARK    3  A    between atoms: N_9  and  C_10
REMARK    4  A    between atoms: C_10  and  C_11
REMARK    5  A    between atoms: C_15  and  C_16
REMARK                            x       y       z     vdW  Elec       q    Type
REMARK                         _______ _______ _______ _____ _____    ______ ____
ROOT
ATOM      1  N   UNL     1      43.923   2.422  10.714  0.00  0.00    +0.000 N 
ATOM      2  H   UNL     1      43.109   1.842  10.518  0.00  0.00    +0.000 HD
ENDROOT
BRANCH   1   7
ATOM      3  C   UNL     1      46.267   2.007   7.860  0.00  0.00    +0.000 A 
ATOM      4  C   UNL     1      46.236   3.275   7.274  0.00  0.00    +0.000 A 
ATOM      5  C   UNL     1      45.447   4.270   7.840  0.00  0.00    +0.000 A 
ATOM      6  C   UNL     1      44.673   3.996   8.971  0.00  0.00    +0.000 A 
ATOM      7  C   UNL     1      44.643   2.718   9.545  0.00  0.00    +0.000 A 
ATOM      8  C   UNL     1      45.481   1.738   8.992  0.00  0.00    +0.000 A 
BRANCH   3  10
ATOM      9  N   UNL     1      48.030   1.257   6.353  0.00  0.00    +0.000 N 
ATOM     10  C   UNL     1      47.096   0.913   7.291  0.00  0.00    +0.000 C 
ATOM     11  O   UNL     1      46.971  -0.249   7.663  0.00  0.00    +0.000 OA
ATOM     12  H   UNL     1      48.651   0.517   6.048  0.00  0.00    +0.000 HD
ATOM     13  H   UNL     1      48.330   2.209   6.211  0.00  0.00    +0.000 HD
ENDBRANCH   3  10
ENDBRANCH   1   7
BRANCH   1  14
ATOM     14  C   UNL     1      43.615   3.521  11.624  0.00  0.00    +0.000 C 
BRANCH  14  15
ATOM     15  C   UNL     1      44.874   4.036  12.262  0.00  0.00    +0.000 A 
ATOM     16  C   UNL     1      45.640   3.215  13.078  0.00  0.00    +0.000 A 
ATOM     17  N   UNL     1      46.796   3.599  13.658  0.00  0.00    +0.000 NA
ATOM     18  C   UNL     1      47.199   4.873  13.427  0.00  0.00    +0.000 A 
ATOM     19  C   UNL     1      46.522   5.805  12.635  0.00  0.00    +0.000 A 
ATOM     20  C   UNL     1      45.328   5.348  12.054  0.00  0.00    +0.000 A 
BRANCH  19  21
ATOM     21  C   UNL     1      47.035   7.177  12.416  0.00  0.00    +0.000 A 
ATOM     22  C   UNL     1      46.256   8.309  12.700  0.00  0.00    +0.000 A 
ATOM     23  C   UNL     1      46.781   9.576  12.481  0.00  0.00    +0.000 A 
ATOM     24  N   UNL     1      48.022   9.802  12.010  0.00  0.00    +0.000 NA
ATOM     25  C   UNL     1      48.768   8.714  11.741  0.00  0.00    +0.000 A 
ATOM     26  C   UNL     1      48.326   7.410  11.920  0.00  0.00    +0.000 A 
ENDBRANCH  19  21
ENDBRANCH  14  15
ENDBRANCH   1  14
TORSDOF 5
ENDMDL
MODEL 4
REMARK VINA RESULT:    -7.460      1.706      2.255
REMARK INTER + INTRA:         -10.479
REMARK INTER:                  -9.720
REMARK INTRA:                  -0.759
REMARK UNBOUND:                -0.839
REMARK  Name = 
REMARK  5 active torsions:
REMARK  status: ('A' for Active; 'I' for Inactive)
REMARK    1  A    between atoms: C_2  and  C_4
REMARK    2  A    between atoms: C_8  and  N_9
REMARK    3  A    between atoms: N_9  and  C_10
REMARK    4  A    between atoms: C_10  and  C_11
REMARK    5  A    between atoms: C_15  and  C_16
REMARK                            x       y       z     vdW  Elec       q    Type
REMARK                         _______ _______ _______ _____ _____    ______ ____
ROOT
ATOM      1  N   UNL     1      44.349   6.568  12.723  0.00  0.00    +0.000 N 
ATOM      2  H   UNL     1      44.578   5.719  13.236  0.00  0.00    +0.000 HD
ENDROOT
BRANCH   1   7
ATOM      3  C   UNL     1      47.865   7.761  12.907  0.00  0.00    +0.000 A 
ATOM      4  C   UNL     1      47.741   9.090  12.495  0.00  0.00    +0.000 A 
ATOM      5  C   UNL     1      46.484   9.591  12.172  0.00  0.00    +0.000 A 
ATOM      6  C   UNL     1      45.359   8.764  12.237  0.00  0.00    +0.000 A 
ATOM      7  C   UNL     1      45.464   7.413  12.593  0.00  0.00    +0.000 A 
ATOM      8  C   UNL     1      46.730   6.935  12.961  0.00  0.00    +0.000 A 
BRANCH   3  10
ATOM      9  N   UNL     1      50.202   7.337  12.361  0.00  0.00    +0.000 N 
ATOM     10  C   UNL     1      49.186   7.182  13.263  0.00  0.00    +0.000 C 
ATOM     11  O   UNL     1      49.371   6.610  14.332  0.00  0.00    +0.000 OA
ATOM     12  H   UNL     1      51.117   7.024  12.660  0.00  0.00    +0.000 HD
ATOM     13  H   UNL     1      50.159   8.004  11.605  0.00  0.00    +0.000 HD
ENDBRANCH   3  10
ENDBRANCH   1   7
BRANCH   1  14
ATOM     14  C   UNL     1      43.554   6.298  11.530  0.00  0.00    +0.000 C 
BRANCH  14  15
ATOM     15  C   UNL     1      43.741   4.873  11.092  0.00  0.00    +0.000 A 
ATOM     16  C   UNL     1      43.060   3.843  11.726  0.00  0.00    +0.000 A 
ATOM     17  N   UNL     1      43.154   2.547  11.367  0.00  0.00    +0.000 NA
ATOM     18  C   UNL     1      43.985   2.259  10.335  0.00  0.00    +0.000 A 
ATOM     19  C   UNL     1      44.736   3.195   9.616  0.00  0.00    +0.000 A 
ATOM     20  C   UNL     1      44.593   4.528  10.031  0.00  0.00    +0.000 A 
BRANCH  19  21
ATOM     21  C   UNL     1      45.612   2.806   8.486  0.00  0.00    +0.000 A 
ATOM     22  C   UNL     1      46.132   1.508   8.372  0.00  0.00    +0.000 A 
ATOM     23  C   UNL     1      46.947   1.188   7.293  0.00  0.00    +0.000 A 
ATOM     24  N   UNL     1      47.275   2.058   6.319  0.00  0.00    +0.000 NA
ATOM     25  C   UNL     1      46.773   3.302   6.431  0.00  0.00    +0.000 A 
ATOM     26  C   UNL     1      45.958   3.715   7.476  0.00  0.00    +0.000 A 
ENDBRANCH  19  21
ENDBRANCH  14  15
ENDBRANCH   1  14
TORSDOF 5
ENDMDL
MODEL 5
REMARK VINA RESULT:    -7.320      2.322      2.953
REMARK INTER + INTRA:         -10.299
REMARK INTER:                  -9.495
REMARK INTRA:                  -0.804
REMARK UNBOUND:                -0.839
REMARK  Name = 
REMARK  5 active torsions:
REMARK  status: ('A' for Active; 'I' for Inactive)
REMARK    1  A    between atoms: C_2  and  C_4
REMARK    2  A    between atoms: C_8  and  N_9
REMARK    3  A    between atoms: N_9  and  C_10
REMARK    4  A    between atoms: C_10  and  C_11
REMARK    5  A    between atoms: C_15  and  C_16
REMARK                            x       y       z     vdW  Elec       q    Type
REMARK                         _______ _______ _______ _____ _____    ______ ____
ROOT
ATOM      1  N   UNL     1      44.354   6.793  12.572  0.00  0.00    +0.000 N 
ATOM      2  H   UNL     1      44.149   6.081  13.271  0.00  0.00    +0.000 HD
ENDROOT
BRANCH   1   7
ATOM      3  C   UNL     1      47.454   8.808  12.186  0.00  0.00    +0.000 A 
ATOM      4  C   UNL     1      48.448   7.839  12.345  0.00  0.00    +0.000 A 
ATOM      5  C   UNL     1      48.085   6.515  12.564  0.00  0.00    +0.000 A 
ATOM      6  C   UNL     1      46.736   6.161  12.648  0.00  0.00    +0.000 A 
ATOM      7  C   UNL     1      45.720   7.121  12.549  0.00  0.00    +0.000 A 
ATOM      8  C   UNL     1      46.100   8.444  12.281  0.00  0.00    +0.000 A 
BRANCH   3  10
ATOM      9  N   UNL     1      47.376  11.142  12.882  0.00  0.00    +0.000 N 
ATOM     10  C   UNL     1      47.794  10.234  11.949  0.00  0.00    +0.000 C 
ATOM     11  O   UNL     1      48.446  10.586  10.972  0.00  0.00    +0.000 OA
ATOM     12  H   UNL     1      47.699  12.093  12.757  0.00  0.00    +0.000 HD
ATOM     13  H   UNL     1      47.066  10.870  13.803  0.00  0.00    +0.000 HD
ENDBRANCH   3  10
ENDBRANCH   1   7
BRANCH   1  14
ATOM     14  C   UNL     1      43.693   6.526  11.299  0.00  0.00    +0.000 C 
BRANCH  14  15
ATOM     15  C   UNL     1      43.833   5.075  10.934  0.00  0.00    +0.000 A 
ATOM     16  C   UNL     1      43.141   4.100  11.639  0.00  0.00    +0.000 A 
ATOM     17  N   UNL     1      43.193   2.784  11.349  0.00  0.00    +0.000 NA
ATOM     18  C   UNL     1      43.991   2.419  10.314  0.00  0.00    +0.000 A 
ATOM     19  C   UNL     1      44.747   3.294   9.528  0.00  0.00    +0.000 A 
ATOM     20  C   UNL     1      44.649   4.652   9.874  0.00  0.00    +0.000 A 
BRANCH  19  21
ATOM     21  C   UNL     1      45.585   2.822   8.401  0.00  0.00    +0.000 A 
ATOM     22  C   UNL     1      45.873   3.645   7.303  0.00  0.00    +0.000 A 
ATOM     23  C   UNL     1      46.665   3.159   6.271  0.00  0.00    +0.000 A 
ATOM     24  N   UNL     1      47.197   1.923   6.253  0.00  0.00    +0.000 NA
ATOM     25  C   UNL     1      46.920   1.136   7.310  0.00  0.00    +0.000 A 
ATOM     26  C   UNL     1      46.132   1.531   8.383  0.00  0.00    +0.000 A 
ENDBRANCH  19  21
ENDBRANCH  14  15
ENDBRANCH   1  14
TORSDOF 5
ENDMDL
MODEL 6
REMARK VINA RESULT:    -7.142      1.676      2.129
REMARK INTER + INTRA:         -10.069
REMARK INTER:                  -9.403
REMARK INTRA:                  -0.666
REMARK UNBOUND:                -0.839
REMARK  Name = 
REMARK  5 active torsions:
REMARK  status: ('A' for Active; 'I' for Inactive)
REMARK    1  A    between atoms: C_2  and  C_4
REMARK    2  A    between atoms: C_8  and  N_9
REMARK    3  A    between atoms: N_9  and  C_10
REMARK    4  A    between atoms: C_10  and  C_11
REMARK    5  A    between atoms: C_15  and  C_16
REMARK                            x       y       z     vdW  Elec       q    Type
REMARK                         _______ _______ _______ _____ _____    ______ ____
ROOT
ATOM      1  N   UNL     1      45.611   6.169  12.423  0.00  0.00    +0.000 N 
ATOM      2  H   UNL     1      45.416   5.271  12.862  0.00  0.00    +0.000 HD
ENDROOT
BRANCH   1   7
ATOM      3  C   UNL     1      48.793   6.948  14.179  0.00  0.00    +0.000 A 
ATOM      4  C   UNL     1      49.566   7.487  13.148  0.00  0.00    +0.000 A 
ATOM      5  C   UNL     1      49.022   7.605  11.874  0.00  0.00    +0.000 A 
ATOM      6  C   UNL     1      47.718   7.166  11.623  0.00  0.00    +0.000 A 
ATOM      7  C   UNL     1      46.942   6.570  12.625  0.00  0.00    +0.000 A 
ATOM      8  C   UNL     1      47.487   6.501  13.915  0.00  0.00    +0.000 A 
BRANCH   3  10
ATOM      9  N   UNL     1      48.442   6.892  16.590  0.00  0.00    +0.000 N 
ATOM     10  C   UNL     1      49.332   6.803  15.556  0.00  0.00    +0.000 C 
ATOM     11  O   UNL     1      50.521   6.587  15.761  0.00  0.00    +0.000 OA
ATOM     12  H   UNL     1      48.808   6.695  17.513  0.00  0.00    +0.000 HD
ATOM     13  H   UNL     1      47.444   6.817  16.456  0.00  0.00    +0.000 HD
ENDBRANCH   3  10
ENDBRANCH   1   7
BRANCH   1  14
ATOM     14  C   UNL     1      45.070   6.252  11.070  0.00  0.00    +0.000 C 
BRANCH  14  15
ATOM     15  C   UNL     1      44.870   4.874  10.504  0.00  0.00    +0.000 A 
ATOM     16  C   UNL     1      43.934   4.011  11.057  0.00  0.00    +0.000 A 
ATOM     17  N   UNL     1      43.679   2.775  10.583  0.00  0.00    +0.000 NA
ATOM     18  C   UNL     1      44.409   2.369   9.514  0.00  0.00    +0.000 A 
ATOM     19  C   UNL     1      45.387   3.131   8.867  0.00  0.00    +0.000 A 
ATOM     20  C   UNL     1      45.605   4.411   9.401  0.00  0.00    +0.000 A 
BRANCH  19  21
ATOM     21  C   UNL     1      46.133   2.625   7.691  0.00  0.00    +0.000 A 
ATOM     22  C   UNL     1      46.715   1.348   7.682  0.00  0.00    +0.000 A 
ATOM     23  C   UNL     1      47.402   0.916   6.555  0.00  0.00    +0.000 A 
ATOM     24  N   UNL     1      47.547   1.652   5.438  0.00  0.00    +0.000 NA
ATOM     25  C   UNL     1      46.986   2.876   5.449  0.00  0.00    +0.000 A 
ATOM     26  C   UNL     1      46.288   3.397   6.530  0.00  0.00    +0.000 A 
ENDBRANCH  19  21
ENDBRANCH  14  15
ENDBRANCH   1  14
TORSDOF 5
ENDMDL
MODEL 7
REMARK VINA RESULT:    -6.594      2.725      5.604
REMARK INTER + INTRA:          -9.361
REMARK INTER:                  -8.649
REMARK INTRA:                  -0.712
REMARK UNBOUND:                -0.839
REMARK  Name = 
REMARK  5 active torsions:
REMARK  status: ('A' for Active; 'I' for Inactive)
REMARK    1  A    between atoms: C_2  and  C_4
REMARK    2  A    between atoms: C_8  and  N_9
REMARK    3  A    between atoms: N_9  and  C_10
REMARK    4  A    between atoms: C_10  and  C_11
REMARK    5  A    between atoms: C_15  and  C_16
REMARK                            x       y       z     vdW  Elec       q    Type
REMARK                         _______ _______ _______ _____ _____    ______ ____
ROOT
ATOM      1  N   UNL     1      48.211   6.796  16.196  0.00  0.00    +0.000 N 
ATOM      2  H   UNL     1      47.218   7.017  16.149  0.00  0.00    +0.000 HD
ENDROOT
BRANCH   1   7
ATOM      3  C   UNL     1      49.257   3.505  17.569  0.00  0.00    +0.000 A 
ATOM      4  C   UNL     1      48.907   3.630  18.916  0.00  0.00    +0.000 A 
ATOM      5  C   UNL     1      48.309   4.804  19.362  0.00  0.00    +0.000 A 
ATOM      6  C   UNL     1      48.082   5.858  18.472  0.00  0.00    +0.000 A 
ATOM      7  C   UNL     1      48.474   5.780  17.129  0.00  0.00    +0.000 A 
ATOM      8  C   UNL     1      49.033   4.572  16.685  0.00  0.00    +0.000 A 
BRANCH   3  10
ATOM      9  N   UNL     1      50.902   1.721  17.797  0.00  0.00    +0.000 N 
ATOM     10  C   UNL     1      49.897   2.269  17.049  0.00  0.00    +0.000 C 
ATOM     11  O   UNL     1      49.526   1.744  16.005  0.00  0.00    +0.000 OA
ATOM     12  H   UNL     1      51.259   0.828  17.479  0.00  0.00    +0.000 HD
ATOM     13  H   UNL     1      51.059   1.972  18.761  0.00  0.00    +0.000 HD
ENDBRANCH   3  10
ENDBRANCH   1   7
BRANCH   1  14
ATOM     14  C   UNL     1      48.817   6.683  14.873  0.00  0.00    +0.000 C 
BRANCH  14  15
ATOM     15  C   UNL     1      47.775   6.870  13.806  0.00  0.00    +0.000 A 
ATOM     16  C   UNL     1      47.597   8.106  13.200  0.00  0.00    +0.000 A 
ATOM     17  N   UNL     1      46.705   8.339  12.216  0.00  0.00    +0.000 NA
ATOM     18  C   UNL     1      45.937   7.290  11.829  0.00  0.00    +0.000 A 
ATOM     19  C   UNL     1      46.006   5.998  12.359  0.00  0.00    +0.000 A 
ATOM     20  C   UNL     1      46.956   5.813  13.376  0.00  0.00    +0.000 A 
BRANCH  19  21
ATOM     21  C   UNL     1      45.143   4.896  11.871  0.00  0.00    +0.000 A 
ATOM     22  C   UNL     1      44.439   4.066  12.756  0.00  0.00    +0.000 A 
ATOM     23  C   UNL     1      43.641   3.048  12.252  0.00  0.00    +0.000 A 
ATOM     24  N   UNL     1      43.483   2.799  10.938  0.00  0.00    +0.000 NA
ATOM     25  C   UNL     1      44.159   3.599  10.092  0.00  0.00    +0.000 A 
ATOM     26  C   UNL     1      44.987   4.635  10.502  0.00  0.00    +0.000 A 
ENDBRANCH  19  21
ENDBRANCH  14  15
ENDBRANCH   1  14
TORSDOF 5
ENDMDL
MODEL 8
REMARK VINA RESULT:    -6.362      4.069      8.327
REMARK INTER + INTRA:          -9.060
REMARK INTER:                  -8.545
REMARK INTRA:                  -0.515
REMARK UNBOUND:                -0.839
REMARK  Name = 
REMARK  5 active torsions:
REMARK  status: ('A' for Active; 'I' for Inactive)
REMARK    1  A    between atoms: C_2  and  C_4
REMARK    2  A    between atoms: C_8  and  N_9
REMARK    3  A    between atoms: N_9  and  C_10
REMARK    4  A    between atoms: C_10  and  C_11
REMARK    5  A    between atoms: C_15  and  C_16
REMARK                            x       y       z     vdW  Elec       q    Type
REMARK                         _______ _______ _______ _____ _____    ______ ____
ROOT
ATOM      1  N   UNL     1      46.963   5.386  14.786  0.00  0.00    +0.000 N 
ATOM      2  H   UNL     1      47.837   5.909  14.823  0.00  0.00    +0.000 HD
ENDROOT
BRANCH   1   7
ATOM      3  C   UNL     1      45.011   4.291  11.819  0.00  0.00    +0.000 A 
ATOM      4  C   UNL     1      45.345   5.267  10.877  0.00  0.00    +0.000 A 
ATOM      5  C   UNL     1      46.233   6.279  11.226  0.00  0.00    +0.000 A 
ATOM      6  C   UNL     1      46.767   6.331  12.517  0.00  0.00    +0.000 A 
ATOM      7  C   UNL     1      46.404   5.397  13.497  0.00  0.00    +0.000 A 
ATOM      8  C   UNL     1      45.545   4.356  13.116  0.00  0.00    +0.000 A 
BRANCH   3  10
ATOM      9  N   UNL     1      43.697   2.357  12.509  0.00  0.00    +0.000 N 
ATOM     10  C   UNL     1      44.068   3.190  11.490  0.00  0.00    +0.000 C 
ATOM     11  O   UNL     1      43.618   3.046  10.359  0.00  0.00    +0.000 OA
ATOM     12  H   UNL     1      42.981   1.676  12.291  0.00  0.00    +0.000 HD
ATOM     13  H   UNL     1      43.842   2.591  13.480  0.00  0.00    +0.000 HD
ENDBRANCH   3  10
ENDBRANCH   1   7
BRANCH   1  14
ATOM     14  C   UNL     1      47.054   4.106  15.481  0.00  0.00    +0.000 C 
BRANCH  14  15
ATOM     15  C   UNL     1      47.996   4.213  16.647  0.00  0.00    +0.000 A 
ATOM     16  C   UNL     1      47.691   5.027  17.729  0.00  0.00    +0.000 A 
ATOM     17  N   UNL     1      48.472   5.147  18.822  0.00  0.00    +0.000 NA
ATOM     18  C   UNL     1      49.626   4.434  18.828  0.00  0.00    +0.000 A 
ATOM     19  C   UNL     1      50.058   3.585  17.804  0.00  0.00    +0.000 A 
ATOM     20  C   UNL     1      49.202   3.496  16.695  0.00  0.00    +0.000 A 
BRANCH  19  21
ATOM     21  C   UNL     1      51.326   2.824  17.890  0.00  0.00    +0.000 A 
ATOM     22  C   UNL     1      51.432   1.513  17.404  0.00  0.00    +0.000 A 
ATOM     23  C   UNL     1      52.642   0.840  17.504  0.00  0.00    +0.000 A 
ATOM     24  N   UNL     1      53.754   1.374  18.042  0.00  0.00    +0.000 NA
ATOM     25  C   UNL     1      53.650   2.634  18.506  0.00  0.00    +0.000 A 
ATOM     26  C   UNL     1      52.481   3.381  18.457  0.00  0.00    +0.000 A 
ENDBRANCH  19  21
ENDBRANCH  14  15
ENDBRANCH   1  14
TORSDOF 5
ENDMDL
MODEL 9
REMARK VINA RESULT:    -6.290      2.569      7.469
REMARK INTER + INTRA:          -8.968
REMARK INTER:                  -8.172
REMARK INTRA:                  -0.796
REMARK UNBOUND:                -0.839
REMARK  Name = 
REMARK  5 active torsions:
REMARK  status: ('A' for Active; 'I' for Inactive)
REMARK    1  A    between atoms: C_2  and  C_4
REMARK    2  A    between atoms: C_8  and  N_9
REMARK    3  A    between atoms: N_9  and  C_10
REMARK    4  A    between atoms: C_10  and  C_11
REMARK    5  A    between atoms: C_15  and  C_16
REMARK                            x       y       z     vdW  Elec       q    Type
REMARK                         _______ _______ _______ _____ _____    ______ ____
ROOT
ATOM      1  N   UNL     1      45.749   6.973  11.852  0.00  0.00    +0.000 N 
ATOM      2  H   UNL     1      45.344   7.658  11.217  0.00  0.00    +0.000 HD
ENDROOT
BRANCH   1   7
ATOM      3  C   UNL     1      44.318   3.794  10.561  0.00  0.00    +0.000 A 
ATOM      4  C   UNL     1      43.538   3.371  11.640  0.00  0.00    +0.000 A 
ATOM      5  C   UNL     1      43.475   4.153  12.788  0.00  0.00    +0.000 A 
ATOM      6  C   UNL     1      44.208   5.340  12.871  0.00  0.00    +0.000 A 
ATOM      7  C   UNL     1      45.043   5.759  11.826  0.00  0.00    +0.000 A 
ATOM      8  C   UNL     1      45.058   4.985  10.657  0.00  0.00    +0.000 A 
BRANCH   3  10
ATOM      9  N   UNL     1      44.369   3.672   8.128  0.00  0.00    +0.000 N 
ATOM     10  C   UNL     1      44.414   2.993   9.314  0.00  0.00    +0.000 C 
ATOM     11  O   UNL     1      44.554   1.775   9.342  0.00  0.00    +0.000 OA
ATOM     12  H   UNL     1      44.533   3.124   7.293  0.00  0.00    +0.000 HD
ATOM     13  H   UNL     1      44.507   4.670   8.068  0.00  0.00    +0.000 HD
ENDBRANCH   3  10
ENDBRANCH   1   7
BRANCH   1  14
ATOM     14  C   UNL     1      47.204   6.920  11.756  0.00  0.00    +0.000 C 
BRANCH  14  15
ATOM     15  C   UNL     1      47.822   7.087  13.115  0.00  0.00    +0.000 A 
ATOM     16  C   UNL     1      48.445   8.276  13.467  0.00  0.00    +0.000 A 
ATOM     17  N   UNL     1      48.993   8.508  14.678  0.00  0.00    +0.000 NA
ATOM     18  C   UNL     1      48.933   7.495  15.577  0.00  0.00    +0.000 A 
ATOM     19  C   UNL     1      48.345   6.247  15.353  0.00  0.00    +0.000 A 
ATOM     20  C   UNL     1      47.786   6.065  14.077  0.00  0.00    +0.000 A 
BRANCH  19  21
ATOM     21  C   UNL     1      48.303   5.193  16.393  0.00  0.00    +0.000 A 
ATOM     22  C   UNL     1      47.352   4.162  16.359  0.00  0.00    +0.000 A 
ATOM     23  C   UNL     1      47.354   3.195  17.356  0.00  0.00    +0.000 A 
ATOM     24  N   UNL     1      48.232   3.171  18.375  0.00  0.00    +0.000 NA
ATOM     25  C   UNL     1      49.145   4.161  18.404  0.00  0.00    +0.000 A 
ATOM     26  C   UNL     1      49.215   5.175  17.458  0.00  0.00    +0.000 A 
ENDBRANCH  19  21
ENDBRANCH  14  15
ENDBRANCH   1  14
TORSDOF 5
ENDMDL
