MODEL 1
REMARK VINA RESULT:    -7.766      0.000      0.000
REMARK INTER + INTRA:         -13.122
REMARK INTER:                 -11.853
REMARK INTRA:                  -1.270
REMARK UNBOUND:                -1.270
REMARK  Name = 
REMARK  11 active torsions:
REMARK  status: ('A' for Active; 'I' for Inactive)
REMARK    1  A    between atoms: C_1  and  C_2
REMARK    2  A    between atoms: C_2  and  C_3
REMARK    3  A    between atoms: C_2  and  O_4
REMARK    4  A    between atoms: O_4  and  C_5
REMARK    5  A    between atoms: C_7  and  C_8
REMARK    6  A    between atoms: C_8  and  C_9
REMARK    7  A    between atoms: C_9  and  O_10
REMARK    8  A    between atoms: O_10  and  C_11
REMARK    9  A    between atoms: C_14  and  C_15
REMARK   10  A    between atoms: C_21  and  N_22
REMARK   11  A    between atoms: N_22  and  C_23
REMARK                            x       y       z     vdW  Elec       q    Type
REMARK                         _______ _______ _______ _____ _____    ______ ____
ROOT
ATOM      1  C   UNL     1      47.149   6.155  12.354  0.00  0.00    +0.000 A 
ATOM      2  C   UNL     1      45.819   6.157  11.954  0.00  0.00    +0.000 A 
ATOM      3  C   UNL     1      44.905   5.414  12.693  0.00  0.00    +0.000 A 
ATOM      4  C   UNL     1      45.383   4.704  13.797  0.00  0.00    +0.000 A 
ATOM      5  C   UNL     1      46.753   4.654  14.059  0.00  0.00    +0.000 A 
ATOM      6  N   UNL     1      47.634   5.398  13.362  0.00  0.00    +0.000 NA
ENDROOT
BRANCH   5   7
ATOM      7  N   UNL     1      47.292   3.825  15.035  0.00  0.00    +0.000 N 
ATOM      8  H   UNL     1      47.090   2.865  14.766  0.00  0.00    +0.000 HD
BRANCH   7   9
ATOM      9  C   UNL     1      47.136   4.163  16.455  0.00  0.00    +0.000 C 
ATOM     10  C   UNL     1      48.201   5.145  16.894  0.00  0.00    +0.000 C 
ATOM     11  C   UNL     1      49.301   4.270  17.456  0.00  0.00    +0.000 C 
ATOM     12  O   UNL     1      48.698   3.062  17.921  0.00  0.00    +0.000 OA
ATOM     13  C   UNL     1      47.358   2.992  17.414  0.00  0.00    +0.000 C 
ENDBRANCH   7   9
ENDBRANCH   5   7
BRANCH   1  14
ATOM     14  O   UNL     1      47.962   7.055  11.694  0.00  0.00    +0.000 OA
BRANCH  14  16
ATOM     15  C   UNL     1      50.078   8.078  11.538  0.00  0.00    +0.000 C 
ATOM     16  C   UNL     1      48.925   7.751  12.490  0.00  0.00    +0.000 C 
ATOM     17  C   UNL     1      48.362   9.052  13.056  0.00  0.00    +0.000 C 
ENDBRANCH  14  16
ENDBRANCH   1  14
BRANCH   3  18
ATOM     18  C   UNL     1      43.460   5.284  12.279  0.00  0.00    +0.000 C 
BRANCH  18  19
ATOM     19  C   UNL     1      43.367   5.036  10.771  0.00  0.00    +0.000 C 
BRANCH  19  20
ATOM     20  O   UNL     1      43.474   3.638  10.482  0.00  0.00    +0.000 OA
BRANCH  20  21
ATOM     21  C   UNL     1      44.422   3.311   9.553  0.00  0.00    +0.000 A 
ATOM     22  C   UNL     1      44.897   2.051   9.250  0.00  0.00    +0.000 A 
ATOM     23  N   UNL     1      45.836   1.792   8.315  0.00  0.00    +0.000 NA
ATOM     24  C   UNL     1      46.315   2.878   7.658  0.00  0.00    +0.000 A 
ATOM     25  N   UNL     1      45.933   4.149   7.866  0.00  0.00    +0.000 NA
ATOM     26  C   UNL     1      44.989   4.331   8.814  0.00  0.00    +0.000 A 
BRANCH  24  27
ATOM     27  C   UNL     1      47.372   2.591   6.614  0.00  0.00    +0.000 C 
ATOM     28  N   UNL     1      47.148   3.153   5.380  0.00  0.00    +0.000 N 
ATOM     29  O   UNL     1      48.366   1.907   6.820  0.00  0.00    +0.000 OA
ATOM     30  H   UNL     1      46.316   3.709   5.220  0.00  0.00    +0.000 HD
ATOM     31  H   UNL     1      47.816   2.990   4.640  0.00  0.00    +0.000 HD
ENDBRANCH  24  27
ENDBRANCH  20  21
ENDBRANCH  19  20
ENDBRANCH  18  19
ENDBRANCH   3  18
TORSDOF 9
ENDMDL
MODEL 2
REMARK VINA RESULT:    -7.628      1.208      4.238
REMARK INTER + INTRA:         -12.912
REMARK INTER:                 -11.730
REMARK INTRA:                  -1.182
REMARK UNBOUND:                -1.270
REMARK  Name = 
REMARK  11 active torsions:
REMARK  status: ('A' for Active; 'I' for Inactive)
REMARK    1  A    between atoms: C_1  and  C_2
REMARK    2  A    between atoms: C_2  and  C_3
REMARK    3  A    between atoms: C_2  and  O_4
REMARK    4  A    between atoms: O_4  and  C_5
REMARK    5  A    between atoms: C_7  and  C_8
REMARK    6  A    between atoms: C_8  and  C_9
REMARK    7  A    between atoms: C_9  and  O_10
REMARK    8  A    between atoms: O_10  and  C_11
REMARK    9  A    between atoms: C_14  and  C_15
REMARK   10  A    between atoms: C_21  and  N_22
REMARK   11  A    between atoms: N_22  and  C_23
REMARK                            x       y       z     vdW  Elec       q    Type
REMARK                         _______ _______ _______ _____ _____    ______ ____
ROOT
ATOM      1  C   UNL     1      46.956   4.766  13.934  0.00  0.00    +0.000 A 
ATOM      2  C   UNL     1      45.607   4.611  13.645  0.00  0.00    +0.000 A 
ATOM      3  C   UNL     1      45.076   5.316  12.571  0.00  0.00    +0.000 A 
ATOM      4  C   UNL     1      45.936   6.145  11.845  0.00  0.00    +0.000 A 
ATOM      5  C   UNL     1      47.248   6.342  12.276  0.00  0.00    +0.000 A 
ATOM      6  N   UNL     1      47.771   5.636  13.298  0.00  0.00    +0.000 NA
ENDROOT
BRANCH   5   7
ATOM      7  N   UNL     1      48.086   7.286  11.695  0.00  0.00    +0.000 N 
ATOM      8  H   UNL     1      48.822   6.781  11.207  0.00  0.00    +0.000 HD
BRANCH   7   9
ATOM      9  C   UNL     1      48.487   8.478  12.451  0.00  0.00    +0.000 C 
ATOM     10  C   UNL     1      47.277   9.173  13.042  0.00  0.00    +0.000 C 
ATOM     11  C   UNL     1      46.916  10.223  12.014  0.00  0.00    +0.000 C 
ATOM     12  O   UNL     1      48.107  10.562  11.304  0.00  0.00    +0.000 OA
ATOM     13  C   UNL     1      49.115   9.586  11.602  0.00  0.00    +0.000 C 
ENDBRANCH   7   9
ENDBRANCH   5   7
BRANCH   1  14
ATOM     14  O   UNL     1      47.456   3.902  14.887  0.00  0.00    +0.000 OA
BRANCH  14  16
ATOM     15  C   UNL     1      47.603   3.067  17.086  0.00  0.00    +0.000 C 
ATOM     16  C   UNL     1      47.356   4.325  16.250  0.00  0.00    +0.000 C 
ATOM     17  C   UNL     1      48.413   5.371  16.600  0.00  0.00    +0.000 C 
ENDBRANCH  14  16
ENDBRANCH   1  14
BRANCH   3  18
ATOM     18  C   UNL     1      43.605   5.279  12.239  0.00  0.00    +0.000 C 
BRANCH  18  19
ATOM     19  C   UNL     1      43.410   4.972  10.752  0.00  0.00    +0.000 C 
BRANCH  19  20
ATOM     20  O   UNL     1      43.576   3.572  10.500  0.00  0.00    +0.000 OA
BRANCH  20  21
ATOM     21  C   UNL     1      44.521   3.262   9.562  0.00  0.00    +0.000 A 
ATOM     22  C   UNL     1      45.012   2.010   9.252  0.00  0.00    +0.000 A 
ATOM     23  N   UNL     1      45.948   1.767   8.310  0.00  0.00    +0.000 NA
ATOM     24  C   UNL     1      46.407   2.862   7.653  0.00  0.00    +0.000 A 
ATOM     25  N   UNL     1      46.008   4.126   7.867  0.00  0.00    +0.000 NA
ATOM     26  C   UNL     1      45.069   4.292   8.822  0.00  0.00    +0.000 A 
BRANCH  24  27
ATOM     27  C   UNL     1      47.460   2.594   6.599  0.00  0.00    +0.000 C 
ATOM     28  N   UNL     1      47.235   3.183   5.379  0.00  0.00    +0.000 N 
ATOM     29  O   UNL     1      48.451   1.900   6.788  0.00  0.00    +0.000 OA
ATOM     30  H   UNL     1      46.405   3.747   5.233  0.00  0.00    +0.000 HD
ATOM     31  H   UNL     1      47.901   3.033   4.634  0.00  0.00    +0.000 HD
ENDBRANCH  24  27
ENDBRANCH  20  21
ENDBRANCH  19  20
ENDBRANCH  18  19
ENDBRANCH   3  18
TORSDOF 9
ENDMDL
MODEL 3
REMARK VINA RESULT:    -6.893      2.751      4.861
REMARK INTER + INTRA:         -11.789
REMARK INTER:                 -10.716
REMARK INTRA:                  -1.073
REMARK UNBOUND:                -1.270
REMARK  Name = 
REMARK  11 active torsions:
REMARK  status: ('A' for Active; 'I' for Inactive)
REMARK    1  A    between atoms: C_1  and  C_2
REMARK    2  A    between atoms: C_2  and  C_3
REMARK    3  A    between atoms: C_2  and  O_4
REMARK    4  A    between atoms: O_4  and  C_5
REMARK    5  A    between atoms: C_7  and  C_8
REMARK    6  A    between atoms: C_8  and  C_9
REMARK    7  A    between atoms: C_9  and  O_10
REMARK    8  A    between atoms: O_10  and  C_11
REMARK    9  A    between atoms: C_14  and  C_15
REMARK   10  A    between atoms: C_21  and  N_22
REMARK   11  A    between atoms: N_22  and  C_23
REMARK                            x       y       z     vdW  Elec       q    Type
REMARK                         _______ _______ _______ _____ _____    ______ ____
ROOT
ATOM      1  C   UNL     1      47.446   7.346  13.451  0.00  0.00    +0.000 A 
ATOM      2  C   UNL     1      46.885   6.120  13.116  0.00  0.00    +0.000 A 
ATOM      3  C   UNL     1      45.621   6.107  12.536  0.00  0.00    +0.000 A 
ATOM      4  C   UNL     1      44.988   7.335  12.326  0.00  0.00    +0.000 A 
ATOM      5  C   UNL     1      45.565   8.512  12.804  0.00  0.00    +0.000 A 
ATOM      6  N   UNL     1      46.801   8.528  13.338  0.00  0.00    +0.000 NA
ENDROOT
BRANCH   5   7
ATOM      7  N   UNL     1      44.896   9.730  12.775  0.00  0.00    +0.000 N 
ATOM      8  H   UNL     1      44.232   9.731  13.546  0.00  0.00    +0.000 HD
BRANCH   7   9
ATOM      9  C   UNL     1      44.434  10.286  11.498  0.00  0.00    +0.000 C 
ATOM     10  C   UNL     1      45.378  11.364  11.007  0.00  0.00    +0.000 C 
ATOM     11  C   UNL     1      44.772  12.649  11.528  0.00  0.00    +0.000 C 
ATOM     12  O   UNL     1      43.367  12.438  11.674  0.00  0.00    +0.000 OA
ATOM     13  C   UNL     1      43.100  11.032  11.577  0.00  0.00    +0.000 C 
ENDBRANCH   7   9
ENDBRANCH   5   7
BRANCH   1  14
ATOM     14  O   UNL     1      48.767   7.298  13.847  0.00  0.00    +0.000 OA
BRANCH  14  16
ATOM     15  C   UNL     1      50.965   8.136  13.972  0.00  0.00    +0.000 C 
ATOM     16  C   UNL     1      49.677   8.151  13.146  0.00  0.00    +0.000 C 
ATOM     17  C   UNL     1      49.978   7.630  11.742  0.00  0.00    +0.000 C 
ENDBRANCH  14  16
ENDBRANCH   1  14
BRANCH   3  18
ATOM     18  C   UNL     1      44.898   4.821  12.223  0.00  0.00    +0.000 C 
BRANCH  18  19
ATOM     19  C   UNL     1      44.024   5.000  10.979  0.00  0.00    +0.000 C 
BRANCH  19  20
ATOM     20  O   UNL     1      43.743   3.735  10.373  0.00  0.00    +0.000 OA
BRANCH  20  21
ATOM     21  C   UNL     1      44.646   3.332   9.429  0.00  0.00    +0.000 A 
ATOM     22  C   UNL     1      45.104   2.049   9.204  0.00  0.00    +0.000 A 
ATOM     23  N   UNL     1      46.000   1.713   8.251  0.00  0.00    +0.000 NA
ATOM     24  C   UNL     1      46.451   2.743   7.491  0.00  0.00    +0.000 A 
ATOM     25  N   UNL     1      46.081   4.028   7.616  0.00  0.00    +0.000 NA
ATOM     26  C   UNL     1      45.181   4.288   8.589  0.00  0.00    +0.000 A 
BRANCH  24  27
ATOM     27  C   UNL     1      47.458   2.370   6.425  0.00  0.00    +0.000 C 
ATOM     28  N   UNL     1      47.039   2.554   5.129  0.00  0.00    +0.000 N 
ATOM     29  O   UNL     1      48.575   1.929   6.666  0.00  0.00    +0.000 OA
ATOM     30  H   UNL     1      46.109   2.910   4.943  0.00  0.00    +0.000 HD
ATOM     31  H   UNL     1      47.667   2.315   4.374  0.00  0.00    +0.000 HD
ENDBRANCH  24  27
ENDBRANCH  20  21
ENDBRANCH  19  20
ENDBRANCH  18  19
ENDBRANCH   3  18
TORSDOF 9
ENDMDL
MODEL 4
REMARK VINA RESULT:    -6.520      1.593      1.933
REMARK INTER + INTRA:         -11.221
REMARK INTER:                 -10.272
REMARK INTRA:                  -0.949
REMARK UNBOUND:                -1.270
REMARK  Name = 
REMARK  11 active torsions:
REMARK  status: ('A' for Active; 'I' for Inactive)
REMARK    1  A    between atoms: C_1  and  C_2
REMARK    2  A    between atoms: C_2  and  C_3
REMARK    3  A    between atoms: C_2  and  O_4
REMARK    4  A    between atoms: O_4  and  C_5
REMARK    5  A    between atoms: C_7  and  C_8
REMARK    6  A    between atoms: C_8  and  C_9
REMARK    7  A    between atoms: C_9  and  O_10
REMARK    8  A    between atoms: O_10  and  C_11
REMARK    9  A    between atoms: C_14  and  C_15
REMARK   10  A    between atoms: C_21  and  N_22
REMARK   11  A    between atoms: N_22  and  C_23
REMARK                            x       y       z     vdW  Elec       q    Type
REMARK                         _______ _______ _______ _____ _____    ______ ____
ROOT
ATOM      1  C   UNL     1      48.666   7.158  12.212  0.00  0.00    +0.000 A 
ATOM      2  C   UNL     1      47.494   7.102  11.470  0.00  0.00    +0.000 A 
ATOM      3  C   UNL     1      46.346   6.610  12.082  0.00  0.00    +0.000 A 
ATOM      4  C   UNL     1      46.443   6.197  13.413  0.00  0.00    +0.000 A 
ATOM      5  C   UNL     1      47.685   6.169  14.049  0.00  0.00    +0.000 A 
ATOM      6  N   UNL     1      48.790   6.674  13.467  0.00  0.00    +0.000 NA
ENDROOT
BRANCH   5   7
ATOM      7  N   UNL     1      47.861   5.606  15.307  0.00  0.00    +0.000 N 
ATOM      8  H   UNL     1      46.945   5.552  15.748  0.00  0.00    +0.000 HD
BRANCH   7   9
ATOM      9  C   UNL     1      48.982   6.032  16.153  0.00  0.00    +0.000 C 
ATOM     10  C   UNL     1      49.269   5.001  17.225  0.00  0.00    +0.000 C 
ATOM     11  C   UNL     1      48.478   5.482  18.421  0.00  0.00    +0.000 C 
ATOM     12  O   UNL     1      48.335   6.898  18.306  0.00  0.00    +0.000 OA
ATOM     13  C   UNL     1      48.710   7.292  16.979  0.00  0.00    +0.000 C 
ENDBRANCH   7   9
ENDBRANCH   5   7
BRANCH   1  14
ATOM     14  O   UNL     1      49.712   7.826  11.607  0.00  0.00    +0.000 OA
BRANCH  14  16
ATOM     15  C   UNL     1      51.553   9.250  11.973  0.00  0.00    +0.000 C 
ATOM     16  C   UNL     1      50.037   9.116  12.132  0.00  0.00    +0.000 C 
ATOM     17  C   UNL     1      49.353  10.237  11.350  0.00  0.00    +0.000 C 
ENDBRANCH  14  16
ENDBRANCH   1  14
BRANCH   3  18
ATOM     18  C   UNL     1      45.053   6.428  11.327  0.00  0.00    +0.000 C 
BRANCH  18  19
ATOM     19  C   UNL     1      44.642   4.953  11.340  0.00  0.00    +0.000 C 
BRANCH  19  20
ATOM     20  O   UNL     1      44.069   4.577  10.083  0.00  0.00    +0.000 OA
BRANCH  20  21
ATOM     21  C   UNL     1      44.880   3.826   9.279  0.00  0.00    +0.000 A 
ATOM     22  C   UNL     1      45.014   2.453   9.276  0.00  0.00    +0.000 A 
ATOM     23  N   UNL     1      45.835   1.766   8.452  0.00  0.00    +0.000 NA
ATOM     24  C   UNL     1      46.556   2.525   7.588  0.00  0.00    +0.000 A 
ATOM     25  N   UNL     1      46.511   3.864   7.499  0.00  0.00    +0.000 NA
ATOM     26  C   UNL     1      45.668   4.482   8.353  0.00  0.00    +0.000 A 
BRANCH  24  27
ATOM     27  C   UNL     1      47.480   1.759   6.666  0.00  0.00    +0.000 C 
ATOM     28  N   UNL     1      48.592   2.446   6.244  0.00  0.00    +0.000 N 
ATOM     29  O   UNL     1      47.277   0.609   6.300  0.00  0.00    +0.000 OA
ATOM     30  H   UNL     1      48.743   3.401   6.547  0.00  0.00    +0.000 HD
ATOM     31  H   UNL     1      49.242   1.988   5.620  0.00  0.00    +0.000 HD
ENDBRANCH  24  27
ENDBRANCH  20  21
ENDBRANCH  19  20
ENDBRANCH  18  19
ENDBRANCH   3  18
TORSDOF 9
ENDMDL
MODEL 5
REMARK VINA RESULT:    -6.374      2.819      7.569
REMARK INTER + INTRA:         -10.998
REMARK INTER:                  -9.748
REMARK INTRA:                  -1.249
REMARK UNBOUND:                -1.270
REMARK  Name = 
REMARK  11 active torsions:
REMARK  status: ('A' for Active; 'I' for Inactive)
REMARK    1  A    between atoms: C_1  and  C_2
REMARK    2  A    between atoms: C_2  and  C_3
REMARK    3  A    between atoms: C_2  and  O_4
REMARK    4  A    between atoms: O_4  and  C_5
REMARK    5  A    between atoms: C_7  and  C_8
REMARK    6  A    between atoms: C_8  and  C_9
REMARK    7  A    between atoms: C_9  and  O_10
REMARK    8  A    between atoms: O_10  and  C_11
REMARK    9  A    between atoms: C_14  and  C_15
REMARK   10  A    between atoms: C_21  and  N_22
REMARK   11  A    between atoms: N_22  and  C_23
REMARK                            x       y       z     vdW  Elec       q    Type
REMARK                         _______ _______ _______ _____ _____    ______ ____
ROOT
ATOM      1  C   UNL     1      45.464   8.878  12.190  0.00  0.00    +0.000 A 
ATOM      2  C   UNL     1      46.802   9.217  12.343  0.00  0.00    +0.000 A 
ATOM      3  C   UNL     1      47.761   8.230  12.149  0.00  0.00    +0.000 A 
ATOM      4  C   UNL     1      47.319   6.948  11.812  0.00  0.00    +0.000 A 
ATOM      5  C   UNL     1      45.955   6.659  11.799  0.00  0.00    +0.000 A 
ATOM      6  N   UNL     1      45.025   7.621  11.957  0.00  0.00    +0.000 NA
ENDROOT
BRANCH   5   7
ATOM      7  N   UNL     1      45.473   5.365  11.643  0.00  0.00    +0.000 N 
ATOM      8  H   UNL     1      46.184   4.832  11.146  0.00  0.00    +0.000 HD
BRANCH   7   9
ATOM      9  C   UNL     1      44.078   5.143  11.244  0.00  0.00    +0.000 C 
ATOM     10  C   UNL     1      43.323   4.395  12.323  0.00  0.00    +0.000 C 
ATOM     11  C   UNL     1      43.434   2.943  11.913  0.00  0.00    +0.000 C 
ATOM     12  O   UNL     1      43.597   2.905  10.495  0.00  0.00    +0.000 OA
ATOM     13  C   UNL     1      43.903   4.227  10.031  0.00  0.00    +0.000 C 
ENDBRANCH   7   9
ENDBRANCH   5   7
BRANCH   1  14
ATOM     14  O   UNL     1      44.582   9.939  12.213  0.00  0.00    +0.000 OA
BRANCH  14  16
ATOM     15  C   UNL     1      42.879  10.179  10.603  0.00  0.00    +0.000 C 
ATOM     16  C   UNL     1      44.313  10.575  10.960  0.00  0.00    +0.000 C 
ATOM     17  C   UNL     1      44.398  12.097  11.065  0.00  0.00    +0.000 C 
ENDBRANCH  14  16
ENDBRANCH   1  14
BRANCH   3  18
ATOM     18  C   UNL     1      49.230   8.486  12.383  0.00  0.00    +0.000 C 
BRANCH  18  19
ATOM     19  C   UNL     1      49.752   7.564  13.488  0.00  0.00    +0.000 C 
BRANCH  19  20
ATOM     20  O   UNL     1      49.211   7.941  14.758  0.00  0.00    +0.000 OA
BRANCH  20  21
ATOM     21  C   UNL     1      48.821   6.900  15.552  0.00  0.00    +0.000 A 
ATOM     22  C   UNL     1      48.937   6.805  16.924  0.00  0.00    +0.000 A 
ATOM     23  N   UNL     1      48.530   5.746  17.656  0.00  0.00    +0.000 NA
ATOM     24  C   UNL     1      47.977   4.730  16.946  0.00  0.00    +0.000 A 
ATOM     25  N   UNL     1      47.813   4.706  15.613  0.00  0.00    +0.000 NA
ATOM     26  C   UNL     1      48.242   5.800  14.948  0.00  0.00    +0.000 A 
BRANCH  24  27
ATOM     27  C   UNL     1      47.523   3.539  17.762  0.00  0.00    +0.000 C 
ATOM     28  N   UNL     1      48.240   3.304  18.909  0.00  0.00    +0.000 N 
ATOM     29  O   UNL     1      46.588   2.813  17.446  0.00  0.00    +0.000 OA
ATOM     30  H   UNL     1      49.018   3.906  19.154  0.00  0.00    +0.000 HD
ATOM     31  H   UNL     1      47.987   2.517  19.491  0.00  0.00    +0.000 HD
ENDBRANCH  24  27
ENDBRANCH  20  21
ENDBRANCH  19  20
ENDBRANCH  18  19
ENDBRANCH   3  18
TORSDOF 9
ENDMDL
MODEL 6
REMARK VINA RESULT:    -6.072      3.498      8.360
REMARK INTER + INTRA:         -10.536
REMARK INTER:                  -9.198
REMARK INTRA:                  -1.338
REMARK UNBOUND:                -1.270
REMARK  Name = 
REMARK  11 active torsions:
REMARK  status: ('A' for Active; 'I' for Inactive)
REMARK    1  A    between atoms: C_1  and  C_2
REMARK    2  A    between atoms: C_2  and  C_3
REMARK    3  A    between atoms: C_2  and  O_4
REMARK    4  A    between atoms: O_4  and  C_5
REMARK    5  A    between atoms: C_7  and  C_8
REMARK    6  A    between atoms: C_8  and  C_9
REMARK    7  A    between atoms: C_9  and  O_10
REMARK    8  A    between atoms: O_10  and  C_11
REMARK    9  A    between atoms: C_14  and  C_15
REMARK   10  A    between atoms: C_21  and  N_22
REMARK   11  A    between atoms: N_22  and  C_23
REMARK                            x       y       z     vdW  Elec       q    Type
REMARK                         _______ _______ _______ _____ _____    ______ ____
ROOT
ATOM      1  C   UNL     1      45.365   6.827  11.622  0.00  0.00    +0.000 A 
ATOM      2  C   UNL     1      46.750   6.879  11.705  0.00  0.00    +0.000 A 
ATOM      3  C   UNL     1      47.346   8.081  12.068  0.00  0.00    +0.000 A 
ATOM      4  C   UNL     1      46.511   9.172  12.326  0.00  0.00    +0.000 A 
ATOM      5  C   UNL     1      45.139   9.072  12.099  0.00  0.00    +0.000 A 
ATOM      6  N   UNL     1      44.557   7.899  11.777  0.00  0.00    +0.000 NA
ENDROOT
BRANCH   5   7
ATOM      7  N   UNL     1      44.293  10.172  12.172  0.00  0.00    +0.000 N 
ATOM      8  H   UNL     1      44.014  10.278  13.145  0.00  0.00    +0.000 HD
BRANCH   7   9
ATOM      9  C   UNL     1      43.251  10.367  11.158  0.00  0.00    +0.000 C 
ATOM     10  C   UNL     1      43.829  10.993   9.905  0.00  0.00    +0.000 C 
ATOM     11  C   UNL     1      43.604  12.477  10.097  0.00  0.00    +0.000 C 
ATOM     12  O   UNL     1      42.471  12.637  10.950  0.00  0.00    +0.000 OA
ATOM     13  C   UNL     1      42.164  11.370  11.549  0.00  0.00    +0.000 C 
ENDBRANCH   7   9
ENDBRANCH   5   7
BRANCH   1  14
ATOM     14  O   UNL     1      44.834   5.566  11.441  0.00  0.00    +0.000 OA
BRANCH  14  16
ATOM     15  C   UNL     1      43.236   4.601  12.877  0.00  0.00    +0.000 C 
ATOM     16  C   UNL     1      44.735   4.740  12.604  0.00  0.00    +0.000 C 
ATOM     17  C   UNL     1      45.330   3.353  12.370  0.00  0.00    +0.000 C 
ENDBRANCH  14  16
ENDBRANCH   1  14
BRANCH   3  18
ATOM     18  C   UNL     1      48.845   8.254  12.096  0.00  0.00    +0.000 C 
BRANCH  18  19
ATOM     19  C   UNL     1      49.477   7.197  13.005  0.00  0.00    +0.000 C 
BRANCH  19  20
ATOM     20  O   UNL     1      49.268   7.525  14.382  0.00  0.00    +0.000 OA
BRANCH  20  21
ATOM     21  C   UNL     1      48.800   6.500  15.156  0.00  0.00    +0.000 A 
ATOM     22  C   UNL     1      47.776   5.625  14.855  0.00  0.00    +0.000 A 
ATOM     23  N   UNL     1      47.359   4.627  15.664  0.00  0.00    +0.000 NA
ATOM     24  C   UNL     1      48.024   4.522  16.843  0.00  0.00    +0.000 A 
ATOM     25  N   UNL     1      49.031   5.313  17.246  0.00  0.00    +0.000 NA
ATOM     26  C   UNL     1      49.395   6.287  16.385  0.00  0.00    +0.000 A 
BRANCH  24  27
ATOM     27  C   UNL     1      47.556   3.407  17.754  0.00  0.00    +0.000 C 
ATOM     28  N   UNL     1      48.312   3.216  18.885  0.00  0.00    +0.000 N 
ATOM     29  O   UNL     1      46.579   2.705  17.525  0.00  0.00    +0.000 OA
ATOM     30  H   UNL     1      49.123   3.798  19.057  0.00  0.00    +0.000 HD
ATOM     31  H   UNL     1      48.051   2.480  19.527  0.00  0.00    +0.000 HD
ENDBRANCH  24  27
ENDBRANCH  20  21
ENDBRANCH  19  20
ENDBRANCH  18  19
ENDBRANCH   3  18
TORSDOF 9
ENDMDL
MODEL 7
REMARK VINA RESULT:    -6.003      3.495      7.218
REMARK INTER + INTRA:         -10.431
REMARK INTER:                  -9.688
REMARK INTRA:                  -0.743
REMARK UNBOUND:                -1.270
REMARK  Name = 
REMARK  11 active torsions:
REMARK  status: ('A' for Active; 'I' for Inactive)
REMARK    1  A    between atoms: C_1  and  C_2
REMARK    2  A    between atoms: C_2  and  C_3
REMARK    3  A    between atoms: C_2  and  O_4
REMARK    4  A    between atoms: O_4  and  C_5
REMARK    5  A    between atoms: C_7  and  C_8
REMARK    6  A    between atoms: C_8  and  C_9
REMARK    7  A    between atoms: C_9  and  O_10
REMARK    8  A    between atoms: O_10  and  C_11
REMARK    9  A    between atoms: C_14  and  C_15
REMARK   10  A    between atoms: C_21  and  N_22
REMARK   11  A    between atoms: N_22  and  C_23
REMARK                            x       y       z     vdW  Elec       q    Type
REMARK                         _______ _______ _______ _____ _____    ______ ____
ROOT
ATOM      1  C   UNL     1      47.143   4.068  14.670  0.00  0.00    +0.000 A 
ATOM      2  C   UNL     1      47.781   5.302  14.687  0.00  0.00    +0.000 A 
ATOM      3  C   UNL     1      47.479   6.216  13.685  0.00  0.00    +0.000 A 
ATOM      4  C   UNL     1      46.549   5.836  12.713  0.00  0.00    +0.000 A 
ATOM      5  C   UNL     1      46.048   4.535  12.695  0.00  0.00    +0.000 A 
ATOM      6  N   UNL     1      46.316   3.658  13.683  0.00  0.00    +0.000 NA
ENDROOT
BRANCH   5   7
ATOM      7  N   UNL     1      45.261   4.058  11.654  0.00  0.00    +0.000 N 
ATOM      8  H   UNL     1      45.695   3.205  11.309  0.00  0.00    +0.000 HD
BRANCH   7   9
ATOM      9  C   UNL     1      44.729   4.986  10.649  0.00  0.00    +0.000 C 
ATOM     10  C   UNL     1      43.798   4.269   9.694  0.00  0.00    +0.000 C 
ATOM     11  C   UNL     1      44.688   3.879   8.534  0.00  0.00    +0.000 C 
ATOM     12  O   UNL     1      45.767   4.813   8.482  0.00  0.00    +0.000 OA
ATOM     13  C   UNL     1      45.782   5.566   9.702  0.00  0.00    +0.000 C 
ENDBRANCH   7   9
ENDBRANCH   5   7
BRANCH   1  14
ATOM     14  O   UNL     1      47.346   3.286  15.789  0.00  0.00    +0.000 OA
BRANCH  14  16
ATOM     15  C   UNL     1      47.364   4.226  17.949  0.00  0.00    +0.000 C 
ATOM     16  C   UNL     1      48.247   3.800  16.774  0.00  0.00    +0.000 C 
ATOM     17  C   UNL     1      49.234   2.737  17.253  0.00  0.00    +0.000 C 
ENDBRANCH  14  16
ENDBRANCH   1  14
BRANCH   3  18
ATOM     18  C   UNL     1      48.188   7.543  13.573  0.00  0.00    +0.000 C 
BRANCH  18  19
ATOM     19  C   UNL     1      47.733   8.276  12.308  0.00  0.00    +0.000 C 
BRANCH  19  20
ATOM     20  O   UNL     1      47.175   9.552  12.637  0.00  0.00    +0.000 OA
BRANCH  20  21
ATOM     21  C   UNL     1      45.947   9.803  12.091  0.00  0.00    +0.000 A 
ATOM     22  C   UNL     1      45.380  11.037  11.841  0.00  0.00    +0.000 A 
ATOM     23  N   UNL     1      44.158  11.221  11.296  0.00  0.00    +0.000 NA
ATOM     24  C   UNL     1      43.482  10.084  10.993  0.00  0.00    +0.000 A 
ATOM     25  N   UNL     1      43.928   8.832  11.191  0.00  0.00    +0.000 NA
ATOM     26  C   UNL     1      45.158   8.726  11.738  0.00  0.00    +0.000 A 
BRANCH  24  27
ATOM     27  C   UNL     1      42.111  10.286  10.386  0.00  0.00    +0.000 C 
ATOM     28  N   UNL     1      41.078   9.664  11.044  0.00  0.00    +0.000 N 
ATOM     29  O   UNL     1      41.903  10.949   9.377  0.00  0.00    +0.000 OA
ATOM     30  H   UNL     1      41.265   9.110  11.872  0.00  0.00    +0.000 HD
ATOM     31  H   UNL     1      40.140   9.757  10.679  0.00  0.00    +0.000 HD
ENDBRANCH  24  27
ENDBRANCH  20  21
ENDBRANCH  19  20
ENDBRANCH  18  19
ENDBRANCH   3  18
TORSDOF 9
ENDMDL
MODEL 8
REMARK VINA RESULT:    -5.993      3.813      6.296
REMARK INTER + INTRA:         -10.415
REMARK INTER:                  -9.373
REMARK INTRA:                  -1.042
REMARK UNBOUND:                -1.270
REMARK  Name = 
REMARK  11 active torsions:
REMARK  status: ('A' for Active; 'I' for Inactive)
REMARK    1  A    between atoms: C_1  and  C_2
REMARK    2  A    between atoms: C_2  and  C_3
REMARK    3  A    between atoms: C_2  and  O_4
REMARK    4  A    between atoms: O_4  and  C_5
REMARK    5  A    between atoms: C_7  and  C_8
REMARK    6  A    between atoms: C_8  and  C_9
REMARK    7  A    between atoms: C_9  and  O_10
REMARK    8  A    between atoms: O_10  and  C_11
REMARK    9  A    between atoms: C_14  and  C_15
REMARK   10  A    between atoms: C_21  and  N_22
REMARK   11  A    between atoms: N_22  and  C_23
REMARK                            x       y       z     vdW  Elec       q    Type
REMARK                         _______ _______ _______ _____ _____    ______ ____
ROOT
ATOM      1  C   UNL     1      45.585   4.875  13.304  0.00  0.00    +0.000 A 
ATOM      2  C   UNL     1      45.933   5.970  12.525  0.00  0.00    +0.000 A 
ATOM      3  C   UNL     1      47.088   6.672  12.849  0.00  0.00    +0.000 A 
ATOM      4  C   UNL     1      47.832   6.232  13.946  0.00  0.00    +0.000 A 
ATOM      5  C   UNL     1      47.349   5.201  14.752  0.00  0.00    +0.000 A 
ATOM      6  N   UNL     1      46.246   4.501  14.421  0.00  0.00    +0.000 NA
ENDROOT
BRANCH   5   7
ATOM      7  N   UNL     1      47.961   4.845  15.948  0.00  0.00    +0.000 N 
ATOM      8  H   UNL     1      48.832   4.372  15.717  0.00  0.00    +0.000 HD
BRANCH   7   9
ATOM      9  C   UNL     1      47.164   4.273  17.040  0.00  0.00    +0.000 C 
ATOM     10  C   UNL     1      47.331   5.082  18.309  0.00  0.00    +0.000 C 
ATOM     11  C   UNL     1      48.444   4.376  19.053  0.00  0.00    +0.000 C 
ATOM     12  O   UNL     1      48.436   3.007  18.647  0.00  0.00    +0.000 OA
ATOM     13  C   UNL     1      47.607   2.877  17.484  0.00  0.00    +0.000 C 
ENDBRANCH   7   9
ENDBRANCH   5   7
BRANCH   1  14
ATOM     14  O   UNL     1      44.538   4.118  12.818  0.00  0.00    +0.000 OA
BRANCH  14  16
ATOM     15  C   UNL     1      43.888   3.267  10.719  0.00  0.00    +0.000 C 
ATOM     16  C   UNL     1      43.970   4.534  11.573  0.00  0.00    +0.000 C 
ATOM     17  C   UNL     1      42.565   5.107  11.751  0.00  0.00    +0.000 C 
ENDBRANCH  14  16
ENDBRANCH   1  14
BRANCH   3  18
ATOM     18  C   UNL     1      47.494   7.927  12.115  0.00  0.00    +0.000 C 
BRANCH  18  19
ATOM     19  C   UNL     1      46.815   9.145  12.747  0.00  0.00    +0.000 C 
BRANCH  19  20
ATOM     20  O   UNL     1      46.444  10.094  11.742  0.00  0.00    +0.000 OA
BRANCH  20  21
ATOM     21  C   UNL     1      45.108  10.139  11.455  0.00  0.00    +0.000 A 
ATOM     22  C   UNL     1      44.331   9.128  10.929  0.00  0.00    +0.000 A 
ATOM     23  N   UNL     1      43.010   9.234  10.668  0.00  0.00    +0.000 NA
ATOM     24  C   UNL     1      42.457  10.438  10.961  0.00  0.00    +0.000 A 
ATOM     25  N   UNL     1      43.109  11.495  11.473  0.00  0.00    +0.000 NA
ATOM     26  C   UNL     1      44.427  11.314  11.708  0.00  0.00    +0.000 A 
BRANCH  24  27
ATOM     27  C   UNL     1      40.978  10.562  10.666  0.00  0.00    +0.000 C 
ATOM     28  N   UNL     1      40.160   9.739  11.401  0.00  0.00    +0.000 N 
ATOM     29  O   UNL     1      40.511  11.330   9.834  0.00  0.00    +0.000 OA
ATOM     30  H   UNL     1      40.560   9.101  12.080  0.00  0.00    +0.000 HD
ATOM     31  H   UNL     1      39.163   9.772  11.242  0.00  0.00    +0.000 HD
ENDBRANCH  24  27
ENDBRANCH  20  21
ENDBRANCH  19  20
ENDBRANCH  18  19
ENDBRANCH   3  18
TORSDOF 9
ENDMDL
MODEL 9
REMARK VINA RESULT:    -5.652      3.201      8.445
REMARK INTER + INTRA:          -9.895
REMARK INTER:                  -8.427
REMARK INTRA:                  -1.468
REMARK UNBOUND:                -1.270
REMARK  Name = 
REMARK  11 active torsions:
REMARK  status: ('A' for Active; 'I' for Inactive)
REMARK    1  A    between atoms: C_1  and  C_2
REMARK    2  A    between atoms: C_2  and  C_3
REMARK    3  A    between atoms: C_2  and  O_4
REMARK    4  A    between atoms: O_4  and  C_5
REMARK    5  A    between atoms: C_7  and  C_8
REMARK    6  A    between atoms: C_8  and  C_9
REMARK    7  A    between atoms: C_9  and  O_10
REMARK    8  A    between atoms: O_10  and  C_11
REMARK    9  A    between atoms: C_14  and  C_15
REMARK   10  A    between atoms: C_21  and  N_22
REMARK   11  A    between atoms: N_22  and  C_23
REMARK                            x       y       z     vdW  Elec       q    Type
REMARK                         _______ _______ _______ _____ _____    ______ ____
ROOT
ATOM      1  C   UNL     1      46.958   4.416  14.267  0.00  0.00    +0.000 A 
ATOM      2  C   UNL     1      48.038   5.242  13.984  0.00  0.00    +0.000 A 
ATOM      3  C   UNL     1      47.797   6.446  13.332  0.00  0.00    +0.000 A 
ATOM      4  C   UNL     1      46.476   6.753  12.997  0.00  0.00    +0.000 A 
ATOM      5  C   UNL     1      45.465   5.815  13.204  0.00  0.00    +0.000 A 
ATOM      6  N   UNL     1      45.692   4.662  13.863  0.00  0.00    +0.000 NA
ENDROOT
BRANCH   5   7
ATOM      7  N   UNL     1      44.171   6.002  12.731  0.00  0.00    +0.000 N 
ATOM      8  H   UNL     1      43.533   5.763  13.486  0.00  0.00    +0.000 HD
BRANCH   7   9
ATOM      9  C   UNL     1      43.809   5.547  11.384  0.00  0.00    +0.000 C 
ATOM     10  C   UNL     1      42.777   4.440  11.450  0.00  0.00    +0.000 C 
ATOM     11  C   UNL     1      43.597   3.169  11.414  0.00  0.00    +0.000 C 
ATOM     12  O   UNL     1      44.817   3.459  10.730  0.00  0.00    +0.000 OA
ATOM     13  C   UNL     1      44.949   4.882  10.610  0.00  0.00    +0.000 C 
ENDBRANCH   7   9
ENDBRANCH   5   7
BRANCH   1  14
ATOM     14  O   UNL     1      47.242   3.334  15.075  0.00  0.00    +0.000 OA
BRANCH  14  16
ATOM     15  C   UNL     1      46.991   3.858  17.358  0.00  0.00    +0.000 C 
ATOM     16  C   UNL     1      48.014   3.597  16.250  0.00  0.00    +0.000 C 
ATOM     17  C   UNL     1      48.879   2.401  16.643  0.00  0.00    +0.000 C 
ENDBRANCH  14  16
ENDBRANCH   1  14
BRANCH   3  18
ATOM     18  C   UNL     1      48.918   7.361  12.905  0.00  0.00    +0.000 C 
BRANCH  18  19
ATOM     19  C   UNL     1      49.349   8.245  14.079  0.00  0.00    +0.000 C 
BRANCH  19  20
ATOM     20  O   UNL     1      50.484   7.682  14.745  0.00  0.00    +0.000 OA
BRANCH  20  21
ATOM     21  C   UNL     1      50.228   7.159  15.981  0.00  0.00    +0.000 A 
ATOM     22  C   UNL     1      50.963   6.205  16.654  0.00  0.00    +0.000 A 
ATOM     23  N   UNL     1      50.659   5.727  17.880  0.00  0.00    +0.000 NA
ATOM     24  C   UNL     1      49.543   6.253  18.445  0.00  0.00    +0.000 A 
ATOM     25  N   UNL     1      48.748   7.182  17.890  0.00  0.00    +0.000 NA
ATOM     26  C   UNL     1      49.116   7.613  16.664  0.00  0.00    +0.000 A 
BRANCH  24  27
ATOM     27  C   UNL     1      49.196   5.717  19.817  0.00  0.00    +0.000 C 
ATOM     28  N   UNL     1      48.122   6.317  20.429  0.00  0.00    +0.000 N 
ATOM     29  O   UNL     1      49.811   4.816  20.372  0.00  0.00    +0.000 OA
ATOM     30  H   UNL     1      47.628   7.069  19.964  0.00  0.00    +0.000 HD
ATOM     31  H   UNL     1      47.849   6.006  21.351  0.00  0.00    +0.000 HD
ENDBRANCH  24  27
ENDBRANCH  20  21
ENDBRANCH  19  20
ENDBRANCH  18  19
ENDBRANCH   3  18
TORSDOF 9
ENDMDL
