MODEL 1
REMARK VINA RESULT:    -8.470      0.000      0.000
REMARK INTER + INTRA:         -10.552
REMARK INTER:                 -10.450
REMARK INTRA:                  -0.102
REMARK UNBOUND:                -0.102
REMARK  Name = 
REMARK  4 active torsions:
REMARK  status: ('A' for Active; 'I' for Inactive)
REMARK    1  A    between atoms: C_5  and  C_6
REMARK    2  A    between atoms: C_6  and  N_7
REMARK    3  A    between atoms: C_11  and  C_12
REMARK    4  A    between atoms: C_19  and  C_20
REMARK                            x       y       z     vdW  Elec       q    Type
REMARK                         _______ _______ _______ _____ _____    ______ ____
ROOT
ATOM      1  F   UNL     1      47.976   6.025  14.224  0.00  0.00    +0.000 F 
ATOM      2  C   UNL     1      46.887   5.769  13.488  0.00  0.00    +0.000 A 
ATOM      3  C   UNL     1      46.270   4.529  13.645  0.00  0.00    +0.000 A 
ATOM      4  C   UNL     1      45.155   4.217  12.873  0.00  0.00    +0.000 A 
ATOM      5  C   UNL     1      44.638   5.153  11.964  0.00  0.00    +0.000 A 
ATOM      6  C   UNL     1      45.254   6.413  11.847  0.00  0.00    +0.000 A 
ATOM      7  C   UNL     1      46.417   6.719  12.570  0.00  0.00    +0.000 A 
ENDROOT
BRANCH   7   8
ATOM      8  C   UNL     1      47.233   7.983  12.333  0.00  0.00    +0.000 C 
ATOM      9  C   UNL     1      48.599   7.735  11.677  0.00  0.00    +0.000 C 
ATOM     10  C   UNL     1      49.748   7.606  12.670  0.00  0.00    +0.000 C 
ATOM     11  N   UNL     1      49.783   8.736  13.594  0.00  0.00    +0.000 NA
ATOM     12  C   UNL     1      48.575   8.759  14.410  0.00  0.00    +0.000 C 
ATOM     13  C   UNL     1      47.307   8.902  13.569  0.00  0.00    +0.000 C 
ATOM     14  H   UNL     1      49.854   9.607  13.064  0.00  0.00    +0.000 HD
ENDBRANCH   7   8
BRANCH   5  15
ATOM     15  C   UNL     1      43.476   4.781  11.071  0.00  0.00    +0.000 C 
BRANCH  15  16
ATOM     16  N   UNL     1      43.828   4.940   9.673  0.00  0.00    +0.000 N 
ATOM     17  C   UNL     1      44.657   3.985   9.102  0.00  0.00    +0.000 A 
ATOM     18  C   UNL     1      44.605   2.621   9.396  0.00  0.00    +0.000 A 
ATOM     19  N   UNL     1      45.390   1.682   8.808  0.00  0.00    +0.000 NA
ATOM     20  C   UNL     1      46.249   2.141   7.858  0.00  0.00    +0.000 A 
ATOM     21  C   UNL     1      46.295   3.495   7.550  0.00  0.00    +0.000 A 
ATOM     22  N   UNL     1      45.518   4.428   8.163  0.00  0.00    +0.000 NA
ATOM     23  H   UNL     1      44.172   5.860   9.409  0.00  0.00    +0.000 HD
BRANCH  20  24
ATOM     24  C   UNL     1      47.155   1.190   7.109  0.00  0.00    +0.000 C 
ATOM     25  F   UNL     1      48.476   1.525   7.148  0.00  0.00    +0.000 F 
ATOM     26  F   UNL     1      47.081  -0.086   7.585  0.00  0.00    +0.000 F 
ATOM     27  F   UNL     1      46.837   1.101   5.784  0.00  0.00    +0.000 F 
ENDBRANCH  20  24
ENDBRANCH  15  16
ENDBRANCH   5  15
TORSDOF 4
ENDMDL
MODEL 2
REMARK VINA RESULT:    -7.675      1.156      1.871
REMARK INTER + INTRA:          -9.572
REMARK INTER:                  -9.542
REMARK INTRA:                  -0.029
REMARK UNBOUND:                -0.102
REMARK  Name = 
REMARK  4 active torsions:
REMARK  status: ('A' for Active; 'I' for Inactive)
REMARK    1  A    between atoms: C_5  and  C_6
REMARK    2  A    between atoms: C_6  and  N_7
REMARK    3  A    between atoms: C_11  and  C_12
REMARK    4  A    between atoms: C_19  and  C_20
REMARK                            x       y       z     vdW  Elec       q    Type
REMARK                         _______ _______ _______ _____ _____    ______ ____
ROOT
ATOM      1  F   UNL     1      47.225   9.140  13.099  0.00  0.00    +0.000 F 
ATOM      2  C   UNL     1      46.455   8.174  12.581  0.00  0.00    +0.000 A 
ATOM      3  C   UNL     1      45.148   8.502  12.226  0.00  0.00    +0.000 A 
ATOM      4  C   UNL     1      44.310   7.514  11.715  0.00  0.00    +0.000 A 
ATOM      5  C   UNL     1      44.786   6.207  11.533  0.00  0.00    +0.000 A 
ATOM      6  C   UNL     1      46.120   5.906  11.864  0.00  0.00    +0.000 A 
ATOM      7  C   UNL     1      46.957   6.873  12.441  0.00  0.00    +0.000 A 
ENDROOT
BRANCH   7   8
ATOM      8  C   UNL     1      48.336   6.548  13.000  0.00  0.00    +0.000 C 
ATOM      9  C   UNL     1      48.433   6.650  14.530  0.00  0.00    +0.000 C 
ATOM     10  C   UNL     1      48.938   7.998  15.030  0.00  0.00    +0.000 C 
ATOM     11  N   UNL     1      50.189   8.374  14.378  0.00  0.00    +0.000 NA
ATOM     12  C   UNL     1      49.978   8.553  12.946  0.00  0.00    +0.000 C 
ATOM     13  C   UNL     1      49.480   7.279  12.266  0.00  0.00    +0.000 C 
ATOM     14  H   UNL     1      50.886   7.643  14.530  0.00  0.00    +0.000 HD
ENDBRANCH   7   8
BRANCH   5  15
ATOM     15  C   UNL     1      43.850   5.120  11.053  0.00  0.00    +0.000 C 
BRANCH  15  16
ATOM     16  N   UNL     1      43.901   4.996   9.609  0.00  0.00    +0.000 N 
ATOM     17  C   UNL     1      44.711   4.005   9.072  0.00  0.00    +0.000 A 
ATOM     18  C   UNL     1      44.879   2.738   9.633  0.00  0.00    +0.000 A 
ATOM     19  N   UNL     1      45.640   1.755   9.087  0.00  0.00    +0.000 NA
ATOM     20  C   UNL     1      46.236   2.059   7.903  0.00  0.00    +0.000 A 
ATOM     21  C   UNL     1      46.061   3.313   7.331  0.00  0.00    +0.000 A 
ATOM     22  N   UNL     1      45.312   4.297   7.900  0.00  0.00    +0.000 NA
ATOM     23  H   UNL     1      44.076   5.860   9.101  0.00  0.00    +0.000 HD
BRANCH  20  24
ATOM     24  C   UNL     1      47.085   1.039   7.178  0.00  0.00    +0.000 C 
ATOM     25  F   UNL     1      48.426   1.270   7.252  0.00  0.00    +0.000 F 
ATOM     26  F   UNL     1      46.900  -0.226   7.654  0.00  0.00    +0.000 F 
ATOM     27  F   UNL     1      46.795   0.971   5.845  0.00  0.00    +0.000 F 
ENDBRANCH  20  24
ENDBRANCH  15  16
ENDBRANCH   5  15
TORSDOF 4
ENDMDL
MODEL 3
REMARK VINA RESULT:    -7.412      2.954      4.074
REMARK INTER + INTRA:          -9.248
REMARK INTER:                  -8.602
REMARK INTRA:                  -0.646
REMARK UNBOUND:                -0.102
REMARK  Name = 
REMARK  4 active torsions:
REMARK  status: ('A' for Active; 'I' for Inactive)
REMARK    1  A    between atoms: C_5  and  C_6
REMARK    2  A    between atoms: C_6  and  N_7
REMARK    3  A    between atoms: C_11  and  C_12
REMARK    4  A    between atoms: C_19  and  C_20
REMARK                            x       y       z     vdW  Elec       q    Type
REMARK                         _______ _______ _______ _____ _____    ______ ____
ROOT
ATOM      1  F   UNL     1      46.216   9.657  13.004  0.00  0.00    +0.000 F 
ATOM      2  C   UNL     1      45.508   8.644  12.487  0.00  0.00    +0.000 A 
ATOM      3  C   UNL     1      45.924   7.345  12.772  0.00  0.00    +0.000 A 
ATOM      4  C   UNL     1      45.230   6.269  12.226  0.00  0.00    +0.000 A 
ATOM      5  C   UNL     1      44.105   6.489  11.417  0.00  0.00    +0.000 A 
ATOM      6  C   UNL     1      43.680   7.808  11.171  0.00  0.00    +0.000 A 
ATOM      7  C   UNL     1      44.406   8.904  11.661  0.00  0.00    +0.000 A 
ENDROOT
BRANCH   7   8
ATOM      8  C   UNL     1      44.107  10.343  11.259  0.00  0.00    +0.000 C 
ATOM      9  C   UNL     1      42.671  10.795  11.567  0.00  0.00    +0.000 C 
ATOM     10  C   UNL     1      41.710  10.642  10.395  0.00  0.00    +0.000 C 
ATOM     11  N   UNL     1      42.234  11.276   9.189  0.00  0.00    +0.000 NA
ATOM     12  C   UNL     1      43.462  10.613   8.763  0.00  0.00    +0.000 C 
ATOM     13  C   UNL     1      44.559  10.683   9.824  0.00  0.00    +0.000 C 
ATOM     14  H   UNL     1      42.427  12.261   9.378  0.00  0.00    +0.000 HD
ENDBRANCH   7   8
BRANCH   5  15
ATOM     15  C   UNL     1      43.402   5.321  10.761  0.00  0.00    +0.000 C 
BRANCH  15  16
ATOM     16  N   UNL     1      44.206   4.118  10.854  0.00  0.00    +0.000 N 
ATOM     17  C   UNL     1      44.904   3.717   9.723  0.00  0.00    +0.000 A 
ATOM     18  C   UNL     1      45.516   4.593   8.826  0.00  0.00    +0.000 A 
ATOM     19  N   UNL     1      46.233   4.200   7.741  0.00  0.00    +0.000 NA
ATOM     20  C   UNL     1      46.358   2.855   7.573  0.00  0.00    +0.000 A 
ATOM     21  C   UNL     1      45.764   1.978   8.471  0.00  0.00    +0.000 A 
ATOM     22  N   UNL     1      45.031   2.386   9.542  0.00  0.00    +0.000 NA
ATOM     23  H   UNL     1      43.734   3.304  11.242  0.00  0.00    +0.000 HD
BRANCH  20  24
ATOM     24  C   UNL     1      47.158   2.290   6.420  0.00  0.00    +0.000 C 
ATOM     25  F   UNL     1      46.838   2.816   5.204  0.00  0.00    +0.000 F 
ATOM     26  F   UNL     1      48.499   2.490   6.569  0.00  0.00    +0.000 F 
ATOM     27  F   UNL     1      47.004   0.940   6.291  0.00  0.00    +0.000 F 
ENDBRANCH  20  24
ENDBRANCH  15  16
ENDBRANCH   5  15
TORSDOF 4
ENDMDL
MODEL 4
REMARK VINA RESULT:    -7.161      4.150      8.830
REMARK INTER + INTRA:          -8.937
REMARK INTER:                  -8.282
REMARK INTRA:                  -0.655
REMARK UNBOUND:                -0.102
REMARK  Name = 
REMARK  4 active torsions:
REMARK  status: ('A' for Active; 'I' for Inactive)
REMARK    1  A    between atoms: C_5  and  C_6
REMARK    2  A    between atoms: C_6  and  N_7
REMARK    3  A    between atoms: C_11  and  C_12
REMARK    4  A    between atoms: C_19  and  C_20
REMARK                            x       y       z     vdW  Elec       q    Type
REMARK                         _______ _______ _______ _____ _____    ______ ____
ROOT
ATOM      1  F   UNL     1      43.904   8.181  10.902  0.00  0.00    +0.000 F 
ATOM      2  C   UNL     1      44.808   7.582  11.688  0.00  0.00    +0.000 A 
ATOM      3  C   UNL     1      45.729   8.388  12.355  0.00  0.00    +0.000 A 
ATOM      4  C   UNL     1      46.702   7.796  13.156  0.00  0.00    +0.000 A 
ATOM      5  C   UNL     1      46.740   6.402  13.311  0.00  0.00    +0.000 A 
ATOM      6  C   UNL     1      45.778   5.609  12.657  0.00  0.00    +0.000 A 
ATOM      7  C   UNL     1      44.832   6.185  11.797  0.00  0.00    +0.000 A 
ENDROOT
BRANCH   7   8
ATOM      8  C   UNL     1      43.904   5.359  10.914  0.00  0.00    +0.000 C 
ATOM      9  C   UNL     1      42.884   4.515  11.693  0.00  0.00    +0.000 C 
ATOM     10  C   UNL     1      43.334   3.082  11.949  0.00  0.00    +0.000 C 
ATOM     11  N   UNL     1      43.756   2.426  10.715  0.00  0.00    +0.000 NA
ATOM     12  C   UNL     1      44.925   3.099  10.160  0.00  0.00    +0.000 C 
ATOM     13  C   UNL     1      44.648   4.564   9.822  0.00  0.00    +0.000 C 
ATOM     14  H   UNL     1      42.993   2.454  10.036  0.00  0.00    +0.000 HD
ENDBRANCH   7   8
BRANCH   5  15
ATOM     15  C   UNL     1      47.847   5.759  14.116  0.00  0.00    +0.000 C 
BRANCH  15  16
ATOM     16  N   UNL     1      47.301   4.932  15.175  0.00  0.00    +0.000 N 
ATOM     17  C   UNL     1      47.916   4.982  16.418  0.00  0.00    +0.000 A 
ATOM     18  C   UNL     1      48.445   6.142  16.987  0.00  0.00    +0.000 A 
ATOM     19  N   UNL     1      49.011   6.199  18.220  0.00  0.00    +0.000 NA
ATOM     20  C   UNL     1      49.018   5.033  18.921  0.00  0.00    +0.000 A 
ATOM     21  C   UNL     1      48.479   3.879  18.367  0.00  0.00    +0.000 A 
ATOM     22  N   UNL     1      47.934   3.831  17.121  0.00  0.00    +0.000 NA
ATOM     23  H   UNL     1      47.149   3.955  14.934  0.00  0.00    +0.000 HD
BRANCH  20  24
ATOM     24  C   UNL     1      49.592   4.972  20.318  0.00  0.00    +0.000 C 
ATOM     25  F   UNL     1      50.881   4.532  20.377  0.00  0.00    +0.000 F 
ATOM     26  F   UNL     1      49.587   6.188  20.938  0.00  0.00    +0.000 F 
ATOM     27  F   UNL     1      48.882   4.144  21.140  0.00  0.00    +0.000 F 
ENDBRANCH  20  24
ENDBRANCH  15  16
ENDBRANCH   5  15
TORSDOF 4
ENDMDL
MODEL 5
REMARK VINA RESULT:    -7.150      2.790      7.587
REMARK INTER + INTRA:          -8.924
REMARK INTER:                  -8.391
REMARK INTRA:                  -0.533
REMARK UNBOUND:                -0.102
REMARK  Name = 
REMARK  4 active torsions:
REMARK  status: ('A' for Active; 'I' for Inactive)
REMARK    1  A    between atoms: C_5  and  C_6
REMARK    2  A    between atoms: C_6  and  N_7
REMARK    3  A    between atoms: C_11  and  C_12
REMARK    4  A    between atoms: C_19  and  C_20
REMARK                            x       y       z     vdW  Elec       q    Type
REMARK                         _______ _______ _______ _____ _____    ______ ____
ROOT
ATOM      1  F   UNL     1      43.192   1.800  11.150  0.00  0.00    +0.000 F 
ATOM      2  C   UNL     1      43.804   2.977  11.333  0.00  0.00    +0.000 A 
ATOM      3  C   UNL     1      43.732   3.561  12.596  0.00  0.00    +0.000 A 
ATOM      4  C   UNL     1      44.330   4.799  12.813  0.00  0.00    +0.000 A 
ATOM      5  C   UNL     1      45.023   5.442  11.776  0.00  0.00    +0.000 A 
ATOM      6  C   UNL     1      45.114   4.818  10.518  0.00  0.00    +0.000 A 
ATOM      7  C   UNL     1      44.463   3.602  10.265  0.00  0.00    +0.000 A 
ENDROOT
BRANCH   7   8
ATOM      8  C   UNL     1      44.363   2.988   8.874  0.00  0.00    +0.000 C 
ATOM      9  C   UNL     1      44.892   1.549   8.784  0.00  0.00    +0.000 C 
ATOM     10  C   UNL     1      46.345   1.452   8.335  0.00  0.00    +0.000 C 
ATOM     11  N   UNL     1      46.573   2.196   7.099  0.00  0.00    +0.000 NA
ATOM     12  C   UNL     1      46.335   3.619   7.316  0.00  0.00    +0.000 C 
ATOM     13  C   UNL     1      44.903   3.909   7.761  0.00  0.00    +0.000 C 
ATOM     14  H   UNL     1      45.942   1.851   6.374  0.00  0.00    +0.000 HD
ENDBRANCH   7   8
BRANCH   5  15
ATOM     15  C   UNL     1      45.602   6.822  11.993  0.00  0.00    +0.000 C 
BRANCH  15  16
ATOM     16  N   UNL     1      47.016   6.845  11.671  0.00  0.00    +0.000 N 
ATOM     17  C   UNL     1      47.917   6.936  12.722  0.00  0.00    +0.000 A 
ATOM     18  C   UNL     1      47.752   6.305  13.957  0.00  0.00    +0.000 A 
ATOM     19  N   UNL     1      48.653   6.362  14.971  0.00  0.00    +0.000 NA
ATOM     20  C   UNL     1      49.788   7.067  14.714  0.00  0.00    +0.000 A 
ATOM     21  C   UNL     1      49.966   7.684  13.482  0.00  0.00    +0.000 A 
ATOM     22  N   UNL     1      49.045   7.637  12.482  0.00  0.00    +0.000 NA
ATOM     23  H   UNL     1      47.292   7.513  10.956  0.00  0.00    +0.000 HD
BRANCH  20  24
ATOM     24  C   UNL     1      50.882   7.179  15.751  0.00  0.00    +0.000 C 
ATOM     25  F   UNL     1      50.631   8.087  16.736  0.00  0.00    +0.000 F 
ATOM     26  F   UNL     1      51.119   5.996  16.389  0.00  0.00    +0.000 F 
ATOM     27  F   UNL     1      52.081   7.545  15.208  0.00  0.00    +0.000 F 
ENDBRANCH  20  24
ENDBRANCH  15  16
ENDBRANCH   5  15
TORSDOF 4
ENDMDL
MODEL 6
REMARK VINA RESULT:    -7.053      4.427      6.248
REMARK INTER + INTRA:          -8.805
REMARK INTER:                  -8.006
REMARK INTRA:                  -0.799
REMARK UNBOUND:                -0.102
REMARK  Name = 
REMARK  4 active torsions:
REMARK  status: ('A' for Active; 'I' for Inactive)
REMARK    1  A    between atoms: C_5  and  C_6
REMARK    2  A    between atoms: C_6  and  N_7
REMARK    3  A    between atoms: C_11  and  C_12
REMARK    4  A    between atoms: C_19  and  C_20
REMARK                            x       y       z     vdW  Elec       q    Type
REMARK                         _______ _______ _______ _____ _____    ______ ____
ROOT
ATOM      1  F   UNL     1      48.991   7.140  19.709  0.00  0.00    +0.000 F 
ATOM      2  C   UNL     1      48.941   7.080  18.372  0.00  0.00    +0.000 A 
ATOM      3  C   UNL     1      48.583   8.235  17.679  0.00  0.00    +0.000 A 
ATOM      4  C   UNL     1      48.491   8.200  16.291  0.00  0.00    +0.000 A 
ATOM      5  C   UNL     1      48.782   7.018  15.592  0.00  0.00    +0.000 A 
ATOM      6  C   UNL     1      49.177   5.873  16.308  0.00  0.00    +0.000 A 
ATOM      7  C   UNL     1      49.212   5.874  17.710  0.00  0.00    +0.000 A 
ENDROOT
BRANCH   7   8
ATOM      8  C   UNL     1      49.436   4.613  18.536  0.00  0.00    +0.000 C 
ATOM      9  C   UNL     1      50.914   4.290  18.799  0.00  0.00    +0.000 C 
ATOM     10  C   UNL     1      51.523   3.315  17.798  0.00  0.00    +0.000 C 
ATOM     11  N   UNL     1      50.714   2.106  17.671  0.00  0.00    +0.000 NA
ATOM     12  C   UNL     1      49.398   2.433  17.133  0.00  0.00    +0.000 C 
ATOM     13  C   UNL     1      48.627   3.401  18.030  0.00  0.00    +0.000 C 
ATOM     14  H   UNL     1      50.608   1.670  18.588  0.00  0.00    +0.000 HD
ENDBRANCH   7   8
BRANCH   5  15
ATOM     15  C   UNL     1      48.604   6.961  14.091  0.00  0.00    +0.000 C 
BRANCH  15  16
ATOM     16  N   UNL     1      47.242   7.292  13.721  0.00  0.00    +0.000 N 
ATOM     17  C   UNL     1      46.436   6.271  13.237  0.00  0.00    +0.000 A 
ATOM     18  C   UNL     1      46.462   4.958  13.710  0.00  0.00    +0.000 A 
ATOM     19  N   UNL     1      45.646   3.968  13.264  0.00  0.00    +0.000 NA
ATOM     20  C   UNL     1      44.743   4.331  12.314  0.00  0.00    +0.000 A 
ATOM     21  C   UNL     1      44.701   5.640  11.850  0.00  0.00    +0.000 A 
ATOM     22  N   UNL     1      45.539   6.617  12.290  0.00  0.00    +0.000 NA
ATOM     23  H   UNL     1      47.137   8.098  13.108  0.00  0.00    +0.000 HD
BRANCH  20  24
ATOM     24  C   UNL     1      43.758   3.328  11.758  0.00  0.00    +0.000 C 
ATOM     25  F   UNL     1      43.452   2.309  12.611  0.00  0.00    +0.000 F 
ATOM     26  F   UNL     1      42.565   3.899  11.421  0.00  0.00    +0.000 F 
ATOM     27  F   UNL     1      44.209   2.730  10.616  0.00  0.00    +0.000 F 
ENDBRANCH  20  24
ENDBRANCH  15  16
ENDBRANCH   5  15
TORSDOF 4
ENDMDL
MODEL 7
REMARK VINA RESULT:    -6.933      4.789      6.454
REMARK INTER + INTRA:          -8.656
REMARK INTER:                  -7.981
REMARK INTRA:                  -0.675
REMARK UNBOUND:                -0.102
REMARK  Name = 
REMARK  4 active torsions:
REMARK  status: ('A' for Active; 'I' for Inactive)
REMARK    1  A    between atoms: C_5  and  C_6
REMARK    2  A    between atoms: C_6  and  N_7
REMARK    3  A    between atoms: C_11  and  C_12
REMARK    4  A    between atoms: C_19  and  C_20
REMARK                            x       y       z     vdW  Elec       q    Type
REMARK                         _______ _______ _______ _____ _____    ______ ____
ROOT
ATOM      1  F   UNL     1      52.828   2.705  18.149  0.00  0.00    +0.000 F 
ATOM      2  C   UNL     1      51.572   2.961  17.760  0.00  0.00    +0.000 A 
ATOM      3  C   UNL     1      50.791   1.891  17.330  0.00  0.00    +0.000 A 
ATOM      4  C   UNL     1      49.491   2.126  16.889  0.00  0.00    +0.000 A 
ATOM      5  C   UNL     1      48.963   3.426  16.903  0.00  0.00    +0.000 A 
ATOM      6  C   UNL     1      49.757   4.488  17.375  0.00  0.00    +0.000 A 
ATOM      7  C   UNL     1      51.089   4.278  17.761  0.00  0.00    +0.000 A 
ENDROOT
BRANCH   7   8
ATOM      8  C   UNL     1      52.048   5.416  18.086  0.00  0.00    +0.000 C 
ATOM      9  C   UNL     1      51.404   6.577  18.861  0.00  0.00    +0.000 C 
ATOM     10  C   UNL     1      50.914   7.715  17.974  0.00  0.00    +0.000 C 
ATOM     11  N   UNL     1      51.964   8.178  17.071  0.00  0.00    +0.000 NA
ATOM     12  C   UNL     1      52.342   7.113  16.149  0.00  0.00    +0.000 C 
ATOM     13  C   UNL     1      52.879   5.879  16.873  0.00  0.00    +0.000 C 
ATOM     14  H   UNL     1      52.780   8.463  17.615  0.00  0.00    +0.000 HD
ENDBRANCH   7   8
BRANCH   5  15
ATOM     15  C   UNL     1      47.581   3.688  16.348  0.00  0.00    +0.000 C 
BRANCH  15  16
ATOM     16  N   UNL     1      47.428   3.089  15.037  0.00  0.00    +0.000 N 
ATOM     17  C   UNL     1      46.806   3.841  14.050  0.00  0.00    +0.000 A 
ATOM     18  C   UNL     1      46.965   5.219  13.894  0.00  0.00    +0.000 A 
ATOM     19  N   UNL     1      46.387   5.948  12.904  0.00  0.00    +0.000 NA
ATOM     20  C   UNL     1      45.636   5.244  12.015  0.00  0.00    +0.000 A 
ATOM     21  C   UNL     1      45.486   3.870  12.155  0.00  0.00    +0.000 A 
ATOM     22  N   UNL     1      46.053   3.155  13.165  0.00  0.00    +0.000 NA
ATOM     23  H   UNL     1      47.027   2.154  15.026  0.00  0.00    +0.000 HD
BRANCH  20  24
ATOM     24  C   UNL     1      44.965   5.936  10.849  0.00  0.00    +0.000 C 
ATOM     25  F   UNL     1      43.693   5.513  10.602  0.00  0.00    +0.000 F 
ATOM     26  F   UNL     1      44.879   7.287  11.023  0.00  0.00    +0.000 F 
ATOM     27  F   UNL     1      45.645   5.764   9.678  0.00  0.00    +0.000 F 
ENDBRANCH  20  24
ENDBRANCH  15  16
ENDBRANCH   5  15
TORSDOF 4
ENDMDL
MODEL 8
REMARK VINA RESULT:    -6.801      5.035      8.146
REMARK INTER + INTRA:          -8.494
REMARK INTER:                  -7.748
REMARK INTRA:                  -0.746
REMARK UNBOUND:                -0.102
REMARK  Name = 
REMARK  4 active torsions:
REMARK  status: ('A' for Active; 'I' for Inactive)
REMARK    1  A    between atoms: C_5  and  C_6
REMARK    2  A    between atoms: C_6  and  N_7
REMARK    3  A    between atoms: C_11  and  C_12
REMARK    4  A    between atoms: C_19  and  C_20
REMARK                            x       y       z     vdW  Elec       q    Type
REMARK                         _______ _______ _______ _____ _____    ______ ____
ROOT
ATOM      1  F   UNL     1      47.309   4.143  14.272  0.00  0.00    +0.000 F 
ATOM      2  C   UNL     1      46.990   5.336  13.752  0.00  0.00    +0.000 A 
ATOM      3  C   UNL     1      47.915   6.370  13.876  0.00  0.00    +0.000 A 
ATOM      4  C   UNL     1      47.603   7.631  13.375  0.00  0.00    +0.000 A 
ATOM      5  C   UNL     1      46.378   7.852  12.727  0.00  0.00    +0.000 A 
ATOM      6  C   UNL     1      45.473   6.784  12.580  0.00  0.00    +0.000 A 
ATOM      7  C   UNL     1      45.745   5.525  13.136  0.00  0.00    +0.000 A 
ENDROOT
BRANCH   7   8
ATOM      8  C   UNL     1      44.719   4.399  13.180  0.00  0.00    +0.000 C 
ATOM      9  C   UNL     1      45.004   3.253  12.198  0.00  0.00    +0.000 C 
ATOM     10  C   UNL     1      44.276   3.384  10.866  0.00  0.00    +0.000 C 
ATOM     11  N   UNL     1      42.844   3.596  11.059  0.00  0.00    +0.000 NA
ATOM     12  C   UNL     1      42.609   4.859  11.748  0.00  0.00    +0.000 C 
ATOM     13  C   UNL     1      43.261   4.900  13.129  0.00  0.00    +0.000 C 
ATOM     14  H   UNL     1      42.458   2.829  11.612  0.00  0.00    +0.000 HD
ENDBRANCH   7   8
BRANCH   5  15
ATOM     15  C   UNL     1      46.010   9.241  12.255  0.00  0.00    +0.000 C 
BRANCH  15  16
ATOM     16  N   UNL     1      45.089   9.179  11.137  0.00  0.00    +0.000 N 
ATOM     17  C   UNL     1      43.907   9.901  11.230  0.00  0.00    +0.000 A 
ATOM     18  C   UNL     1      43.801  11.160  11.825  0.00  0.00    +0.000 A 
ATOM     19  N   UNL     1      42.654  11.885  11.881  0.00  0.00    +0.000 NA
ATOM     20  C   UNL     1      41.570  11.321  11.282  0.00  0.00    +0.000 A 
ATOM     21  C   UNL     1      41.673  10.076  10.676  0.00  0.00    +0.000 A 
ATOM     22  N   UNL     1      42.824   9.351  10.646  0.00  0.00    +0.000 NA
ATOM     23  H   UNL     1      44.864   8.243  10.805  0.00  0.00    +0.000 HD
BRANCH  20  24
ATOM     24  C   UNL     1      40.241  12.042  11.250  0.00  0.00    +0.000 C 
ATOM     25  F   UNL     1      40.044  12.904  12.287  0.00  0.00    +0.000 F 
ATOM     26  F   UNL     1      40.077  12.782  10.116  0.00  0.00    +0.000 F 
ATOM     27  F   UNL     1      39.180  11.182  11.278  0.00  0.00    +0.000 F 
ENDBRANCH  20  24
ENDBRANCH  15  16
ENDBRANCH   5  15
TORSDOF 4
ENDMDL
MODEL 9
REMARK VINA RESULT:    -6.306      4.069      6.309
REMARK INTER + INTRA:          -7.883
REMARK INTER:                  -7.109
REMARK INTRA:                  -0.774
REMARK UNBOUND:                -0.102
REMARK  Name = 
REMARK  4 active torsions:
REMARK  status: ('A' for Active; 'I' for Inactive)
REMARK    1  A    between atoms: C_5  and  C_6
REMARK    2  A    between atoms: C_6  and  N_7
REMARK    3  A    between atoms: C_11  and  C_12
REMARK    4  A    between atoms: C_19  and  C_20
REMARK                            x       y       z     vdW  Elec       q    Type
REMARK                         _______ _______ _______ _____ _____    ______ ____
ROOT
ATOM      1  F   UNL     1      51.974   7.048  18.265  0.00  0.00    +0.000 F 
ATOM      2  C   UNL     1      51.297   7.076  17.109  0.00  0.00    +0.000 A 
ATOM      3  C   UNL     1      51.816   7.843  16.068  0.00  0.00    +0.000 A 
ATOM      4  C   UNL     1      51.122   7.921  14.863  0.00  0.00    +0.000 A 
ATOM      5  C   UNL     1      49.924   7.211  14.690  0.00  0.00    +0.000 A 
ATOM      6  C   UNL     1      49.436   6.413  15.742  0.00  0.00    +0.000 A 
ATOM      7  C   UNL     1      50.089   6.376  16.982  0.00  0.00    +0.000 A 
ENDROOT
BRANCH   7   8
ATOM      8  C   UNL     1      49.499   5.693  18.210  0.00  0.00    +0.000 C 
ATOM      9  C   UNL     1      48.712   4.411  17.897  0.00  0.00    +0.000 C 
ATOM     10  C   UNL     1      47.213   4.629  17.736  0.00  0.00    +0.000 C 
ATOM     11  N   UNL     1      46.653   5.348  18.877  0.00  0.00    +0.000 NA
ATOM     12  C   UNL     1      47.226   6.687  18.961  0.00  0.00    +0.000 C 
ATOM     13  C   UNL     1      48.743   6.661  19.143  0.00  0.00    +0.000 C 
ATOM     14  H   UNL     1      46.858   4.836  19.737  0.00  0.00    +0.000 HD
ENDBRANCH   7   8
BRANCH   5  15
ATOM     15  C   UNL     1      49.132   7.361  13.409  0.00  0.00    +0.000 C 
BRANCH  15  16
ATOM     16  N   UNL     1      47.739   7.643  13.694  0.00  0.00    +0.000 N 
ATOM     17  C   UNL     1      46.793   6.718  13.276  0.00  0.00    +0.000 A 
ATOM     18  C   UNL     1      46.981   5.335  13.300  0.00  0.00    +0.000 A 
ATOM     19  N   UNL     1      46.040   4.429  12.927  0.00  0.00    +0.000 NA
ATOM     20  C   UNL     1      44.843   4.946  12.539  0.00  0.00    +0.000 A 
ATOM     21  C   UNL     1      44.645   6.321  12.527  0.00  0.00    +0.000 A 
ATOM     22  N   UNL     1      45.603   7.219  12.882  0.00  0.00    +0.000 NA
ATOM     23  H   UNL     1      47.416   8.571  13.430  0.00  0.00    +0.000 HD
BRANCH  20  24
ATOM     24  C   UNL     1      43.704   4.040  12.130  0.00  0.00    +0.000 C 
ATOM     25  F   UNL     1      43.775   2.781  12.647  0.00  0.00    +0.000 F 
ATOM     26  F   UNL     1      42.487   4.528  12.508  0.00  0.00    +0.000 F 
ATOM     27  F   UNL     1      43.625   3.879  10.776  0.00  0.00    +0.000 F 
ENDBRANCH  20  24
ENDBRANCH  15  16
ENDBRANCH   5  15
TORSDOF 4
ENDMDL
