MODEL 1
REMARK VINA RESULT:    -8.341      0.000      0.000
REMARK INTER + INTRA:         -11.603
REMARK INTER:                 -11.267
REMARK INTRA:                  -0.336
REMARK UNBOUND:                -0.336
REMARK  Name = 
REMARK  8 active torsions:
REMARK  status: ('A' for Active; 'I' for Inactive)
REMARK    1  A    between atoms: C_1  and  C_2
REMARK    2  A    between atoms: C_2  and  O_3
REMARK    3  A    between atoms: C_2  and  C_14
REMARK    4  A    between atoms: O_3  and  C_4
REMARK    5  A    between atoms: C_7  and  C_8
REMARK    6  A    between atoms: C_19  and  O_20
REMARK    7  A    between atoms: O_20  and  C_21
REMARK    8  A    between atoms: N_25  and  C_26
REMARK                            x       y       z     vdW  Elec       q    Type
REMARK                         _______ _______ _______ _____ _____    ______ ____
ROOT
ATOM      1  C   UNL     1      42.837   5.365  12.346  0.00  0.00    +0.000 C 
ATOM      2  C   UNL     1      44.067   5.102  11.543  0.00  0.00    +0.000 C 
ENDROOT
BRANCH   2   3
ATOM      3  C   UNL     1      45.417   5.452  12.019  0.00  0.00    +0.000 A 
ATOM      4  C   UNL     1      46.177   6.486  11.458  0.00  0.00    +0.000 A 
ATOM      5  C   UNL     1      47.425   6.811  11.989  0.00  0.00    +0.000 A 
ATOM      6  F   UNL     1      48.120   7.822  11.448  0.00  0.00    +0.000 F 
ATOM      7  C   UNL     1      47.957   6.120  13.068  0.00  0.00    +0.000 A 
ATOM      8  C   UNL     1      47.230   5.068  13.614  0.00  0.00    +0.000 A 
ATOM      9  C   UNL     1      45.963   4.757  13.108  0.00  0.00    +0.000 A 
BRANCH   8  10
ATOM     10  O   UNL     1      47.763   4.415  14.702  0.00  0.00    +0.000 OA
BRANCH  10  11
ATOM     11  C   UNL     1      48.015   5.084  15.830  0.00  0.00    +0.000 A 
ATOM     12  C   UNL     1      48.582   6.310  16.125  0.00  0.00    +0.000 A 
ATOM     13  N   UNL     1      48.641   6.518  17.479  0.00  0.00    +0.000 NA
ATOM     14  C   UNL     1      48.098   5.448  18.014  0.00  0.00    +0.000 A 
ATOM     15  N   UNL     1      47.690   4.563  17.057  0.00  0.00    +0.000 N 
ATOM     16  C   UNL     1      47.079   3.282  17.305  0.00  0.00    +0.000 C 
ENDBRANCH  10  11
ENDBRANCH   8  10
ENDBRANCH   2   3
BRANCH   2  17
ATOM     17  O   UNL     1      43.904   4.988  10.168  0.00  0.00    +0.000 OA
BRANCH  17  18
ATOM     18  C   UNL     1      44.679   4.072   9.485  0.00  0.00    +0.000 A 
ATOM     19  C   UNL     1      45.510   4.432   8.417  0.00  0.00    +0.000 A 
ATOM     20  C   UNL     1      46.247   3.460   7.729  0.00  0.00    +0.000 A 
ATOM     21  C   UNL     1      46.170   2.116   8.106  0.00  0.00    +0.000 A 
ATOM     22  C   UNL     1      45.322   1.750   9.160  0.00  0.00    +0.000 A 
ATOM     23  C   UNL     1      44.567   2.722   9.836  0.00  0.00    +0.000 A 
ATOM     24 CL   UNL     1      43.495   2.196  11.081  0.00  0.00    +0.000 Cl
BRANCH  21  25
ATOM     25  C   UNL     1      46.954   1.035   7.442  0.00  0.00    +0.000 C 
ATOM     26  N   UNL     1      47.901   1.381   6.513  0.00  0.00    +0.000 N 
ATOM     27  O   UNL     1      46.768  -0.147   7.708  0.00  0.00    +0.000 OA
ATOM     28  H   UNL     1      48.081   2.312   6.179  0.00  0.00    +0.000 HD
ATOM     29  H   UNL     1      48.396   0.617   6.071  0.00  0.00    +0.000 HD
ENDBRANCH  21  25
ENDBRANCH  17  18
ENDBRANCH   2  17
TORSDOF 6
ENDMDL
MODEL 2
REMARK VINA RESULT:    -8.191      1.536      2.117
REMARK INTER + INTRA:         -11.400
REMARK INTER:                 -10.357
REMARK INTRA:                  -1.043
REMARK UNBOUND:                -0.336
REMARK  Name = 
REMARK  8 active torsions:
REMARK  status: ('A' for Active; 'I' for Inactive)
REMARK    1  A    between atoms: C_1  and  C_2
REMARK    2  A    between atoms: C_2  and  O_3
REMARK    3  A    between atoms: C_2  and  C_14
REMARK    4  A    between atoms: O_3  and  C_4
REMARK    5  A    between atoms: C_7  and  C_8
REMARK    6  A    between atoms: C_19  and  O_20
REMARK    7  A    between atoms: O_20  and  C_21
REMARK    8  A    between atoms: N_25  and  C_26
REMARK                            x       y       z     vdW  Elec       q    Type
REMARK                         _______ _______ _______ _____ _____    ______ ____
ROOT
ATOM      1  C   UNL     1      43.544   2.743  12.434  0.00  0.00    +0.000 C 
ATOM      2  C   UNL     1      44.407   3.655  11.627  0.00  0.00    +0.000 C 
ENDROOT
BRANCH   2   3
ATOM      3  C   UNL     1      45.208   4.734  12.232  0.00  0.00    +0.000 A 
ATOM      4  C   UNL     1      44.939   6.092  12.020  0.00  0.00    +0.000 A 
ATOM      5  C   UNL     1      45.694   7.070  12.666  0.00  0.00    +0.000 A 
ATOM      6  F   UNL     1      45.397   8.362  12.465  0.00  0.00    +0.000 F 
ATOM      7  C   UNL     1      46.736   6.736  13.520  0.00  0.00    +0.000 A 
ATOM      8  C   UNL     1      47.038   5.393  13.714  0.00  0.00    +0.000 A 
ATOM      9  C   UNL     1      46.264   4.405  13.094  0.00  0.00    +0.000 A 
BRANCH   8  10
ATOM     10  O   UNL     1      48.056   5.082  14.586  0.00  0.00    +0.000 OA
BRANCH  10  11
ATOM     11  C   UNL     1      47.805   4.952  15.892  0.00  0.00    +0.000 A 
ATOM     12  C   UNL     1      47.009   4.113  16.648  0.00  0.00    +0.000 A 
ATOM     13  N   UNL     1      47.084   4.424  17.982  0.00  0.00    +0.000 NA
ATOM     14  C   UNL     1      47.930   5.426  18.052  0.00  0.00    +0.000 A 
ATOM     15  N   UNL     1      48.404   5.768  16.818  0.00  0.00    +0.000 N 
ATOM     16  C   UNL     1      49.328   6.838  16.541  0.00  0.00    +0.000 C 
ENDBRANCH  10  11
ENDBRANCH   8  10
ENDBRANCH   2   3
BRANCH   2  17
ATOM     17  O   UNL     1      44.076   3.805  10.285  0.00  0.00    +0.000 OA
BRANCH  17  18
ATOM     18  C   UNL     1      44.892   3.222   9.336  0.00  0.00    +0.000 A 
ATOM     19  C   UNL     1      44.930   1.839   9.119  0.00  0.00    +0.000 A 
ATOM     20  C   UNL     1      45.804   1.291   8.172  0.00  0.00    +0.000 A 
ATOM     21  C   UNL     1      46.646   2.119   7.423  0.00  0.00    +0.000 A 
ATOM     22  C   UNL     1      46.626   3.501   7.654  0.00  0.00    +0.000 A 
ATOM     23  C   UNL     1      45.764   4.048   8.618  0.00  0.00    +0.000 A 
ATOM     24 CL   UNL     1      45.837   5.749   8.899  0.00  0.00    +0.000 Cl
BRANCH  21  25
ATOM     25  C   UNL     1      47.573   1.607   6.374  0.00  0.00    +0.000 C 
ATOM     26  N   UNL     1      48.756   2.265   6.158  0.00  0.00    +0.000 N 
ATOM     27  O   UNL     1      47.300   0.615   5.706  0.00  0.00    +0.000 OA
ATOM     28  H   UNL     1      49.039   3.121   6.604  0.00  0.00    +0.000 HD
ATOM     29  H   UNL     1      49.347   1.897   5.423  0.00  0.00    +0.000 HD
ENDBRANCH  21  25
ENDBRANCH  17  18
ENDBRANCH   2  17
TORSDOF 6
ENDMDL
MODEL 3
REMARK VINA RESULT:    -8.017      1.244      1.464
REMARK INTER + INTRA:         -11.165
REMARK INTER:                 -10.052
REMARK INTRA:                  -1.113
REMARK UNBOUND:                -0.336
REMARK  Name = 
REMARK  8 active torsions:
REMARK  status: ('A' for Active; 'I' for Inactive)
REMARK    1  A    between atoms: C_1  and  C_2
REMARK    2  A    between atoms: C_2  and  O_3
REMARK    3  A    between atoms: C_2  and  C_14
REMARK    4  A    between atoms: O_3  and  C_4
REMARK    5  A    between atoms: C_7  and  C_8
REMARK    6  A    between atoms: C_19  and  O_20
REMARK    7  A    between atoms: O_20  and  C_21
REMARK    8  A    between atoms: N_25  and  C_26
REMARK                            x       y       z     vdW  Elec       q    Type
REMARK                         _______ _______ _______ _____ _____    ______ ____
ROOT
ATOM      1  C   UNL     1      44.229   7.770  11.373  0.00  0.00    +0.000 C 
ATOM      2  C   UNL     1      44.456   6.379  11.864  0.00  0.00    +0.000 C 
ENDROOT
BRANCH   2   3
ATOM      3  C   UNL     1      45.676   5.981  12.588  0.00  0.00    +0.000 A 
ATOM      4  C   UNL     1      46.939   6.514  12.302  0.00  0.00    +0.000 A 
ATOM      5  C   UNL     1      48.049   6.143  13.061  0.00  0.00    +0.000 A 
ATOM      6  F   UNL     1      49.241   6.689  12.781  0.00  0.00    +0.000 F 
ATOM      7  C   UNL     1      47.945   5.233  14.103  0.00  0.00    +0.000 A 
ATOM      8  C   UNL     1      46.704   4.669  14.378  0.00  0.00    +0.000 A 
ATOM      9  C   UNL     1      45.580   5.060  13.642  0.00  0.00    +0.000 A 
BRANCH   8  10
ATOM     10  O   UNL     1      46.617   3.791  15.433  0.00  0.00    +0.000 OA
BRANCH  10  11
ATOM     11  C   UNL     1      47.274   4.040  16.570  0.00  0.00    +0.000 A 
ATOM     12  C   UNL     1      47.196   5.020  17.541  0.00  0.00    +0.000 A 
ATOM     13  N   UNL     1      48.145   4.834  18.513  0.00  0.00    +0.000 NA
ATOM     14  C   UNL     1      48.786   3.743  18.162  0.00  0.00    +0.000 A 
ATOM     15  N   UNL     1      48.284   3.219  17.005  0.00  0.00    +0.000 N 
ATOM     16  C   UNL     1      48.775   2.042  16.334  0.00  0.00    +0.000 C 
ENDBRANCH  10  11
ENDBRANCH   8  10
ENDBRANCH   2   3
BRANCH   2  17
ATOM     17  O   UNL     1      43.761   5.365  11.216  0.00  0.00    +0.000 OA
BRANCH  17  18
ATOM     18  C   UNL     1      44.450   4.545  10.345  0.00  0.00    +0.000 A 
ATOM     19  C   UNL     1      45.228   5.045   9.293  0.00  0.00    +0.000 A 
ATOM     20  C   UNL     1      45.875   4.173   8.410  0.00  0.00    +0.000 A 
ATOM     21  C   UNL     1      45.761   2.788   8.571  0.00  0.00    +0.000 A 
ATOM     22  C   UNL     1      44.964   2.286   9.609  0.00  0.00    +0.000 A 
ATOM     23  C   UNL     1      44.298   3.161  10.481  0.00  0.00    +0.000 A 
ATOM     24 CL   UNL     1      43.283   2.477  11.697  0.00  0.00    +0.000 Cl
BRANCH  21  25
ATOM     25  C   UNL     1      46.452   1.804   7.690  0.00  0.00    +0.000 C 
ATOM     26  N   UNL     1      46.943   2.228   6.482  0.00  0.00    +0.000 N 
ATOM     27  O   UNL     1      46.587   0.632   8.022  0.00  0.00    +0.000 OA
ATOM     28  H   UNL     1      46.825   3.147   6.092  0.00  0.00    +0.000 HD
ATOM     29  H   UNL     1      47.387   1.523   5.906  0.00  0.00    +0.000 HD
ENDBRANCH  21  25
ENDBRANCH  17  18
ENDBRANCH   2  17
TORSDOF 6
ENDMDL
MODEL 4
REMARK VINA RESULT:    -7.943      2.653      7.667
REMARK INTER + INTRA:         -11.066
REMARK INTER:                 -10.209
REMARK INTRA:                  -0.856
REMARK UNBOUND:                -0.336
REMARK  Name = 
REMARK  8 active torsions:
REMARK  status: ('A' for Active; 'I' for Inactive)
REMARK    1  A    between atoms: C_1  and  C_2
REMARK    2  A    between atoms: C_2  and  O_3
REMARK    3  A    between atoms: C_2  and  C_14
REMARK    4  A    between atoms: O_3  and  C_4
REMARK    5  A    between atoms: C_7  and  C_8
REMARK    6  A    between atoms: C_19  and  O_20
REMARK    7  A    between atoms: O_20  and  C_21
REMARK    8  A    between atoms: N_25  and  C_26
REMARK                            x       y       z     vdW  Elec       q    Type
REMARK                         _______ _______ _______ _____ _____    ______ ____
ROOT
ATOM      1  C   UNL     1      46.304   8.490  12.548  0.00  0.00    +0.000 C 
ATOM      2  C   UNL     1      46.622   7.157  11.955  0.00  0.00    +0.000 C 
ENDROOT
BRANCH   2   3
ATOM      3  C   UNL     1      45.596   6.291  11.349  0.00  0.00    +0.000 A 
ATOM      4  C   UNL     1      44.344   6.069  11.936  0.00  0.00    +0.000 A 
ATOM      5  C   UNL     1      43.390   5.287  11.287  0.00  0.00    +0.000 A 
ATOM      6  F   UNL     1      42.190   5.113  11.859  0.00  0.00    +0.000 F 
ATOM      7  C   UNL     1      43.650   4.695  10.059  0.00  0.00    +0.000 A 
ATOM      8  C   UNL     1      44.901   4.877   9.479  0.00  0.00    +0.000 A 
ATOM      9  C   UNL     1      45.852   5.687  10.109  0.00  0.00    +0.000 A 
BRANCH   8  10
ATOM     10  O   UNL     1      45.128   4.305   8.248  0.00  0.00    +0.000 OA
BRANCH  10  11
ATOM     11  C   UNL     1      45.585   3.052   8.164  0.00  0.00    +0.000 A 
ATOM     12  C   UNL     1      45.376   1.892   8.887  0.00  0.00    +0.000 A 
ATOM     13  N   UNL     1      46.132   0.858   8.397  0.00  0.00    +0.000 NA
ATOM     14  C   UNL     1      46.781   1.364   7.373  0.00  0.00    +0.000 A 
ATOM     15  N   UNL     1      46.470   2.680   7.184  0.00  0.00    +0.000 N 
ATOM     16  C   UNL     1      47.024   3.535   6.166  0.00  0.00    +0.000 C 
ENDBRANCH  10  11
ENDBRANCH   8  10
ENDBRANCH   2   3
BRANCH   2  17
ATOM     17  O   UNL     1      47.774   6.528  12.412  0.00  0.00    +0.000 OA
BRANCH  17  18
ATOM     18  C   UNL     1      47.699   5.769  13.563  0.00  0.00    +0.000 A 
ATOM     19  C   UNL     1      47.048   4.531  13.610  0.00  0.00    +0.000 A 
ATOM     20  C   UNL     1      46.962   3.816  14.811  0.00  0.00    +0.000 A 
ATOM     21  C   UNL     1      47.535   4.327  15.980  0.00  0.00    +0.000 A 
ATOM     22  C   UNL     1      48.167   5.577  15.941  0.00  0.00    +0.000 A 
ATOM     23  C   UNL     1      48.234   6.302  14.741  0.00  0.00    +0.000 A 
ATOM     24 CL   UNL     1      48.970   7.862  14.776  0.00  0.00    +0.000 Cl
BRANCH  21  25
ATOM     25  C   UNL     1      47.512   3.603  17.284  0.00  0.00    +0.000 C 
ATOM     26  N   UNL     1      48.515   3.839  18.188  0.00  0.00    +0.000 N 
ATOM     27  O   UNL     1      46.622   2.807  17.559  0.00  0.00    +0.000 OA
ATOM     28  H   UNL     1      49.321   4.420  18.031  0.00  0.00    +0.000 HD
ATOM     29  H   UNL     1      48.474   3.312  19.052  0.00  0.00    +0.000 HD
ENDBRANCH  21  25
ENDBRANCH  17  18
ENDBRANCH   2  17
TORSDOF 6
ENDMDL
MODEL 5
REMARK VINA RESULT:    -7.569      2.538      3.341
REMARK INTER + INTRA:         -10.559
REMARK INTER:                 -10.189
REMARK INTRA:                  -0.370
REMARK UNBOUND:                -0.336
REMARK  Name = 
REMARK  8 active torsions:
REMARK  status: ('A' for Active; 'I' for Inactive)
REMARK    1  A    between atoms: C_1  and  C_2
REMARK    2  A    between atoms: C_2  and  O_3
REMARK    3  A    between atoms: C_2  and  C_14
REMARK    4  A    between atoms: O_3  and  C_4
REMARK    5  A    between atoms: C_7  and  C_8
REMARK    6  A    between atoms: C_19  and  O_20
REMARK    7  A    between atoms: O_20  and  C_21
REMARK    8  A    between atoms: N_25  and  C_26
REMARK                            x       y       z     vdW  Elec       q    Type
REMARK                         _______ _______ _______ _____ _____    ______ ____
ROOT
ATOM      1  C   UNL     1      42.489   5.439  12.143  0.00  0.00    +0.000 C 
ATOM      2  C   UNL     1      43.760   5.111  11.433  0.00  0.00    +0.000 C 
ENDROOT
BRANCH   2   3
ATOM      3  C   UNL     1      45.087   5.358  12.024  0.00  0.00    +0.000 A 
ATOM      4  C   UNL     1      45.559   4.673  13.151  0.00  0.00    +0.000 A 
ATOM      5  C   UNL     1      46.847   4.906  13.630  0.00  0.00    +0.000 A 
ATOM      6  F   UNL     1      47.282   4.217  14.695  0.00  0.00    +0.000 F 
ATOM      7  C   UNL     1      47.691   5.827  13.025  0.00  0.00    +0.000 A 
ATOM      8  C   UNL     1      47.225   6.541  11.926  0.00  0.00    +0.000 A 
ATOM      9  C   UNL     1      45.946   6.288  11.420  0.00  0.00    +0.000 A 
BRANCH   8  10
ATOM     10  O   UNL     1      48.088   7.427  11.324  0.00  0.00    +0.000 OA
BRANCH  10  11
ATOM     11  C   UNL     1      48.799   8.282  12.065  0.00  0.00    +0.000 A 
ATOM     12  C   UNL     1      50.093   8.301  12.551  0.00  0.00    +0.000 A 
ATOM     13  N   UNL     1      50.323   9.421  13.308  0.00  0.00    +0.000 NA
ATOM     14  C   UNL     1      49.197  10.096  13.272  0.00  0.00    +0.000 A 
ATOM     15  N   UNL     1      48.254   9.456  12.520  0.00  0.00    +0.000 N 
ATOM     16  C   UNL     1      46.906   9.913  12.297  0.00  0.00    +0.000 C 
ENDBRANCH  10  11
ENDBRANCH   8  10
ENDBRANCH   2   3
BRANCH   2  17
ATOM     17  O   UNL     1      43.702   5.039  10.047  0.00  0.00    +0.000 OA
BRANCH  17  18
ATOM     18  C   UNL     1      44.495   4.112   9.400  0.00  0.00    +0.000 A 
ATOM     19  C   UNL     1      45.346   4.452   8.342  0.00  0.00    +0.000 A 
ATOM     20  C   UNL     1      46.100   3.468   7.691  0.00  0.00    +0.000 A 
ATOM     21  C   UNL     1      46.021   2.132   8.095  0.00  0.00    +0.000 A 
ATOM     22  C   UNL     1      45.153   1.786   9.140  0.00  0.00    +0.000 A 
ATOM     23  C   UNL     1      44.381   2.769   9.778  0.00  0.00    +0.000 A 
ATOM     24 CL   UNL     1      43.286   2.266  11.013  0.00  0.00    +0.000 Cl
BRANCH  21  25
ATOM     25  C   UNL     1      46.822   1.041   7.471  0.00  0.00    +0.000 C 
ATOM     26  N   UNL     1      47.496   1.299   6.305  0.00  0.00    +0.000 N 
ATOM     27  O   UNL     1      46.889  -0.074   7.976  0.00  0.00    +0.000 OA
ATOM     28  H   UNL     1      47.451   2.156   5.780  0.00  0.00    +0.000 HD
ATOM     29  H   UNL     1      48.011   0.526   5.904  0.00  0.00    +0.000 HD
ENDBRANCH  21  25
ENDBRANCH  17  18
ENDBRANCH   2  17
TORSDOF 6
ENDMDL
MODEL 6
REMARK VINA RESULT:    -7.519      3.964      5.473
REMARK INTER + INTRA:         -10.493
REMARK INTER:                  -9.383
REMARK INTRA:                  -1.110
REMARK UNBOUND:                -0.336
REMARK  Name = 
REMARK  8 active torsions:
REMARK  status: ('A' for Active; 'I' for Inactive)
REMARK    1  A    between atoms: C_1  and  C_2
REMARK    2  A    between atoms: C_2  and  O_3
REMARK    3  A    between atoms: C_2  and  C_14
REMARK    4  A    between atoms: O_3  and  C_4
REMARK    5  A    between atoms: C_7  and  C_8
REMARK    6  A    between atoms: C_19  and  O_20
REMARK    7  A    between atoms: O_20  and  C_21
REMARK    8  A    between atoms: N_25  and  C_26
REMARK                            x       y       z     vdW  Elec       q    Type
REMARK                         _______ _______ _______ _____ _____    ______ ____
ROOT
ATOM      1  C   UNL     1      50.102   7.993  13.149  0.00  0.00    +0.000 C 
ATOM      2  C   UNL     1      49.037   7.217  13.849  0.00  0.00    +0.000 C 
ENDROOT
BRANCH   2   3
ATOM      3  C   UNL     1      48.879   7.226  15.314  0.00  0.00    +0.000 A 
ATOM      4  C   UNL     1      48.636   8.395  16.046  0.00  0.00    +0.000 A 
ATOM      5  C   UNL     1      48.435   8.335  17.424  0.00  0.00    +0.000 A 
ATOM      6  F   UNL     1      48.179   9.467  18.096  0.00  0.00    +0.000 F 
ATOM      7  C   UNL     1      48.485   7.131  18.113  0.00  0.00    +0.000 A 
ATOM      8  C   UNL     1      48.760   5.966  17.406  0.00  0.00    +0.000 A 
ATOM      9  C   UNL     1      48.929   6.014  16.018  0.00  0.00    +0.000 A 
BRANCH   8  10
ATOM     10  O   UNL     1      48.776   4.780  18.104  0.00  0.00    +0.000 OA
BRANCH  10  11
ATOM     11  C   UNL     1      49.163   3.652  17.501  0.00  0.00    +0.000 A 
ATOM     12  C   UNL     1      48.530   2.702  16.721  0.00  0.00    +0.000 A 
ATOM     13  N   UNL     1      49.389   1.693  16.372  0.00  0.00    +0.000 NA
ATOM     14  C   UNL     1      50.542   2.023  16.907  0.00  0.00    +0.000 A 
ATOM     15  N   UNL     1      50.458   3.206  17.584  0.00  0.00    +0.000 N 
ATOM     16  C   UNL     1      51.533   3.839  18.305  0.00  0.00    +0.000 C 
ENDBRANCH  10  11
ENDBRANCH   8  10
ENDBRANCH   2   3
BRANCH   2  17
ATOM     17  O   UNL     1      48.521   6.116  13.176  0.00  0.00    +0.000 OA
BRANCH  17  18
ATOM     18  C   UNL     1      47.215   6.167  12.731  0.00  0.00    +0.000 A 
ATOM     19  C   UNL     1      46.659   7.315  12.153  0.00  0.00    +0.000 A 
ATOM     20  C   UNL     1      45.317   7.332  11.753  0.00  0.00    +0.000 A 
ATOM     21  C   UNL     1      44.515   6.198  11.918  0.00  0.00    +0.000 A 
ATOM     22  C   UNL     1      45.063   5.056  12.517  0.00  0.00    +0.000 A 
ATOM     23  C   UNL     1      46.403   5.047  12.936  0.00  0.00    +0.000 A 
ATOM     24 CL   UNL     1      46.996   3.631  13.724  0.00  0.00    +0.000 Cl
BRANCH  21  25
ATOM     25  C   UNL     1      43.091   6.135  11.482  0.00  0.00    +0.000 C 
ATOM     26  N   UNL     1      42.469   7.291  11.085  0.00  0.00    +0.000 N 
ATOM     27  O   UNL     1      42.469   5.078  11.474  0.00  0.00    +0.000 OA
ATOM     28  H   UNL     1      42.869   8.213  11.119  0.00  0.00    +0.000 HD
ATOM     29  H   UNL     1      41.496   7.208  10.817  0.00  0.00    +0.000 HD
ENDBRANCH  21  25
ENDBRANCH  17  18
ENDBRANCH   2  17
TORSDOF 6
ENDMDL
MODEL 7
REMARK VINA RESULT:    -7.458      3.923      5.405
REMARK INTER + INTRA:         -10.409
REMARK INTER:                  -9.355
REMARK INTRA:                  -1.055
REMARK UNBOUND:                -0.336
REMARK  Name = 
REMARK  8 active torsions:
REMARK  status: ('A' for Active; 'I' for Inactive)
REMARK    1  A    between atoms: C_1  and  C_2
REMARK    2  A    between atoms: C_2  and  O_3
REMARK    3  A    between atoms: C_2  and  C_14
REMARK    4  A    between atoms: O_3  and  C_4
REMARK    5  A    between atoms: C_7  and  C_8
REMARK    6  A    between atoms: C_19  and  O_20
REMARK    7  A    between atoms: O_20  and  C_21
REMARK    8  A    between atoms: N_25  and  C_26
REMARK                            x       y       z     vdW  Elec       q    Type
REMARK                         _______ _______ _______ _____ _____    ______ ____
ROOT
ATOM      1  C   UNL     1      44.319   4.497  12.815  0.00  0.00    +0.000 C 
ATOM      2  C   UNL     1      44.813   5.303  11.660  0.00  0.00    +0.000 C 
ENDROOT
BRANCH   2   3
ATOM      3  C   UNL     1      45.391   6.649  11.819  0.00  0.00    +0.000 A 
ATOM      4  C   UNL     1      46.764   6.874  11.978  0.00  0.00    +0.000 A 
ATOM      5  C   UNL     1      47.260   8.175  12.065  0.00  0.00    +0.000 A 
ATOM      6  F   UNL     1      48.581   8.361  12.190  0.00  0.00    +0.000 F 
ATOM      7  C   UNL     1      46.418   9.277  12.012  0.00  0.00    +0.000 A 
ATOM      8  C   UNL     1      45.049   9.070  11.890  0.00  0.00    +0.000 A 
ATOM      9  C   UNL     1      44.548   7.769  11.769  0.00  0.00    +0.000 A 
BRANCH   8  10
ATOM     10  O   UNL     1      44.236  10.177  11.811  0.00  0.00    +0.000 OA
BRANCH  10  11
ATOM     11  C   UNL     1      43.667  10.511  10.649  0.00  0.00    +0.000 A 
ATOM     12  C   UNL     1      44.124  10.669   9.354  0.00  0.00    +0.000 A 
ATOM     13  N   UNL     1      43.114  11.065   8.515  0.00  0.00    +0.000 NA
ATOM     14  C   UNL     1      42.044  11.128   9.273  0.00  0.00    +0.000 A 
ATOM     15  N   UNL     1      42.325  10.786  10.565  0.00  0.00    +0.000 N 
ATOM     16  C   UNL     1      41.382  10.774  11.655  0.00  0.00    +0.000 C 
ENDBRANCH  10  11
ENDBRANCH   8  10
ENDBRANCH   2   3
BRANCH   2  17
ATOM     17  O   UNL     1      44.281   5.000  10.412  0.00  0.00    +0.000 OA
BRANCH  17  18
ATOM     18  C   UNL     1      45.060   4.295   9.517  0.00  0.00    +0.000 A 
ATOM     19  C   UNL     1      45.892   4.922   8.582  0.00  0.00    +0.000 A 
ATOM     20  C   UNL     1      46.632   4.164   7.666  0.00  0.00    +0.000 A 
ATOM     21  C   UNL     1      46.558   2.768   7.680  0.00  0.00    +0.000 A 
ATOM     22  C   UNL     1      45.709   2.138   8.600  0.00  0.00    +0.000 A 
ATOM     23  C   UNL     1      44.951   2.900   9.503  0.00  0.00    +0.000 A 
ATOM     24 CL   UNL     1      43.877   2.065  10.566  0.00  0.00    +0.000 Cl
BRANCH  21  25
ATOM     25  C   UNL     1      47.346   1.899   6.759  0.00  0.00    +0.000 C 
ATOM     26  N   UNL     1      48.494   2.398   6.199  0.00  0.00    +0.000 N 
ATOM     27  O   UNL     1      46.990   0.756   6.495  0.00  0.00    +0.000 OA
ATOM     28  H   UNL     1      48.833   3.340   6.300  0.00  0.00    +0.000 HD
ATOM     29  H   UNL     1      48.988   1.784   5.564  0.00  0.00    +0.000 HD
ENDBRANCH  21  25
ENDBRANCH  17  18
ENDBRANCH   2  17
TORSDOF 6
ENDMDL
MODEL 8
REMARK VINA RESULT:    -7.406      1.817      2.449
REMARK INTER + INTRA:         -10.340
REMARK INTER:                  -9.475
REMARK INTRA:                  -0.865
REMARK UNBOUND:                -0.336
REMARK  Name = 
REMARK  8 active torsions:
REMARK  status: ('A' for Active; 'I' for Inactive)
REMARK    1  A    between atoms: C_1  and  C_2
REMARK    2  A    between atoms: C_2  and  O_3
REMARK    3  A    between atoms: C_2  and  C_14
REMARK    4  A    between atoms: O_3  and  C_4
REMARK    5  A    between atoms: C_7  and  C_8
REMARK    6  A    between atoms: C_19  and  O_20
REMARK    7  A    between atoms: O_20  and  C_21
REMARK    8  A    between atoms: N_25  and  C_26
REMARK                            x       y       z     vdW  Elec       q    Type
REMARK                         _______ _______ _______ _____ _____    ______ ____
ROOT
ATOM      1  C   UNL     1      43.682   3.648  12.529  0.00  0.00    +0.000 C 
ATOM      2  C   UNL     1      44.491   4.492  11.601  0.00  0.00    +0.000 C 
ENDROOT
BRANCH   2   3
ATOM      3  C   UNL     1      45.292   5.639  12.064  0.00  0.00    +0.000 A 
ATOM      4  C   UNL     1      44.786   6.943  12.131  0.00  0.00    +0.000 A 
ATOM      5  C   UNL     1      45.572   7.979  12.634  0.00  0.00    +0.000 A 
ATOM      6  F   UNL     1      45.053   9.213  12.711  0.00  0.00    +0.000 F 
ATOM      7  C   UNL     1      46.873   7.760  13.066  0.00  0.00    +0.000 A 
ATOM      8  C   UNL     1      47.401   6.477  12.973  0.00  0.00    +0.000 A 
ATOM      9  C   UNL     1      46.608   5.426  12.500  0.00  0.00    +0.000 A 
BRANCH   8  10
ATOM     10  O   UNL     1      48.683   6.275  13.433  0.00  0.00    +0.000 OA
BRANCH  10  11
ATOM     11  C   UNL     1      49.101   6.885  14.546  0.00  0.00    +0.000 A 
ATOM     12  C   UNL     1      48.826   6.740  15.893  0.00  0.00    +0.000 A 
ATOM     13  N   UNL     1      49.512   7.663  16.641  0.00  0.00    +0.000 NA
ATOM     14  C   UNL     1      50.217   8.352  15.774  0.00  0.00    +0.000 A 
ATOM     15  N   UNL     1      50.014   7.908  14.499  0.00  0.00    +0.000 N 
ATOM     16  C   UNL     1      50.615   8.461  13.312  0.00  0.00    +0.000 C 
ENDBRANCH  10  11
ENDBRANCH   8  10
ENDBRANCH   2   3
BRANCH   2  17
ATOM     17  O   UNL     1      44.101   4.506  10.267  0.00  0.00    +0.000 OA
BRANCH  17  18
ATOM     18  C   UNL     1      44.962   3.985   9.323  0.00  0.00    +0.000 A 
ATOM     19  C   UNL     1      45.803   4.788   8.542  0.00  0.00    +0.000 A 
ATOM     20  C   UNL     1      46.630   4.215   7.568  0.00  0.00    +0.000 A 
ATOM     21  C   UNL     1      46.635   2.832   7.368  0.00  0.00    +0.000 A 
ATOM     22  C   UNL     1      45.779   2.028   8.133  0.00  0.00    +0.000 A 
ATOM     23  C   UNL     1      44.934   2.604   9.094  0.00  0.00    +0.000 A 
ATOM     24 CL   UNL     1      43.859   1.566   9.956  0.00  0.00    +0.000 Cl
BRANCH  21  25
ATOM     25  C   UNL     1      47.517   2.153   6.375  0.00  0.00    +0.000 C 
ATOM     26  N   UNL     1      48.841   2.506   6.316  0.00  0.00    +0.000 N 
ATOM     27  O   UNL     1      47.084   1.294   5.615  0.00  0.00    +0.000 OA
ATOM     28  H   UNL     1      49.275   3.241   6.847  0.00  0.00    +0.000 HD
ATOM     29  H   UNL     1      49.399   2.036   5.614  0.00  0.00    +0.000 HD
ENDBRANCH  21  25
ENDBRANCH  17  18
ENDBRANCH   2  17
TORSDOF 6
ENDMDL
MODEL 9
REMARK VINA RESULT:    -7.337      3.531      7.354
REMARK INTER + INTRA:         -10.246
REMARK INTER:                  -9.103
REMARK INTRA:                  -1.143
REMARK UNBOUND:                -0.336
REMARK  Name = 
REMARK  8 active torsions:
REMARK  status: ('A' for Active; 'I' for Inactive)
REMARK    1  A    between atoms: C_1  and  C_2
REMARK    2  A    between atoms: C_2  and  O_3
REMARK    3  A    between atoms: C_2  and  C_14
REMARK    4  A    between atoms: O_3  and  C_4
REMARK    5  A    between atoms: C_7  and  C_8
REMARK    6  A    between atoms: C_19  and  O_20
REMARK    7  A    between atoms: O_20  and  C_21
REMARK    8  A    between atoms: N_25  and  C_26
REMARK                            x       y       z     vdW  Elec       q    Type
REMARK                         _______ _______ _______ _____ _____    ______ ____
ROOT
ATOM      1  C   UNL     1      47.240   3.922  14.125  0.00  0.00    +0.000 C 
ATOM      2  C   UNL     1      46.194   4.929  13.779  0.00  0.00    +0.000 C 
ENDROOT
BRANCH   2   3
ATOM      3  C   UNL     1      45.135   4.666  12.789  0.00  0.00    +0.000 A 
ATOM      4  C   UNL     1      43.881   5.288  12.833  0.00  0.00    +0.000 A 
ATOM      5  C   UNL     1      42.938   5.045  11.834  0.00  0.00    +0.000 A 
ATOM      6  F   UNL     1      41.755   5.674  11.888  0.00  0.00    +0.000 F 
ATOM      7  C   UNL     1      43.201   4.178  10.783  0.00  0.00    +0.000 A 
ATOM      8  C   UNL     1      44.429   3.526  10.744  0.00  0.00    +0.000 A 
ATOM      9  C   UNL     1      45.392   3.789  11.725  0.00  0.00    +0.000 A 
BRANCH   8  10
ATOM     10  O   UNL     1      44.680   2.693   9.678  0.00  0.00    +0.000 OA
BRANCH  10  11
ATOM     11  C   UNL     1      45.447   3.109   8.667  0.00  0.00    +0.000 A 
ATOM     12  C   UNL     1      45.734   4.341   8.109  0.00  0.00    +0.000 A 
ATOM     13  N   UNL     1      46.578   4.216   7.036  0.00  0.00    +0.000 NA
ATOM     14  C   UNL     1      46.829   2.930   6.944  0.00  0.00    +0.000 A 
ATOM     15  N   UNL     1      46.181   2.224   7.917  0.00  0.00    +0.000 N 
ATOM     16  C   UNL     1      46.223   0.794   8.085  0.00  0.00    +0.000 C 
ENDBRANCH  10  11
ENDBRANCH   8  10
ENDBRANCH   2   3
BRANCH   2  17
ATOM     17  O   UNL     1      46.507   6.262  14.014  0.00  0.00    +0.000 OA
BRANCH  17  18
ATOM     18  C   UNL     1      47.638   6.788  13.422  0.00  0.00    +0.000 A 
ATOM     19  C   UNL     1      47.743   6.991  12.041  0.00  0.00    +0.000 A 
ATOM     20  C   UNL     1      48.926   7.490  11.483  0.00  0.00    +0.000 A 
ATOM     21  C   UNL     1      50.018   7.801  12.299  0.00  0.00    +0.000 A 
ATOM     22  C   UNL     1      49.923   7.578  13.679  0.00  0.00    +0.000 A 
ATOM     23  C   UNL     1      48.744   7.058  14.236  0.00  0.00    +0.000 A 
ATOM     24 CL   UNL     1      48.717   6.747  15.933  0.00  0.00    +0.000 Cl
BRANCH  21  25
ATOM     25  C   UNL     1      51.293   8.369  11.776  0.00  0.00    +0.000 C 
ATOM     26  N   UNL     1      51.693   8.039  10.506  0.00  0.00    +0.000 N 
ATOM     27  O   UNL     1      51.986   9.119  12.454  0.00  0.00    +0.000 OA
ATOM     28  H   UNL     1      51.231   7.384   9.899  0.00  0.00    +0.000 HD
ATOM     29  H   UNL     1      52.574   8.429  10.197  0.00  0.00    +0.000 HD
ENDBRANCH  21  25
ENDBRANCH  17  18
ENDBRANCH   2  17
TORSDOF 6
ENDMDL
