MODEL 1
REMARK VINA RESULT:    -7.868      0.000      0.000
REMARK INTER + INTRA:         -11.330
REMARK INTER:                 -10.627
REMARK INTRA:                  -0.703
REMARK UNBOUND:                -0.703
REMARK  Name = 
REMARK  8 active torsions:
REMARK  status: ('A' for Active; 'I' for Inactive)
REMARK    1  A    between atoms: C_1  and  C_2
REMARK    2  A    between atoms: N_4  and  C_5
REMARK    3  A    between atoms: C_5  and  C_6
REMARK    4  A    between atoms: C_6  and  C_7
REMARK    5  A    between atoms: C_11  and  O_12
REMARK    6  A    between atoms: O_12  and  C_13
REMARK    7  A    between atoms: N_15  and  C_16
REMARK    8  A    between atoms: C_21  and  C_22
REMARK                            x       y       z     vdW  Elec       q    Type
REMARK                         _______ _______ _______ _____ _____    ______ ____
ROOT
ATOM      1  C   UNL     1      44.095   3.389  10.512  0.00  0.00    +0.000 C 
ENDROOT
BRANCH   1   5
ATOM      2  C   UNL     1      46.525   0.234   7.833  0.00  0.00    +0.000 C 
ATOM      3  C   UNL     1      46.170   1.695   7.993  0.00  0.00    +0.000 C 
ATOM      4  N   UNL     1      45.351   1.826   9.081  0.00  0.00    +0.000 NA
ATOM      5  N   UNL     1      44.964   3.218   9.351  0.00  0.00    +0.000 N 
ATOM      6  C   UNL     1      45.421   4.246   8.558  0.00  0.00    +0.000 C 
ATOM      7  C   UNL     1      46.222   4.049   7.509  0.00  0.00    +0.000 C 
ATOM      8  C   UNL     1      46.645   2.683   7.169  0.00  0.00    +0.000 C 
BRANCH   8   9
ATOM      9  C   UNL     1      47.579   2.595   5.980  0.00  0.00    +0.000 C 
ATOM     10  N   UNL     1      48.922   2.587   6.178  0.00  0.00    +0.000 N 
ATOM     11  O   UNL     1      47.174   2.469   4.822  0.00  0.00    +0.000 OA
ATOM     12  H   UNL     1      49.330   2.561   7.094  0.00  0.00    +0.000 HD
ATOM     13  H   UNL     1      49.505   2.463   5.367  0.00  0.00    +0.000 HD
ENDBRANCH   8   9
ENDBRANCH   1   5
BRANCH   1  14
ATOM     14  C   UNL     1      44.127   4.834  11.032  0.00  0.00    +0.000 C 
BRANCH  14  15
ATOM     15  C   UNL     1      45.269   5.151  11.981  0.00  0.00    +0.000 A 
ATOM     16  C   UNL     1      46.107   6.243  11.717  0.00  0.00    +0.000 A 
ATOM     17  C   UNL     1      47.151   6.566  12.590  0.00  0.00    +0.000 A 
ATOM     18  C   UNL     1      47.387   5.797  13.738  0.00  0.00    +0.000 A 
ATOM     19  C   UNL     1      46.586   4.685  13.987  0.00  0.00    +0.000 A 
ATOM     20  C   UNL     1      45.546   4.365  13.105  0.00  0.00    +0.000 A 
BRANCH  19  21
ATOM     21  O   UNL     1      46.652   3.852  15.073  0.00  0.00    +0.000 OA
BRANCH  21  22
ATOM     22  C   UNL     1      47.702   4.001  16.045  0.00  0.00    +0.000 C 
ATOM     23  C   UNL     1      48.166   2.756  16.836  0.00  0.00    +0.000 C 
ATOM     24  N   UNL     1      48.075   3.519  18.105  0.00  0.00    +0.000 NA
ATOM     25  C   UNL     1      49.367   4.110  18.451  0.00  0.00    +0.000 C 
ATOM     26  C   UNL     1      47.222   4.521  17.428  0.00  0.00    +0.000 C 
ENDBRANCH  21  22
ENDBRANCH  19  21
ENDBRANCH  14  15
ENDBRANCH   1  14
TORSDOF 6
ENDMDL
MODEL 2
REMARK VINA RESULT:    -6.892      2.613      4.061
REMARK INTER + INTRA:         -10.013
REMARK INTER:                  -9.205
REMARK INTRA:                  -0.807
REMARK UNBOUND:                -0.703
REMARK  Name = 
REMARK  8 active torsions:
REMARK  status: ('A' for Active; 'I' for Inactive)
REMARK    1  A    between atoms: C_1  and  C_2
REMARK    2  A    between atoms: N_4  and  C_5
REMARK    3  A    between atoms: C_5  and  C_6
REMARK    4  A    between atoms: C_6  and  C_7
REMARK    5  A    between atoms: C_11  and  O_12
REMARK    6  A    between atoms: O_12  and  C_13
REMARK    7  A    between atoms: N_15  and  C_16
REMARK    8  A    between atoms: C_21  and  C_22
REMARK                            x       y       z     vdW  Elec       q    Type
REMARK                         _______ _______ _______ _____ _____    ______ ____
ROOT
ATOM      1  C   UNL     1      44.145   3.716  10.498  0.00  0.00    +0.000 C 
ENDROOT
BRANCH   1   5
ATOM      2  C   UNL     1      46.395   0.309   7.976  0.00  0.00    +0.000 C 
ATOM      3  C   UNL     1      46.113   1.793   8.060  0.00  0.00    +0.000 C 
ATOM      4  N   UNL     1      45.311   2.020   9.145  0.00  0.00    +0.000 NA
ATOM      5  N   UNL     1      44.994   3.442   9.343  0.00  0.00    +0.000 N 
ATOM      6  C   UNL     1      45.495   4.403   8.494  0.00  0.00    +0.000 C 
ATOM      7  C   UNL     1      46.276   4.112   7.453  0.00  0.00    +0.000 C 
ATOM      8  C   UNL     1      46.629   2.711   7.182  0.00  0.00    +0.000 C 
BRANCH   8   9
ATOM      9  C   UNL     1      47.547   2.514   5.995  0.00  0.00    +0.000 C 
ATOM     10  N   UNL     1      48.892   2.476   6.183  0.00  0.00    +0.000 N 
ATOM     11  O   UNL     1      47.127   2.326   4.850  0.00  0.00    +0.000 OA
ATOM     12  H   UNL     1      49.308   2.498   7.095  0.00  0.00    +0.000 HD
ATOM     13  H   UNL     1      49.463   2.280   5.377  0.00  0.00    +0.000 HD
ENDBRANCH   8   9
ENDBRANCH   1   5
BRANCH   1  14
ATOM     14  C   UNL     1      44.345   5.148  11.018  0.00  0.00    +0.000 C 
BRANCH  14  15
ATOM     15  C   UNL     1      45.447   5.308  12.051  0.00  0.00    +0.000 A 
ATOM     16  C   UNL     1      45.404   4.556  13.232  0.00  0.00    +0.000 A 
ATOM     17  C   UNL     1      46.420   4.672  14.187  0.00  0.00    +0.000 A 
ATOM     18  C   UNL     1      47.492   5.552  13.986  0.00  0.00    +0.000 A 
ATOM     19  C   UNL     1      47.521   6.335  12.834  0.00  0.00    +0.000 A 
ATOM     20  C   UNL     1      46.498   6.217  11.886  0.00  0.00    +0.000 A 
BRANCH  19  21
ATOM     21  O   UNL     1      48.507   7.212  12.463  0.00  0.00    +0.000 OA
BRANCH  21  22
ATOM     22  C   UNL     1      48.172   8.479  11.868  0.00  0.00    +0.000 C 
ATOM     23  C   UNL     1      49.314   9.459  11.514  0.00  0.00    +0.000 C 
ATOM     24  N   UNL     1      48.580  10.566  12.177  0.00  0.00    +0.000 NA
ATOM     25  C   UNL     1      47.768  11.303  11.210  0.00  0.00    +0.000 C 
ATOM     26  C   UNL     1      47.746   9.570  12.888  0.00  0.00    +0.000 C 
ENDBRANCH  21  22
ENDBRANCH  19  21
ENDBRANCH  14  15
ENDBRANCH   1  14
TORSDOF 6
ENDMDL
MODEL 3
REMARK VINA RESULT:    -6.739      2.086      8.586
REMARK INTER + INTRA:          -9.805
REMARK INTER:                  -9.354
REMARK INTRA:                  -0.451
REMARK UNBOUND:                -0.703
REMARK  Name = 
REMARK  8 active torsions:
REMARK  status: ('A' for Active; 'I' for Inactive)
REMARK    1  A    between atoms: C_1  and  C_2
REMARK    2  A    between atoms: N_4  and  C_5
REMARK    3  A    between atoms: C_5  and  C_6
REMARK    4  A    between atoms: C_6  and  C_7
REMARK    5  A    between atoms: C_11  and  O_12
REMARK    6  A    between atoms: O_12  and  C_13
REMARK    7  A    between atoms: N_15  and  C_16
REMARK    8  A    between atoms: C_21  and  C_22
REMARK                            x       y       z     vdW  Elec       q    Type
REMARK                         _______ _______ _______ _____ _____    ______ ____
ROOT
ATOM      1  C   UNL     1      47.224   6.603  12.082  0.00  0.00    +0.000 C 
ENDROOT
BRANCH   1   5
ATOM      2  C   UNL     1      49.173   6.740  16.465  0.00  0.00    +0.000 C 
ATOM      3  C   UNL     1      48.257   5.957  15.551  0.00  0.00    +0.000 C 
ATOM      4  N   UNL     1      48.173   6.616  14.354  0.00  0.00    +0.000 NA
ATOM      5  N   UNL     1      47.326   5.926  13.371  0.00  0.00    +0.000 N 
ATOM      6  C   UNL     1      46.713   4.733  13.679  0.00  0.00    +0.000 C 
ATOM      7  C   UNL     1      46.838   4.142  14.868  0.00  0.00    +0.000 C 
ATOM      8  C   UNL     1      47.661   4.775  15.908  0.00  0.00    +0.000 C 
BRANCH   8   9
ATOM      9  C   UNL     1      47.751   3.991  17.200  0.00  0.00    +0.000 C 
ATOM     10  N   UNL     1      47.236   4.514  18.342  0.00  0.00    +0.000 N 
ATOM     11  O   UNL     1      48.227   2.854  17.259  0.00  0.00    +0.000 OA
ATOM     12  H   UNL     1      46.724   5.376  18.356  0.00  0.00    +0.000 HD
ATOM     13  H   UNL     1      47.260   3.934  19.165  0.00  0.00    +0.000 HD
ENDBRANCH   8   9
ENDBRANCH   1   5
BRANCH   1  14
ATOM     14  C   UNL     1      45.768   6.678  11.598  0.00  0.00    +0.000 C 
BRANCH  14  15
ATOM     15  C   UNL     1      45.328   5.536  10.699  0.00  0.00    +0.000 A 
ATOM     16  C   UNL     1      44.321   4.662  11.130  0.00  0.00    +0.000 A 
ATOM     17  C   UNL     1      43.886   3.617  10.309  0.00  0.00    +0.000 A 
ATOM     18  C   UNL     1      44.457   3.416   9.046  0.00  0.00    +0.000 A 
ATOM     19  C   UNL     1      45.488   4.254   8.625  0.00  0.00    +0.000 A 
ATOM     20  C   UNL     1      45.921   5.294   9.455  0.00  0.00    +0.000 A 
BRANCH  19  21
ATOM     21  O   UNL     1      46.128   4.224   7.413  0.00  0.00    +0.000 OA
BRANCH  21  22
ATOM     22  C   UNL     1      46.295   2.982   6.706  0.00  0.00    +0.000 C 
ATOM     23  C   UNL     1      47.324   1.957   7.235  0.00  0.00    +0.000 C 
ATOM     24  N   UNL     1      47.883   1.802   5.869  0.00  0.00    +0.000 NA
ATOM     25  C   UNL     1      47.256   0.679   5.175  0.00  0.00    +0.000 C 
ATOM     26  C   UNL     1      47.235   3.072   5.473  0.00  0.00    +0.000 C 
ENDBRANCH  21  22
ENDBRANCH  19  21
ENDBRANCH  14  15
ENDBRANCH   1  14
TORSDOF 6
ENDMDL
MODEL 4
REMARK VINA RESULT:    -6.244      3.067      8.514
REMARK INTER + INTRA:          -9.136
REMARK INTER:                  -8.691
REMARK INTRA:                  -0.446
REMARK UNBOUND:                -0.703
REMARK  Name = 
REMARK  8 active torsions:
REMARK  status: ('A' for Active; 'I' for Inactive)
REMARK    1  A    between atoms: C_1  and  C_2
REMARK    2  A    between atoms: N_4  and  C_5
REMARK    3  A    between atoms: C_5  and  C_6
REMARK    4  A    between atoms: C_6  and  C_7
REMARK    5  A    between atoms: C_11  and  O_12
REMARK    6  A    between atoms: O_12  and  C_13
REMARK    7  A    between atoms: N_15  and  C_16
REMARK    8  A    between atoms: C_21  and  C_22
REMARK                            x       y       z     vdW  Elec       q    Type
REMARK                         _______ _______ _______ _____ _____    ______ ____
ROOT
ATOM      1  C   UNL     1      47.987   5.122  16.399  0.00  0.00    +0.000 C 
ENDROOT
BRANCH   1   5
ATOM      2  C   UNL     1      52.515   4.433  17.834  0.00  0.00    +0.000 C 
ATOM      3  C   UNL     1      51.227   3.738  17.453  0.00  0.00    +0.000 C 
ATOM      4  N   UNL     1      50.294   4.692  17.150  0.00  0.00    +0.000 NA
ATOM      5  N   UNL     1      49.001   4.127  16.735  0.00  0.00    +0.000 N 
ATOM      6  C   UNL     1      48.814   2.765  16.667  0.00  0.00    +0.000 C 
ATOM      7  C   UNL     1      49.770   1.887  16.976  0.00  0.00    +0.000 C 
ATOM      8  C   UNL     1      51.087   2.375  17.409  0.00  0.00    +0.000 C 
BRANCH   8   9
ATOM      9  C   UNL     1      52.096   1.283  17.697  0.00  0.00    +0.000 C 
ATOM     10  N   UNL     1      51.676   0.097  18.208  0.00  0.00    +0.000 N 
ATOM     11  O   UNL     1      53.296   1.396  17.433  0.00  0.00    +0.000 OA
ATOM     12  H   UNL     1      50.705  -0.120  18.336  0.00  0.00    +0.000 HD
ATOM     13  H   UNL     1      52.369  -0.624  18.326  0.00  0.00    +0.000 HD
ENDBRANCH   8   9
ENDBRANCH   1   5
BRANCH   1  14
ATOM     14  C   UNL     1      48.596   6.315  15.648  0.00  0.00    +0.000 C 
BRANCH  14  15
ATOM     15  C   UNL     1      48.090   6.508  14.229  0.00  0.00    +0.000 A 
ATOM     16  C   UNL     1      48.871   7.216  13.305  0.00  0.00    +0.000 A 
ATOM     17  C   UNL     1      48.435   7.386  11.987  0.00  0.00    +0.000 A 
ATOM     18  C   UNL     1      47.204   6.863  11.569  0.00  0.00    +0.000 A 
ATOM     19  C   UNL     1      46.401   6.195  12.491  0.00  0.00    +0.000 A 
ATOM     20  C   UNL     1      46.843   6.033  13.810  0.00  0.00    +0.000 A 
BRANCH  19  21
ATOM     21  O   UNL     1      45.195   5.593  12.245  0.00  0.00    +0.000 OA
BRANCH  21  22
ATOM     22  C   UNL     1      45.061   4.630  11.185  0.00  0.00    +0.000 C 
ATOM     23  C   UNL     1      43.678   4.442  10.520  0.00  0.00    +0.000 C 
ATOM     24  N   UNL     1      43.802   2.970  10.660  0.00  0.00    +0.000 NA
ATOM     25  C   UNL     1      44.365   2.378   9.448  0.00  0.00    +0.000 C 
ATOM     26  C   UNL     1      44.865   3.168  11.671  0.00  0.00    +0.000 C 
ENDBRANCH  21  22
ENDBRANCH  19  21
ENDBRANCH  14  15
ENDBRANCH   1  14
TORSDOF 6
ENDMDL
MODEL 5
REMARK VINA RESULT:    -6.230      2.871      7.965
REMARK INTER + INTRA:          -9.117
REMARK INTER:                  -8.400
REMARK INTRA:                  -0.717
REMARK UNBOUND:                -0.703
REMARK  Name = 
REMARK  8 active torsions:
REMARK  status: ('A' for Active; 'I' for Inactive)
REMARK    1  A    between atoms: C_1  and  C_2
REMARK    2  A    between atoms: N_4  and  C_5
REMARK    3  A    between atoms: C_5  and  C_6
REMARK    4  A    between atoms: C_6  and  C_7
REMARK    5  A    between atoms: C_11  and  O_12
REMARK    6  A    between atoms: O_12  and  C_13
REMARK    7  A    between atoms: N_15  and  C_16
REMARK    8  A    between atoms: C_21  and  C_22
REMARK                            x       y       z     vdW  Elec       q    Type
REMARK                         _______ _______ _______ _____ _____    ______ ____
ROOT
ATOM      1  C   UNL     1      43.318   5.844  12.588  0.00  0.00    +0.000 C 
ENDROOT
BRANCH   1   5
ATOM      2  C   UNL     1      46.767   9.181  12.551  0.00  0.00    +0.000 C 
ATOM      3  C   UNL     1      46.449   7.746  12.905  0.00  0.00    +0.000 C 
ATOM      4  N   UNL     1      45.133   7.510  12.615  0.00  0.00    +0.000 NA
ATOM      5  N   UNL     1      44.717   6.127  12.895  0.00  0.00    +0.000 N 
ATOM      6  C   UNL     1      45.612   5.206  13.388  0.00  0.00    +0.000 C 
ATOM      7  C   UNL     1      46.886   5.503  13.649  0.00  0.00    +0.000 C 
ATOM      8  C   UNL     1      47.375   6.867  13.405  0.00  0.00    +0.000 C 
BRANCH   8   9
ATOM      9  C   UNL     1      48.845   7.069  13.706  0.00  0.00    +0.000 C 
ATOM     10  N   UNL     1      49.230   7.463  14.947  0.00  0.00    +0.000 N 
ATOM     11  O   UNL     1      49.734   6.834  12.883  0.00  0.00    +0.000 OA
ATOM     12  H   UNL     1      48.581   7.556  15.707  0.00  0.00    +0.000 HD
ATOM     13  H   UNL     1      50.219   7.524  15.124  0.00  0.00    +0.000 HD
ENDBRANCH   8   9
ENDBRANCH   1   5
BRANCH   1  14
ATOM     14  C   UNL     1      43.096   5.671  11.078  0.00  0.00    +0.000 C 
BRANCH  14  15
ATOM     15  C   UNL     1      43.746   4.442  10.468  0.00  0.00    +0.000 A 
ATOM     16  C   UNL     1      43.485   3.178  11.013  0.00  0.00    +0.000 A 
ATOM     17  C   UNL     1      44.056   2.031  10.453  0.00  0.00    +0.000 A 
ATOM     18  C   UNL     1      44.909   2.124   9.346  0.00  0.00    +0.000 A 
ATOM     19  C   UNL     1      45.209   3.381   8.823  0.00  0.00    +0.000 A 
ATOM     20  C   UNL     1      44.637   4.525   9.393  0.00  0.00    +0.000 A 
BRANCH  19  21
ATOM     21  O   UNL     1      45.988   3.650   7.729  0.00  0.00    +0.000 OA
BRANCH  21  22
ATOM     22  C   UNL     1      46.280   2.621   6.768  0.00  0.00    +0.000 C 
ATOM     23  C   UNL     1      47.488   1.689   7.019  0.00  0.00    +0.000 C 
ATOM     24  N   UNL     1      47.953   1.905   5.626  0.00  0.00    +0.000 NA
ATOM     25  C   UNL     1      47.445   0.858   4.741  0.00  0.00    +0.000 C 
ATOM     26  C   UNL     1      47.094   3.107   5.538  0.00  0.00    +0.000 C 
ENDBRANCH  21  22
ENDBRANCH  19  21
ENDBRANCH  14  15
ENDBRANCH   1  14
TORSDOF 6
ENDMDL
MODEL 6
REMARK VINA RESULT:    -6.185      3.923      8.316
REMARK INTER + INTRA:          -9.057
REMARK INTER:                  -8.220
REMARK INTRA:                  -0.837
REMARK UNBOUND:                -0.703
REMARK  Name = 
REMARK  8 active torsions:
REMARK  status: ('A' for Active; 'I' for Inactive)
REMARK    1  A    between atoms: C_1  and  C_2
REMARK    2  A    between atoms: N_4  and  C_5
REMARK    3  A    between atoms: C_5  and  C_6
REMARK    4  A    between atoms: C_6  and  C_7
REMARK    5  A    between atoms: C_11  and  O_12
REMARK    6  A    between atoms: O_12  and  C_13
REMARK    7  A    between atoms: N_15  and  C_16
REMARK    8  A    between atoms: C_21  and  C_22
REMARK                            x       y       z     vdW  Elec       q    Type
REMARK                         _______ _______ _______ _____ _____    ______ ____
ROOT
ATOM      1  C   UNL     1      49.615   7.666  13.625  0.00  0.00    +0.000 C 
ENDROOT
BRANCH   1   5
ATOM      2  C   UNL     1      47.310   4.047  15.774  0.00  0.00    +0.000 C 
ATOM      3  C   UNL     1      48.076   5.329  16.010  0.00  0.00    +0.000 C 
ATOM      4  N   UNL     1      48.463   5.832  14.798  0.00  0.00    +0.000 NA
ATOM      5  N   UNL     1      49.196   7.102  14.904  0.00  0.00    +0.000 N 
ATOM      6  C   UNL     1      49.428   7.683  16.129  0.00  0.00    +0.000 C 
ATOM      7  C   UNL     1      49.021   7.139  17.277  0.00  0.00    +0.000 C 
ATOM      8  C   UNL     1      48.290   5.864  17.254  0.00  0.00    +0.000 C 
BRANCH   8   9
ATOM      9  C   UNL     1      47.853   5.368  18.616  0.00  0.00    +0.000 C 
ATOM     10  N   UNL     1      46.556   5.503  18.996  0.00  0.00    +0.000 N 
ATOM     11  O   UNL     1      48.615   4.785  19.391  0.00  0.00    +0.000 OA
ATOM     12  H   UNL     1      45.848   5.853  18.379  0.00  0.00    +0.000 HD
ATOM     13  H   UNL     1      46.294   5.103  19.882  0.00  0.00    +0.000 HD
ENDBRANCH   8   9
ENDBRANCH   1   5
BRANCH   1  14
ATOM     14  C   UNL     1      48.763   7.129  12.465  0.00  0.00    +0.000 C 
BRANCH  14  15
ATOM     15  C   UNL     1      47.464   7.877  12.221  0.00  0.00    +0.000 A 
ATOM     16  C   UNL     1      47.443   9.276  12.310  0.00  0.00    +0.000 A 
ATOM     17  C   UNL     1      46.263   9.986  12.067  0.00  0.00    +0.000 A 
ATOM     18  C   UNL     1      45.078   9.313  11.743  0.00  0.00    +0.000 A 
ATOM     19  C   UNL     1      45.078   7.921  11.694  0.00  0.00    +0.000 A 
ATOM     20  C   UNL     1      46.262   7.217  11.943  0.00  0.00    +0.000 A 
BRANCH  19  21
ATOM     21  O   UNL     1      44.025   7.111  11.357  0.00  0.00    +0.000 OA
BRANCH  21  22
ATOM     22  C   UNL     1      44.078   5.697  11.618  0.00  0.00    +0.000 C 
ATOM     23  C   UNL     1      43.716   4.717  10.478  0.00  0.00    +0.000 C 
ATOM     24  N   UNL     1      42.824   3.967  11.397  0.00  0.00    +0.000 NA
ATOM     25  C   UNL     1      43.534   2.848  12.013  0.00  0.00    +0.000 C 
ATOM     26  C   UNL     1      42.811   5.129  12.313  0.00  0.00    +0.000 C 
ENDBRANCH  21  22
ENDBRANCH  19  21
ENDBRANCH  14  15
ENDBRANCH   1  14
TORSDOF 6
ENDMDL
MODEL 7
REMARK VINA RESULT:    -5.986      2.994      4.685
REMARK INTER + INTRA:          -8.788
REMARK INTER:                  -8.330
REMARK INTRA:                  -0.459
REMARK UNBOUND:                -0.703
REMARK  Name = 
REMARK  8 active torsions:
REMARK  status: ('A' for Active; 'I' for Inactive)
REMARK    1  A    between atoms: C_1  and  C_2
REMARK    2  A    between atoms: N_4  and  C_5
REMARK    3  A    between atoms: C_5  and  C_6
REMARK    4  A    between atoms: C_6  and  C_7
REMARK    5  A    between atoms: C_11  and  O_12
REMARK    6  A    between atoms: O_12  and  C_13
REMARK    7  A    between atoms: N_15  and  C_16
REMARK    8  A    between atoms: C_21  and  C_22
REMARK                            x       y       z     vdW  Elec       q    Type
REMARK                         _______ _______ _______ _____ _____    ______ ____
ROOT
ATOM      1  C   UNL     1      46.678   8.083  12.162  0.00  0.00    +0.000 C 
ENDROOT
BRANCH   1   5
ATOM      2  C   UNL     1      45.453   4.638   9.054  0.00  0.00    +0.000 C 
ATOM      3  C   UNL     1      45.390   5.066  10.503  0.00  0.00    +0.000 C 
ATOM      4  N   UNL     1      46.031   6.267  10.629  0.00  0.00    +0.000 NA
ATOM      5  N   UNL     1      46.007   6.797  12.000  0.00  0.00    +0.000 N 
ATOM      6  C   UNL     1      45.375   6.111  13.012  0.00  0.00    +0.000 C 
ATOM      7  C   UNL     1      44.765   4.940  12.820  0.00  0.00    +0.000 C 
ATOM      8  C   UNL     1      44.755   4.341  11.479  0.00  0.00    +0.000 C 
BRANCH   8   9
ATOM      9  C   UNL     1      44.002   3.030  11.384  0.00  0.00    +0.000 C 
ATOM     10  N   UNL     1      43.680   2.355  12.517  0.00  0.00    +0.000 N 
ATOM     11  O   UNL     1      43.607   2.563  10.312  0.00  0.00    +0.000 OA
ATOM     12  H   UNL     1      43.855   2.727  13.433  0.00  0.00    +0.000 HD
ATOM     13  H   UNL     1      43.125   1.522  12.414  0.00  0.00    +0.000 HD
ENDBRANCH   8   9
ENDBRANCH   1   5
BRANCH   1  14
ATOM     14  C   UNL     1      48.188   7.967  11.902  0.00  0.00    +0.000 C 
BRANCH  14  15
ATOM     15  C   UNL     1      49.046   7.826  13.147  0.00  0.00    +0.000 A 
ATOM     16  C   UNL     1      50.405   8.164  13.093  0.00  0.00    +0.000 A 
ATOM     17  C   UNL     1      51.209   8.063  14.233  0.00  0.00    +0.000 A 
ATOM     18  C   UNL     1      50.675   7.610  15.446  0.00  0.00    +0.000 A 
ATOM     19  C   UNL     1      49.335   7.232  15.500  0.00  0.00    +0.000 A 
ATOM     20  C   UNL     1      48.538   7.331  14.353  0.00  0.00    +0.000 A 
BRANCH  19  21
ATOM     21  O   UNL     1      48.645   6.806  16.605  0.00  0.00    +0.000 OA
BRANCH  21  22
ATOM     22  C   UNL     1      48.496   5.402  16.877  0.00  0.00    +0.000 C 
ATOM     23  C   UNL     1      47.371   4.620  16.161  0.00  0.00    +0.000 C 
ATOM     24  N   UNL     1      46.952   4.024  17.454  0.00  0.00    +0.000 NA
ATOM     25  C   UNL     1      47.596   2.729  17.662  0.00  0.00    +0.000 C 
ATOM     26  C   UNL     1      47.697   5.084  18.170  0.00  0.00    +0.000 C 
ENDBRANCH  21  22
ENDBRANCH  19  21
ENDBRANCH  14  15
ENDBRANCH   1  14
TORSDOF 6
ENDMDL
MODEL 8
REMARK VINA RESULT:    -5.834      2.554      3.783
REMARK INTER + INTRA:          -8.583
REMARK INTER:                  -7.886
REMARK INTRA:                  -0.696
REMARK UNBOUND:                -0.703
REMARK  Name = 
REMARK  8 active torsions:
REMARK  status: ('A' for Active; 'I' for Inactive)
REMARK    1  A    between atoms: C_1  and  C_2
REMARK    2  A    between atoms: N_4  and  C_5
REMARK    3  A    between atoms: C_5  and  C_6
REMARK    4  A    between atoms: C_6  and  C_7
REMARK    5  A    between atoms: C_11  and  O_12
REMARK    6  A    between atoms: O_12  and  C_13
REMARK    7  A    between atoms: N_15  and  C_16
REMARK    8  A    between atoms: C_21  and  C_22
REMARK                            x       y       z     vdW  Elec       q    Type
REMARK                         _______ _______ _______ _____ _____    ______ ____
ROOT
ATOM      1  C   UNL     1      45.306   7.098  12.730  0.00  0.00    +0.000 C 
ENDROOT
BRANCH   1   5
ATOM      2  C   UNL     1      43.314   2.856  11.696  0.00  0.00    +0.000 C 
ATOM      3  C   UNL     1      44.206   3.957  11.167  0.00  0.00    +0.000 C 
ATOM      4  N   UNL     1      44.304   4.931  12.123  0.00  0.00    +0.000 NA
ATOM      5  N   UNL     1      45.177   6.046  11.727  0.00  0.00    +0.000 N 
ATOM      6  C   UNL     1      45.811   6.047  10.506  0.00  0.00    +0.000 C 
ATOM      7  C   UNL     1      45.672   5.062   9.617  0.00  0.00    +0.000 C 
ATOM      8  C   UNL     1      44.809   3.916   9.937  0.00  0.00    +0.000 C 
BRANCH   8   9
ATOM      9  C   UNL     1      44.761   2.849   8.864  0.00  0.00    +0.000 C 
ATOM     10  N   UNL     1      44.351   3.173   7.610  0.00  0.00    +0.000 N 
ATOM     11  O   UNL     1      45.137   1.690   9.058  0.00  0.00    +0.000 OA
ATOM     12  H   UNL     1      44.147   4.116   7.338  0.00  0.00    +0.000 HD
ATOM     13  H   UNL     1      44.394   2.449   6.912  0.00  0.00    +0.000 HD
ENDBRANCH   8   9
ENDBRANCH   1   5
BRANCH   1  14
ATOM     14  C   UNL     1      46.192   8.249  12.229  0.00  0.00    +0.000 C 
BRANCH  14  15
ATOM     15  C   UNL     1      47.642   8.187  12.676  0.00  0.00    +0.000 A 
ATOM     16  C   UNL     1      48.577   9.067  12.116  0.00  0.00    +0.000 A 
ATOM     17  C   UNL     1      49.913   9.042  12.529  0.00  0.00    +0.000 A 
ATOM     18  C   UNL     1      50.344   8.129  13.501  0.00  0.00    +0.000 A 
ATOM     19  C   UNL     1      49.430   7.221  14.033  0.00  0.00    +0.000 A 
ATOM     20  C   UNL     1      48.096   7.250  13.610  0.00  0.00    +0.000 A 
BRANCH  19  21
ATOM     21  O   UNL     1      49.671   6.293  15.011  0.00  0.00    +0.000 OA
BRANCH  21  22
ATOM     22  C   UNL     1      48.930   6.321  16.243  0.00  0.00    +0.000 C 
ATOM     23  C   UNL     1      49.676   6.037  17.567  0.00  0.00    +0.000 C 
ATOM     24  N   UNL     1      48.617   5.078  17.968  0.00  0.00    +0.000 NA
ATOM     25  C   UNL     1      47.602   5.737  18.787  0.00  0.00    +0.000 C 
ATOM     26  C   UNL     1      48.168   5.005  16.560  0.00  0.00    +0.000 C 
ENDBRANCH  21  22
ENDBRANCH  19  21
ENDBRANCH  14  15
ENDBRANCH   1  14
TORSDOF 6
ENDMDL
MODEL 9
REMARK VINA RESULT:    -5.715      4.249      8.256
REMARK INTER + INTRA:          -8.422
REMARK INTER:                  -7.853
REMARK INTRA:                  -0.569
REMARK UNBOUND:                -0.703
REMARK  Name = 
REMARK  8 active torsions:
REMARK  status: ('A' for Active; 'I' for Inactive)
REMARK    1  A    between atoms: C_1  and  C_2
REMARK    2  A    between atoms: N_4  and  C_5
REMARK    3  A    between atoms: C_5  and  C_6
REMARK    4  A    between atoms: C_6  and  C_7
REMARK    5  A    between atoms: C_11  and  O_12
REMARK    6  A    between atoms: O_12  and  C_13
REMARK    7  A    between atoms: N_15  and  C_16
REMARK    8  A    between atoms: C_21  and  C_22
REMARK                            x       y       z     vdW  Elec       q    Type
REMARK                         _______ _______ _______ _____ _____    ______ ____
ROOT
ATOM      1  C   UNL     1      49.037   7.149  16.692  0.00  0.00    +0.000 C 
ENDROOT
BRANCH   1   5
ATOM      2  C   UNL     1      48.511   2.388  16.980  0.00  0.00    +0.000 C 
ATOM      3  C   UNL     1      49.505   3.523  17.080  0.00  0.00    +0.000 C 
ATOM      4  N   UNL     1      48.846   4.698  16.838  0.00  0.00    +0.000 NA
ATOM      5  N   UNL     1      49.715   5.880  16.938  0.00  0.00    +0.000 N 
ATOM      6  C   UNL     1      51.047   5.754  17.257  0.00  0.00    +0.000 C 
ATOM      7  C   UNL     1      51.628   4.574  17.482  0.00  0.00    +0.000 C 
ATOM      8  C   UNL     1      50.828   3.345  17.392  0.00  0.00    +0.000 C 
BRANCH   8   9
ATOM      9  C   UNL     1      51.593   2.075  17.703  0.00  0.00    +0.000 C 
ATOM     10  N   UNL     1      52.630   2.112  18.578  0.00  0.00    +0.000 N 
ATOM     11  O   UNL     1      51.280   0.977  17.237  0.00  0.00    +0.000 OA
ATOM     12  H   UNL     1      52.870   2.938  19.094  0.00  0.00    +0.000 HD
ATOM     13  H   UNL     1      53.070   1.235  18.805  0.00  0.00    +0.000 HD
ENDBRANCH   8   9
ENDBRANCH   1   5
BRANCH   1  14
ATOM     14  C   UNL     1      49.687   7.919  15.532  0.00  0.00    +0.000 C 
BRANCH  14  15
ATOM     15  C   UNL     1      49.016   7.735  14.182  0.00  0.00    +0.000 A 
ATOM     16  C   UNL     1      49.785   7.796  13.012  0.00  0.00    +0.000 A 
ATOM     17  C   UNL     1      49.192   7.607  11.760  0.00  0.00    +0.000 A 
ATOM     18  C   UNL     1      47.816   7.367  11.650  0.00  0.00    +0.000 A 
ATOM     19  C   UNL     1      47.035   7.347  12.804  0.00  0.00    +0.000 A 
ATOM     20  C   UNL     1      47.636   7.542  14.053  0.00  0.00    +0.000 A 
BRANCH  19  21
ATOM     21  O   UNL     1      45.692   7.090  12.882  0.00  0.00    +0.000 OA
BRANCH  21  22
ATOM     22  C   UNL     1      45.162   5.827  12.442  0.00  0.00    +0.000 C 
ATOM     23  C   UNL     1      43.773   5.383  12.956  0.00  0.00    +0.000 C 
ATOM     24  N   UNL     1      44.318   4.045  13.294  0.00  0.00    +0.000 NA
ATOM     25  C   UNL     1      44.111   3.106  12.193  0.00  0.00    +0.000 C 
ATOM     26  C   UNL     1      45.688   4.602  13.238  0.00  0.00    +0.000 C 
ENDBRANCH  21  22
ENDBRANCH  19  21
ENDBRANCH  14  15
ENDBRANCH   1  14
TORSDOF 6
ENDMDL
