MODEL 1
REMARK VINA RESULT:    -8.307      0.000      0.000
REMARK INTER + INTRA:         -11.741
REMARK INTER:                 -10.734
REMARK INTRA:                  -1.006
REMARK UNBOUND:                -1.006
REMARK  Name = 
REMARK  5 active torsions:
REMARK  status: ('A' for Active; 'I' for Inactive)
REMARK    1  A    between atoms: C_2  and  C_4
REMARK    2  A    between atoms: C_7  and  C_8
REMARK    3  A    between atoms: C_8  and  C_9
REMARK    4  A    between atoms: C_9  and  C_10
REMARK    5  A    between atoms: C_14  and  C_15
REMARK                            x       y       z     vdW  Elec       q    Type
REMARK                         _______ _______ _______ _____ _____    ______ ____
ROOT
ATOM      1  C   UNL     1      44.037   5.368  10.844  0.00  0.00    +0.000 C 
ENDROOT
BRANCH   1   2
ATOM      2  C   UNL     1      45.106   5.296  11.902  0.00  0.00    +0.000 A 
ATOM      3  C   UNL     1      45.010   4.417  12.971  0.00  0.00    +0.000 A 
ATOM      4  N   UNL     1      45.940   4.309  13.941  0.00  0.00    +0.000 NA
ATOM      5  C   UNL     1      47.019   5.126  13.844  0.00  0.00    +0.000 A 
ATOM      6  C   UNL     1      47.247   6.045  12.817  0.00  0.00    +0.000 A 
ATOM      7  C   UNL     1      46.251   6.100  11.829  0.00  0.00    +0.000 A 
BRANCH   6   8
ATOM      8  C   UNL     1      48.449   6.909  12.773  0.00  0.00    +0.000 A 
ATOM      9  C   UNL     1      48.882   7.515  11.579  0.00  0.00    +0.000 A 
ATOM     10  C   UNL     1      50.020   8.327  11.541  0.00  0.00    +0.000 A 
ATOM     11  C   UNL     1      50.747   8.565  12.702  0.00  0.00    +0.000 A 
ATOM     12  C   UNL     1      50.343   7.984  13.898  0.00  0.00    +0.000 A 
ATOM     13  C   UNL     1      49.213   7.160  13.930  0.00  0.00    +0.000 A 
ENDBRANCH   6   8
ENDBRANCH   1   2
BRANCH   1  14
ATOM     14  C   UNL     1      43.658   3.978  10.327  0.00  0.00    +0.000 C 
BRANCH  14  18
ATOM     15  C   UNL     1      46.557   2.445   7.512  0.00  0.00    +0.000 A 
ATOM     16  C   UNL     1      46.243   3.809   7.523  0.00  0.00    +0.000 A 
ATOM     17  C   UNL     1      45.294   4.303   8.423  0.00  0.00    +0.000 A 
ATOM     18  C   UNL     1      44.653   3.442   9.325  0.00  0.00    +0.000 A 
ATOM     19  C   UNL     1      44.946   2.072   9.282  0.00  0.00    +0.000 A 
ATOM     20  C   UNL     1      45.889   1.575   8.380  0.00  0.00    +0.000 A 
BRANCH  15  22
ATOM     21  N   UNL     1      48.706   2.637   6.383  0.00  0.00    +0.000 N 
ATOM     22  C   UNL     1      47.581   1.886   6.592  0.00  0.00    +0.000 C 
ATOM     23  O   UNL     1      47.452   0.783   6.077  0.00  0.00    +0.000 OA
ATOM     24  H   UNL     1      49.445   2.194   5.853  0.00  0.00    +0.000 HD
ATOM     25  H   UNL     1      48.961   3.402   6.992  0.00  0.00    +0.000 HD
ENDBRANCH  15  22
ENDBRANCH  14  18
ENDBRANCH   1  14
TORSDOF 5
ENDMDL
MODEL 2
REMARK VINA RESULT:    -8.279      1.412      1.689
REMARK INTER + INTRA:         -11.706
REMARK INTER:                 -10.647
REMARK INTRA:                  -1.058
REMARK UNBOUND:                -1.006
REMARK  Name = 
REMARK  5 active torsions:
REMARK  status: ('A' for Active; 'I' for Inactive)
REMARK    1  A    between atoms: C_2  and  C_4
REMARK    2  A    between atoms: C_7  and  C_8
REMARK    3  A    between atoms: C_8  and  C_9
REMARK    4  A    between atoms: C_9  and  C_10
REMARK    5  A    between atoms: C_14  and  C_15
REMARK                            x       y       z     vdW  Elec       q    Type
REMARK                         _______ _______ _______ _____ _____    ______ ____
ROOT
ATOM      1  C   UNL     1      44.210   3.982  11.748  0.00  0.00    +0.000 C 
ENDROOT
BRANCH   1   2
ATOM      2  C   UNL     1      45.427   4.638  12.345  0.00  0.00    +0.000 A 
ATOM      3  C   UNL     1      46.244   3.969  13.245  0.00  0.00    +0.000 A 
ATOM      4  N   UNL     1      47.347   4.507  13.803  0.00  0.00    +0.000 NA
ATOM      5  C   UNL     1      47.647   5.783  13.450  0.00  0.00    +0.000 A 
ATOM      6  C   UNL     1      46.920   6.565  12.549  0.00  0.00    +0.000 A 
ATOM      7  C   UNL     1      45.792   5.943  11.990  0.00  0.00    +0.000 A 
BRANCH   6   8
ATOM      8  C   UNL     1      47.303   7.954  12.210  0.00  0.00    +0.000 A 
ATOM      9  C   UNL     1      48.610   8.283  11.805  0.00  0.00    +0.000 A 
ATOM     10  C   UNL     1      48.969   9.598  11.489  0.00  0.00    +0.000 A 
ATOM     11  C   UNL     1      48.024  10.616  11.559  0.00  0.00    +0.000 A 
ATOM     12  C   UNL     1      46.725  10.322  11.952  0.00  0.00    +0.000 A 
ATOM     13  C   UNL     1      46.372   9.009  12.281  0.00  0.00    +0.000 A 
ENDBRANCH   6   8
ENDBRANCH   1   2
BRANCH   1  14
ATOM     14  C   UNL     1      43.967   4.442  10.309  0.00  0.00    +0.000 C 
BRANCH  14  18
ATOM     15  C   UNL     1      46.638   2.483   7.533  0.00  0.00    +0.000 A 
ATOM     16  C   UNL     1      46.522   3.877   7.529  0.00  0.00    +0.000 A 
ATOM     17  C   UNL     1      45.647   4.511   8.417  0.00  0.00    +0.000 A 
ATOM     18  C   UNL     1      44.882   3.759   9.321  0.00  0.00    +0.000 A 
ATOM     19  C   UNL     1      44.977   2.361   9.292  0.00  0.00    +0.000 A 
ATOM     20  C   UNL     1      45.846   1.726   8.403  0.00  0.00    +0.000 A 
BRANCH  15  22
ATOM     21  N   UNL     1      48.704   2.450   6.246  0.00  0.00    +0.000 N 
ATOM     22  C   UNL     1      47.577   1.773   6.627  0.00  0.00    +0.000 C 
ATOM     23  O   UNL     1      47.382   0.618   6.270  0.00  0.00    +0.000 OA
ATOM     24  H   UNL     1      49.391   1.917   5.729  0.00  0.00    +0.000 HD
ATOM     25  H   UNL     1      49.022   3.277   6.730  0.00  0.00    +0.000 HD
ENDBRANCH  15  22
ENDBRANCH  14  18
ENDBRANCH   1  14
TORSDOF 5
ENDMDL
MODEL 3
REMARK VINA RESULT:    -7.732      3.243      7.448
REMARK INTER + INTRA:         -10.998
REMARK INTER:                 -10.312
REMARK INTRA:                  -0.687
REMARK UNBOUND:                -1.006
REMARK  Name = 
REMARK  5 active torsions:
REMARK  status: ('A' for Active; 'I' for Inactive)
REMARK    1  A    between atoms: C_2  and  C_4
REMARK    2  A    between atoms: C_7  and  C_8
REMARK    3  A    between atoms: C_8  and  C_9
REMARK    4  A    between atoms: C_9  and  C_10
REMARK    5  A    between atoms: C_14  and  C_15
REMARK                            x       y       z     vdW  Elec       q    Type
REMARK                         _______ _______ _______ _____ _____    ______ ____
ROOT
ATOM      1  C   UNL     1      44.976   6.269  11.131  0.00  0.00    +0.000 C 
ENDROOT
BRANCH   1   2
ATOM      2  C   UNL     1      44.757   4.892  10.564  0.00  0.00    +0.000 A 
ATOM      3  C   UNL     1      43.808   4.030  11.094  0.00  0.00    +0.000 A 
ATOM      4  N   UNL     1      43.568   2.791  10.620  0.00  0.00    +0.000 NA
ATOM      5  C   UNL     1      44.320   2.387   9.565  0.00  0.00    +0.000 A 
ATOM      6  C   UNL     1      45.298   3.154   8.928  0.00  0.00    +0.000 A 
ATOM      7  C   UNL     1      45.490   4.441   9.458  0.00  0.00    +0.000 A 
BRANCH   6   8
ATOM      8  C   UNL     1      46.085   2.649   7.780  0.00  0.00    +0.000 A 
ATOM      9  C   UNL     1      46.634   1.354   7.772  0.00  0.00    +0.000 A 
ATOM     10  C   UNL     1      47.380   0.881   6.687  0.00  0.00    +0.000 A 
ATOM     11  C   UNL     1      47.586   1.692   5.575  0.00  0.00    +0.000 A 
ATOM     12  C   UNL     1      47.053   2.975   5.552  0.00  0.00    +0.000 A 
ATOM     13  C   UNL     1      46.320   3.449   6.644  0.00  0.00    +0.000 A 
ENDBRANCH   6   8
ENDBRANCH   1   2
BRANCH   1  14
ATOM     14  C   UNL     1      46.465   6.577  11.310  0.00  0.00    +0.000 C 
BRANCH  14  18
ATOM     15  C   UNL     1      47.941   5.628  15.259  0.00  0.00    +0.000 A 
ATOM     16  C   UNL     1      46.991   4.802  14.649  0.00  0.00    +0.000 A 
ATOM     17  C   UNL     1      46.503   5.117  13.377  0.00  0.00    +0.000 A 
ATOM     18  C   UNL     1      46.960   6.257  12.700  0.00  0.00    +0.000 A 
ATOM     19  C   UNL     1      47.883   7.099  13.335  0.00  0.00    +0.000 A 
ATOM     20  C   UNL     1      48.369   6.789  14.607  0.00  0.00    +0.000 A 
BRANCH  15  22
ATOM     21  N   UNL     1      47.739   5.621  17.685  0.00  0.00    +0.000 N 
ATOM     22  C   UNL     1      48.508   5.313  16.596  0.00  0.00    +0.000 C 
ATOM     23  O   UNL     1      49.593   4.761  16.724  0.00  0.00    +0.000 OA
ATOM     24  H   UNL     1      48.082   5.294  18.580  0.00  0.00    +0.000 HD
ATOM     25  H   UNL     1      46.751   5.818  17.607  0.00  0.00    +0.000 HD
ENDBRANCH  15  22
ENDBRANCH  14  18
ENDBRANCH   1  14
TORSDOF 5
ENDMDL
MODEL 4
REMARK VINA RESULT:    -7.493      3.098      6.878
REMARK INTER + INTRA:         -10.690
REMARK INTER:                  -9.803
REMARK INTRA:                  -0.887
REMARK UNBOUND:                -1.006
REMARK  Name = 
REMARK  5 active torsions:
REMARK  status: ('A' for Active; 'I' for Inactive)
REMARK    1  A    between atoms: C_2  and  C_4
REMARK    2  A    between atoms: C_7  and  C_8
REMARK    3  A    between atoms: C_8  and  C_9
REMARK    4  A    between atoms: C_9  and  C_10
REMARK    5  A    between atoms: C_14  and  C_15
REMARK                            x       y       z     vdW  Elec       q    Type
REMARK                         _______ _______ _______ _____ _____    ______ ____
ROOT
ATOM      1  C   UNL     1      44.433   6.495  11.521  0.00  0.00    +0.000 C 
ENDROOT
BRANCH   1   2
ATOM      2  C   UNL     1      44.308   5.082  11.015  0.00  0.00    +0.000 A 
ATOM      3  C   UNL     1      43.426   4.180  11.592  0.00  0.00    +0.000 A 
ATOM      4  N   UNL     1      43.271   2.908  11.174  0.00  0.00    +0.000 NA
ATOM      5  C   UNL     1      44.042   2.512  10.129  0.00  0.00    +0.000 A 
ATOM      6  C   UNL     1      44.958   3.319   9.449  0.00  0.00    +0.000 A 
ATOM      7  C   UNL     1      45.062   4.637   9.921  0.00  0.00    +0.000 A 
BRANCH   6   8
ATOM      8  C   UNL     1      45.770   2.821   8.315  0.00  0.00    +0.000 A 
ATOM      9  C   UNL     1      46.248   1.498   8.272  0.00  0.00    +0.000 A 
ATOM     10  C   UNL     1      47.018   1.033   7.201  0.00  0.00    +0.000 A 
ATOM     11  C   UNL     1      47.319   1.879   6.138  0.00  0.00    +0.000 A 
ATOM     12  C   UNL     1      46.858   3.189   6.150  0.00  0.00    +0.000 A 
ATOM     13  C   UNL     1      46.100   3.655   7.229  0.00  0.00    +0.000 A 
ENDBRANCH   6   8
ENDBRANCH   1   2
BRANCH   1  14
ATOM     14  C   UNL     1      45.218   6.558  12.834  0.00  0.00    +0.000 C 
BRANCH  14  18
ATOM     15  C   UNL     1      49.261   7.948  12.210  0.00  0.00    +0.000 A 
ATOM     16  C   UNL     1      49.031   6.737  12.872  0.00  0.00    +0.000 A 
ATOM     17  C   UNL     1      47.722   6.295  13.087  0.00  0.00    +0.000 A 
ATOM     18  C   UNL     1      46.631   7.053  12.640  0.00  0.00    +0.000 A 
ATOM     19  C   UNL     1      46.871   8.283  12.011  0.00  0.00    +0.000 A 
ATOM     20  C   UNL     1      48.177   8.730  11.800  0.00  0.00    +0.000 A 
BRANCH  15  22
ATOM     21  N   UNL     1      51.555   7.515  11.515  0.00  0.00    +0.000 N 
ATOM     22  C   UNL     1      50.636   8.439  11.935  0.00  0.00    +0.000 C 
ATOM     23  O   UNL     1      50.931   9.624  12.033  0.00  0.00    +0.000 OA
ATOM     24  H   UNL     1      52.451   7.880  11.218  0.00  0.00    +0.000 HD
ATOM     25  H   UNL     1      51.281   6.607  11.169  0.00  0.00    +0.000 HD
ENDBRANCH  15  22
ENDBRANCH  14  18
ENDBRANCH   1  14
TORSDOF 5
ENDMDL
MODEL 5
REMARK VINA RESULT:    -7.486      3.015      4.163
REMARK INTER + INTRA:         -10.680
REMARK INTER:                  -9.818
REMARK INTRA:                  -0.862
REMARK UNBOUND:                -1.006
REMARK  Name = 
REMARK  5 active torsions:
REMARK  status: ('A' for Active; 'I' for Inactive)
REMARK    1  A    between atoms: C_2  and  C_4
REMARK    2  A    between atoms: C_7  and  C_8
REMARK    3  A    between atoms: C_8  and  C_9
REMARK    4  A    between atoms: C_9  and  C_10
REMARK    5  A    between atoms: C_14  and  C_15
REMARK                            x       y       z     vdW  Elec       q    Type
REMARK                         _______ _______ _______ _____ _____    ______ ____
ROOT
ATOM      1  C   UNL     1      44.694   4.593  11.666  0.00  0.00    +0.000 C 
ENDROOT
BRANCH   1   2
ATOM      2  C   UNL     1      45.112   6.003  11.985  0.00  0.00    +0.000 A 
ATOM      3  C   UNL     1      46.146   6.270  12.872  0.00  0.00    +0.000 A 
ATOM      4  N   UNL     1      46.563   7.513  13.187  0.00  0.00    +0.000 NA
ATOM      5  C   UNL     1      45.910   8.544  12.593  0.00  0.00    +0.000 A 
ATOM      6  C   UNL     1      44.865   8.417  11.675  0.00  0.00    +0.000 A 
ATOM      7  C   UNL     1      44.486   7.099  11.375  0.00  0.00    +0.000 A 
BRANCH   6   8
ATOM      8  C   UNL     1      44.194   9.588  11.064  0.00  0.00    +0.000 A 
ATOM      9  C   UNL     1      42.857   9.530  10.628  0.00  0.00    +0.000 A 
ATOM     10  C   UNL     1      42.228  10.637  10.048  0.00  0.00    +0.000 A 
ATOM     11  C   UNL     1      42.919  11.835   9.902  0.00  0.00    +0.000 A 
ATOM     12  C   UNL     1      44.239  11.924  10.326  0.00  0.00    +0.000 A 
ATOM     13  C   UNL     1      44.870  10.812  10.892  0.00  0.00    +0.000 A 
ENDBRANCH   6   8
ENDBRANCH   1   2
BRANCH   1  14
ATOM     14  C   UNL     1      44.091   4.485  10.263  0.00  0.00    +0.000 C 
BRANCH  14  18
ATOM     15  C   UNL     1      46.647   2.441   7.440  0.00  0.00    +0.000 A 
ATOM     16  C   UNL     1      45.897   1.707   8.367  0.00  0.00    +0.000 A 
ATOM     17  C   UNL     1      45.081   2.369   9.290  0.00  0.00    +0.000 A 
ATOM     18  C   UNL     1      45.002   3.769   9.295  0.00  0.00    +0.000 A 
ATOM     19  C   UNL     1      45.785   4.497   8.388  0.00  0.00    +0.000 A 
ATOM     20  C   UNL     1      46.605   3.838   7.469  0.00  0.00    +0.000 A 
BRANCH  15  22
ATOM     21  N   UNL     1      48.642   2.431   6.045  0.00  0.00    +0.000 N 
ATOM     22  C   UNL     1      47.502   1.775   6.424  0.00  0.00    +0.000 C 
ATOM     23  O   UNL     1      47.230   0.669   5.976  0.00  0.00    +0.000 OA
ATOM     24  H   UNL     1      49.274   1.916   5.445  0.00  0.00    +0.000 HD
ATOM     25  H   UNL     1      49.026   3.194   6.584  0.00  0.00    +0.000 HD
ENDBRANCH  15  22
ENDBRANCH  14  18
ENDBRANCH   1  14
TORSDOF 5
ENDMDL
MODEL 6
REMARK VINA RESULT:    -7.236      1.783      3.008
REMARK INTER + INTRA:         -10.357
REMARK INTER:                  -9.749
REMARK INTRA:                  -0.608
REMARK UNBOUND:                -1.006
REMARK  Name = 
REMARK  5 active torsions:
REMARK  status: ('A' for Active; 'I' for Inactive)
REMARK    1  A    between atoms: C_2  and  C_4
REMARK    2  A    between atoms: C_7  and  C_8
REMARK    3  A    between atoms: C_8  and  C_9
REMARK    4  A    between atoms: C_9  and  C_10
REMARK    5  A    between atoms: C_14  and  C_15
REMARK                            x       y       z     vdW  Elec       q    Type
REMARK                         _______ _______ _______ _____ _____    ______ ____
ROOT
ATOM      1  C   UNL     1      43.840   4.943  11.315  0.00  0.00    +0.000 C 
ENDROOT
BRANCH   1   2
ATOM      2  C   UNL     1      45.128   5.481  11.879  0.00  0.00    +0.000 A 
ATOM      3  C   UNL     1      45.831   6.495  11.243  0.00  0.00    +0.000 A 
ATOM      4  N   UNL     1      46.985   7.015  11.708  0.00  0.00    +0.000 NA
ATOM      5  C   UNL     1      47.467   6.492  12.864  0.00  0.00    +0.000 A 
ATOM      6  C   UNL     1      46.856   5.481  13.611  0.00  0.00    +0.000 A 
ATOM      7  C   UNL     1      45.650   4.992  13.084  0.00  0.00    +0.000 A 
BRANCH   6   8
ATOM      8  C   UNL     1      47.439   4.955  14.866  0.00  0.00    +0.000 A 
ATOM      9  C   UNL     1      48.194   5.769  15.730  0.00  0.00    +0.000 A 
ATOM     10  C   UNL     1      48.746   5.267  16.913  0.00  0.00    +0.000 A 
ATOM     11  C   UNL     1      48.545   3.937  17.268  0.00  0.00    +0.000 A 
ATOM     12  C   UNL     1      47.801   3.108  16.437  0.00  0.00    +0.000 A 
ATOM     13  C   UNL     1      47.263   3.610  15.248  0.00  0.00    +0.000 A 
ENDBRANCH   6   8
ENDBRANCH   1   2
BRANCH   1  14
ATOM     14  C   UNL     1      43.958   3.463  10.944  0.00  0.00    +0.000 C 
BRANCH  14  18
ATOM     15  C   UNL     1      46.322   2.845   7.379  0.00  0.00    +0.000 A 
ATOM     16  C   UNL     1      45.799   4.113   7.663  0.00  0.00    +0.000 A 
ATOM     17  C   UNL     1      45.022   4.309   8.809  0.00  0.00    +0.000 A 
ATOM     18  C   UNL     1      44.762   3.245   9.684  0.00  0.00    +0.000 A 
ATOM     19  C   UNL     1      45.258   1.972   9.372  0.00  0.00    +0.000 A 
ATOM     20  C   UNL     1      46.030   1.771   8.226  0.00  0.00    +0.000 A 
BRANCH  15  22
ATOM     21  N   UNL     1      48.524   2.489   6.403  0.00  0.00    +0.000 N 
ATOM     22  C   UNL     1      47.177   2.601   6.189  0.00  0.00    +0.000 C 
ATOM     23  O   UNL     1      46.701   2.460   5.070  0.00  0.00    +0.000 OA
ATOM     24  H   UNL     1      49.080   2.205   5.607  0.00  0.00    +0.000 HD
ATOM     25  H   UNL     1      48.909   2.329   7.323  0.00  0.00    +0.000 HD
ENDBRANCH  15  22
ENDBRANCH  14  18
ENDBRANCH   1  14
TORSDOF 5
ENDMDL
MODEL 7
REMARK VINA RESULT:    -6.406      3.266      5.383
REMARK INTER + INTRA:          -9.284
REMARK INTER:                  -8.314
REMARK INTRA:                  -0.970
REMARK UNBOUND:                -1.006
REMARK  Name = 
REMARK  5 active torsions:
REMARK  status: ('A' for Active; 'I' for Inactive)
REMARK    1  A    between atoms: C_2  and  C_4
REMARK    2  A    between atoms: C_7  and  C_8
REMARK    3  A    between atoms: C_8  and  C_9
REMARK    4  A    between atoms: C_9  and  C_10
REMARK    5  A    between atoms: C_14  and  C_15
REMARK                            x       y       z     vdW  Elec       q    Type
REMARK                         _______ _______ _______ _____ _____    ______ ____
ROOT
ATOM      1  C   UNL     1      48.015   7.727  12.199  0.00  0.00    +0.000 C 
ENDROOT
BRANCH   1   2
ATOM      2  C   UNL     1      48.592   7.669  13.589  0.00  0.00    +0.000 A 
ATOM      3  C   UNL     1      49.375   8.699  14.092  0.00  0.00    +0.000 A 
ATOM      4  N   UNL     1      49.910   8.700  15.330  0.00  0.00    +0.000 NA
ATOM      5  C   UNL     1      49.657   7.614  16.103  0.00  0.00    +0.000 A 
ATOM      6  C   UNL     1      48.878   6.517  15.728  0.00  0.00    +0.000 A 
ATOM      7  C   UNL     1      48.336   6.582  14.434  0.00  0.00    +0.000 A 
BRANCH   6   8
ATOM      8  C   UNL     1      48.644   5.361  16.623  0.00  0.00    +0.000 A 
ATOM      9  C   UNL     1      47.580   4.465  16.411  0.00  0.00    +0.000 A 
ATOM     10  C   UNL     1      47.360   3.376  17.262  0.00  0.00    +0.000 A 
ATOM     11  C   UNL     1      48.208   3.150  18.341  0.00  0.00    +0.000 A 
ATOM     12  C   UNL     1      49.269   4.016  18.575  0.00  0.00    +0.000 A 
ATOM     13  C   UNL     1      49.478   5.112  17.731  0.00  0.00    +0.000 A 
ENDBRANCH   6   8
ENDBRANCH   1   2
BRANCH   1  14
ATOM     14  C   UNL     1      46.486   7.795  12.224  0.00  0.00    +0.000 C 
BRANCH  14  18
ATOM     15  C   UNL     1      44.580   4.027  11.302  0.00  0.00    +0.000 A 
ATOM     16  C   UNL     1      44.683   4.454  12.631  0.00  0.00    +0.000 A 
ATOM     17  C   UNL     1      45.313   5.666  12.931  0.00  0.00    +0.000 A 
ATOM     18  C   UNL     1      45.842   6.466  11.908  0.00  0.00    +0.000 A 
ATOM     19  C   UNL     1      45.768   6.012  10.583  0.00  0.00    +0.000 A 
ATOM     20  C   UNL     1      45.144   4.800  10.282  0.00  0.00    +0.000 A 
BRANCH  15  22
ATOM     21  N   UNL     1      44.403   2.059   9.880  0.00  0.00    +0.000 N 
ATOM     22  C   UNL     1      43.893   2.761  10.939  0.00  0.00    +0.000 C 
ATOM     23  O   UNL     1      42.942   2.335  11.581  0.00  0.00    +0.000 OA
ATOM     24  H   UNL     1      44.002   1.143   9.719  0.00  0.00    +0.000 HD
ATOM     25  H   UNL     1      45.327   2.236   9.514  0.00  0.00    +0.000 HD
ENDBRANCH  15  22
ENDBRANCH  14  18
ENDBRANCH   1  14
TORSDOF 5
ENDMDL
MODEL 8
REMARK VINA RESULT:    -5.987      5.253      8.600
REMARK INTER + INTRA:          -8.743
REMARK INTER:                  -8.025
REMARK INTRA:                  -0.718
REMARK UNBOUND:                -1.006
REMARK  Name = 
REMARK  5 active torsions:
REMARK  status: ('A' for Active; 'I' for Inactive)
REMARK    1  A    between atoms: C_2  and  C_4
REMARK    2  A    between atoms: C_7  and  C_8
REMARK    3  A    between atoms: C_8  and  C_9
REMARK    4  A    between atoms: C_9  and  C_10
REMARK    5  A    between atoms: C_14  and  C_15
REMARK                            x       y       z     vdW  Elec       q    Type
REMARK                         _______ _______ _______ _____ _____    ______ ____
ROOT
ATOM      1  C   UNL     1      48.007   4.555  16.704  0.00  0.00    +0.000 C 
ENDROOT
BRANCH   1   2
ATOM      2  C   UNL     1      47.743   5.223  15.381  0.00  0.00    +0.000 A 
ATOM      3  C   UNL     1      48.410   6.381  15.007  0.00  0.00    +0.000 A 
ATOM      4  N   UNL     1      48.216   7.015  13.833  0.00  0.00    +0.000 NA
ATOM      5  C   UNL     1      47.303   6.468  12.990  0.00  0.00    +0.000 A 
ATOM      6  C   UNL     1      46.573   5.302  13.234  0.00  0.00    +0.000 A 
ATOM      7  C   UNL     1      46.831   4.680  14.466  0.00  0.00    +0.000 A 
BRANCH   6   8
ATOM      8  C   UNL     1      45.590   4.761  12.268  0.00  0.00    +0.000 A 
ATOM      9  C   UNL     1      45.489   5.260  10.956  0.00  0.00    +0.000 A 
ATOM     10  C   UNL     1      44.556   4.748  10.048  0.00  0.00    +0.000 A 
ATOM     11  C   UNL     1      43.707   3.714  10.427  0.00  0.00    +0.000 A 
ATOM     12  C   UNL     1      43.785   3.197  11.715  0.00  0.00    +0.000 A 
ATOM     13  C   UNL     1      44.709   3.721  12.625  0.00  0.00    +0.000 A 
ENDBRANCH   6   8
ENDBRANCH   1   2
BRANCH   1  14
ATOM     14  C   UNL     1      49.304   5.056  17.343  0.00  0.00    +0.000 C 
BRANCH  14  18
ATOM     15  C   UNL     1      52.237   1.919  17.830  0.00  0.00    +0.000 A 
ATOM     16  C   UNL     1      50.972   1.622  17.309  0.00  0.00    +0.000 A 
ATOM     17  C   UNL     1      50.018   2.634  17.166  0.00  0.00    +0.000 A 
ATOM     18  C   UNL     1      50.318   3.953  17.535  0.00  0.00    +0.000 A 
ATOM     19  C   UNL     1      51.574   4.234  18.090  0.00  0.00    +0.000 A 
ATOM     20  C   UNL     1      52.527   3.224  18.240  0.00  0.00    +0.000 A 
BRANCH  15  22
ATOM     21  N   UNL     1      53.382  -0.051  16.971  0.00  0.00    +0.000 N 
ATOM     22  C   UNL     1      53.289   0.880  17.971  0.00  0.00    +0.000 C 
ATOM     23  O   UNL     1      54.071   0.875  18.913  0.00  0.00    +0.000 OA
ATOM     24  H   UNL     1      54.174  -0.678  17.018  0.00  0.00    +0.000 HD
ATOM     25  H   UNL     1      52.946   0.085  16.070  0.00  0.00    +0.000 HD
ENDBRANCH  15  22
ENDBRANCH  14  18
ENDBRANCH   1  14
TORSDOF 5
ENDMDL
MODEL 9
REMARK VINA RESULT:    -5.909      4.297      8.167
REMARK INTER + INTRA:          -8.643
REMARK INTER:                  -7.848
REMARK INTRA:                  -0.795
REMARK UNBOUND:                -1.006
REMARK  Name = 
REMARK  5 active torsions:
REMARK  status: ('A' for Active; 'I' for Inactive)
REMARK    1  A    between atoms: C_2  and  C_4
REMARK    2  A    between atoms: C_7  and  C_8
REMARK    3  A    between atoms: C_8  and  C_9
REMARK    4  A    between atoms: C_9  and  C_10
REMARK    5  A    between atoms: C_14  and  C_15
REMARK                            x       y       z     vdW  Elec       q    Type
REMARK                         _______ _______ _______ _____ _____    ______ ____
ROOT
ATOM      1  C   UNL     1      49.161   7.335  14.930  0.00  0.00    +0.000 C 
ENDROOT
BRANCH   1   2
ATOM      2  C   UNL     1      47.921   7.487  14.090  0.00  0.00    +0.000 A 
ATOM      3  C   UNL     1      47.325   8.725  13.893  0.00  0.00    +0.000 A 
ATOM      4  N   UNL     1      46.219   8.916  13.146  0.00  0.00    +0.000 NA
ATOM      5  C   UNL     1      45.675   7.814  12.570  0.00  0.00    +0.000 A 
ATOM      6  C   UNL     1      46.178   6.515  12.675  0.00  0.00    +0.000 A 
ATOM      7  C   UNL     1      47.339   6.382  13.453  0.00  0.00    +0.000 A 
BRANCH   6   8
ATOM      8  C   UNL     1      45.531   5.354  12.021  0.00  0.00    +0.000 A 
ATOM      9  C   UNL     1      45.260   4.166  12.724  0.00  0.00    +0.000 A 
ATOM     10  C   UNL     1      44.652   3.070  12.101  0.00  0.00    +0.000 A 
ATOM     11  C   UNL     1      44.289   3.142  10.760  0.00  0.00    +0.000 A 
ATOM     12  C   UNL     1      44.541   4.303  10.041  0.00  0.00    +0.000 A 
ATOM     13  C   UNL     1      45.161   5.392  10.662  0.00  0.00    +0.000 A 
ENDBRANCH   6   8
ENDBRANCH   1   2
BRANCH   1  14
ATOM     14  C   UNL     1      48.824   6.931  16.368  0.00  0.00    +0.000 C 
BRANCH  14  18
ATOM     15  C   UNL     1      50.815   3.264  17.493  0.00  0.00    +0.000 A 
ATOM     16  C   UNL     1      49.434   3.270  17.264  0.00  0.00    +0.000 A 
ATOM     17  C   UNL     1      48.788   4.460  16.914  0.00  0.00    +0.000 A 
ATOM     18  C   UNL     1      49.512   5.653  16.785  0.00  0.00    +0.000 A 
ATOM     19  C   UNL     1      50.888   5.645  17.054  0.00  0.00    +0.000 A 
ATOM     20  C   UNL     1      51.535   4.459  17.409  0.00  0.00    +0.000 A 
BRANCH  15  22
ATOM     21  N   UNL     1      52.662   2.144  18.617  0.00  0.00    +0.000 N 
ATOM     22  C   UNL     1      51.544   2.016  17.838  0.00  0.00    +0.000 C 
ATOM     23  O   UNL     1      51.143   0.915  17.483  0.00  0.00    +0.000 OA
ATOM     24  H   UNL     1      53.080   1.281  18.942  0.00  0.00    +0.000 HD
ATOM     25  H   UNL     1      52.857   2.985  19.141  0.00  0.00    +0.000 HD
ENDBRANCH  15  22
ENDBRANCH  14  18
ENDBRANCH   1  14
TORSDOF 5
ENDMDL
