MODEL 1
REMARK VINA RESULT:    -7.712      0.000      0.000
REMARK INTER + INTRA:          -9.740
REMARK INTER:                  -9.515
REMARK INTRA:                  -0.225
REMARK UNBOUND:                -0.225
REMARK  Name = 
REMARK  5 active torsions:
REMARK  status: ('A' for Active; 'I' for Inactive)
REMARK    1  A    between atoms: C_1  and  C_2
REMARK    2  A    between atoms: N_8  and  C_9
REMARK    3  A    between atoms: C_9  and  C_10
REMARK    4  A    between atoms: C_14  and  C_15
REMARK    5  A    between atoms: C_19  and  C_20
REMARK                            x       y       z     vdW  Elec       q    Type
REMARK                         _______ _______ _______ _____ _____    ______ ____
ROOT
ATOM      1  C   UNL     1      45.045   6.144  11.618  0.00  0.00    +0.000 A 
ATOM      2  C   UNL     1      43.757   5.744  12.000  0.00  0.00    +0.000 A 
ATOM      3  C   UNL     1      43.093   4.720  11.326  0.00  0.00    +0.000 A 
ATOM      4  C   UNL     1      43.714   4.063  10.261  0.00  0.00    +0.000 A 
ATOM      5  C   UNL     1      45.012   4.405   9.850  0.00  0.00    +0.000 A 
ATOM      6  C   UNL     1      45.652   5.444  10.554  0.00  0.00    +0.000 A 
ENDROOT
BRANCH   5   7
ATOM      7  C   UNL     1      45.682   3.717   8.719  0.00  0.00    +0.000 A 
ATOM      8  C   UNL     1      46.175   4.430   7.610  0.00  0.00    +0.000 A 
ATOM      9  C   UNL     1      46.805   3.782   6.543  0.00  0.00    +0.000 A 
ATOM     10  C   UNL     1      46.973   2.400   6.566  0.00  0.00    +0.000 A 
ATOM     11  C   UNL     1      46.505   1.666   7.655  0.00  0.00    +0.000 A 
ATOM     12  C   UNL     1      45.861   2.321   8.715  0.00  0.00    +0.000 A 
BRANCH  11  13
ATOM     13  C   UNL     1      46.682   0.246   7.696  0.00  0.00    +0.000 C 
ATOM     14  N   UNL     1      46.826  -0.907   7.723  0.00  0.00    +0.000 NA
ENDBRANCH  11  13
ENDBRANCH   5   7
BRANCH   1  15
ATOM     15  C   UNL     1      45.755   7.306  12.306  0.00  0.00    +0.000 C 
ATOM     16  C   UNL     1      46.785   6.971  13.380  0.00  0.00    +0.000 C 
ATOM     17  C   UNL     1      47.241   7.461  12.045  0.00  0.00    +0.000 C 
BRANCH  15  25
ATOM     18  C   UNL     1      42.808  12.479  11.280  0.00  0.00    +0.000 C 
ATOM     19  C   UNL     1      44.049  11.649  11.397  0.00  0.00    +0.000 A 
ATOM     20  N   UNL     1      45.194  12.175  10.989  0.00  0.00    +0.000 NA
ATOM     21  C   UNL     1      46.227  11.356  11.133  0.00  0.00    +0.000 A 
ATOM     22 CL   UNL     1      47.748  11.983  10.666  0.00  0.00    +0.000 Cl
ATOM     23  N   UNL     1      46.230  10.119  11.610  0.00  0.00    +0.000 NA
ATOM     24  C   UNL     1      45.039   9.697  12.003  0.00  0.00    +0.000 A 
ATOM     25  N   UNL     1      44.881   8.448  12.608  0.00  0.00    +0.000 N 
ATOM     26  N   UNL     1      43.925  10.423  11.912  0.00  0.00    +0.000 NA
ATOM     27  H   UNL     1      43.885   8.273  12.669  0.00  0.00    +0.000 HD
ENDBRANCH  15  25
ENDBRANCH   1  15
TORSDOF 4
ENDMDL
MODEL 2
REMARK VINA RESULT:    -7.642      3.451      5.523
REMARK INTER + INTRA:          -9.654
REMARK INTER:                  -8.781
REMARK INTRA:                  -0.873
REMARK UNBOUND:                -0.225
REMARK  Name = 
REMARK  5 active torsions:
REMARK  status: ('A' for Active; 'I' for Inactive)
REMARK    1  A    between atoms: C_1  and  C_2
REMARK    2  A    between atoms: N_8  and  C_9
REMARK    3  A    between atoms: C_9  and  C_10
REMARK    4  A    between atoms: C_14  and  C_15
REMARK    5  A    between atoms: C_19  and  C_20
REMARK                            x       y       z     vdW  Elec       q    Type
REMARK                         _______ _______ _______ _____ _____    ______ ____
ROOT
ATOM      1  C   UNL     1      47.676   7.974  12.335  0.00  0.00    +0.000 A 
ATOM      2  C   UNL     1      46.756   8.981  12.655  0.00  0.00    +0.000 A 
ATOM      3  C   UNL     1      45.407   8.856  12.324  0.00  0.00    +0.000 A 
ATOM      4  C   UNL     1      44.948   7.705  11.678  0.00  0.00    +0.000 A 
ATOM      5  C   UNL     1      45.819   6.653  11.355  0.00  0.00    +0.000 A 
ATOM      6  C   UNL     1      47.174   6.816  11.704  0.00  0.00    +0.000 A 
ENDROOT
BRANCH   5   7
ATOM      7  C   UNL     1      45.346   5.427  10.667  0.00  0.00    +0.000 A 
ATOM      8  C   UNL     1      44.386   4.578  11.250  0.00  0.00    +0.000 A 
ATOM      9  C   UNL     1      43.940   3.421  10.604  0.00  0.00    +0.000 A 
ATOM     10  C   UNL     1      44.434   3.090   9.345  0.00  0.00    +0.000 A 
ATOM     11  C   UNL     1      45.379   3.916   8.736  0.00  0.00    +0.000 A 
ATOM     12  C   UNL     1      45.832   5.067   9.397  0.00  0.00    +0.000 A 
BRANCH  11  13
ATOM     13  C   UNL     1      45.886   3.594   7.436  0.00  0.00    +0.000 C 
ATOM     14  N   UNL     1      46.304   3.330   6.383  0.00  0.00    +0.000 NA
ENDBRANCH  11  13
ENDBRANCH   5   7
BRANCH   1  15
ATOM     15  C   UNL     1      49.164   8.129  12.633  0.00  0.00    +0.000 C 
ATOM     16  C   UNL     1      50.095   8.418  11.459  0.00  0.00    +0.000 C 
ATOM     17  C   UNL     1      49.770   9.504  12.430  0.00  0.00    +0.000 C 
BRANCH  15  25
ATOM     18  C   UNL     1      49.081   4.647  17.568  0.00  0.00    +0.000 C 
ATOM     19  C   UNL     1      49.006   5.965  16.863  0.00  0.00    +0.000 A 
ATOM     20  N   UNL     1      48.618   7.025  17.557  0.00  0.00    +0.000 NA
ATOM     21  C   UNL     1      48.583   8.137  16.835  0.00  0.00    +0.000 A 
ATOM     22 CL   UNL     1      48.132   9.557  17.676  0.00  0.00    +0.000 Cl
ATOM     23  N   UNL     1      48.870   8.289  15.550  0.00  0.00    +0.000 NA
ATOM     24  C   UNL     1      49.260   7.173  14.956  0.00  0.00    +0.000 A 
ATOM     25  N   UNL     1      49.680   7.175  13.624  0.00  0.00    +0.000 N 
ATOM     26  N   UNL     1      49.339   5.992  15.570  0.00  0.00    +0.000 NA
ATOM     27  H   UNL     1      49.768   6.206  13.341  0.00  0.00    +0.000 HD
ENDBRANCH  15  25
ENDBRANCH   1  15
TORSDOF 4
ENDMDL
MODEL 3
REMARK VINA RESULT:    -7.344      3.625      5.650
REMARK INTER + INTRA:          -9.286
REMARK INTER:                  -8.425
REMARK INTRA:                  -0.861
REMARK UNBOUND:                -0.225
REMARK  Name = 
REMARK  5 active torsions:
REMARK  status: ('A' for Active; 'I' for Inactive)
REMARK    1  A    between atoms: C_1  and  C_2
REMARK    2  A    between atoms: N_8  and  C_9
REMARK    3  A    between atoms: C_9  and  C_10
REMARK    4  A    between atoms: C_14  and  C_15
REMARK    5  A    between atoms: C_19  and  C_20
REMARK                            x       y       z     vdW  Elec       q    Type
REMARK                         _______ _______ _______ _____ _____    ______ ____
ROOT
ATOM      1  C   UNL     1      47.843   8.126  12.376  0.00  0.00    +0.000 A 
ATOM      2  C   UNL     1      46.913   9.118  12.713  0.00  0.00    +0.000 A 
ATOM      3  C   UNL     1      45.569   8.993  12.363  0.00  0.00    +0.000 A 
ATOM      4  C   UNL     1      45.125   7.859  11.679  0.00  0.00    +0.000 A 
ATOM      5  C   UNL     1      46.007   6.822  11.336  0.00  0.00    +0.000 A 
ATOM      6  C   UNL     1      47.357   6.983  11.705  0.00  0.00    +0.000 A 
ENDROOT
BRANCH   5   7
ATOM      7  C   UNL     1      45.549   5.613  10.608  0.00  0.00    +0.000 A 
ATOM      8  C   UNL     1      45.894   5.388   9.262  0.00  0.00    +0.000 A 
ATOM      9  C   UNL     1      45.461   4.250   8.574  0.00  0.00    +0.000 A 
ATOM     10  C   UNL     1      44.682   3.296   9.223  0.00  0.00    +0.000 A 
ATOM     11  C   UNL     1      44.332   3.484  10.560  0.00  0.00    +0.000 A 
ATOM     12  C   UNL     1      44.758   4.636  11.239  0.00  0.00    +0.000 A 
BRANCH  11  13
ATOM     13  C   UNL     1      43.542   2.505  11.242  0.00  0.00    +0.000 C 
ATOM     14  N   UNL     1      42.905   1.705  11.796  0.00  0.00    +0.000 NA
ENDBRANCH  11  13
ENDBRANCH   5   7
BRANCH   1  15
ATOM     15  C   UNL     1      49.327   8.283  12.694  0.00  0.00    +0.000 C 
ATOM     16  C   UNL     1      50.270   8.601  11.539  0.00  0.00    +0.000 C 
ATOM     17  C   UNL     1      49.928   9.665  12.529  0.00  0.00    +0.000 C 
BRANCH  15  25
ATOM     18  C   UNL     1      49.188   4.659  17.526  0.00  0.00    +0.000 C 
ATOM     19  C   UNL     1      49.106   5.996  16.856  0.00  0.00    +0.000 A 
ATOM     20  N   UNL     1      48.682   7.028  17.570  0.00  0.00    +0.000 NA
ATOM     21  C   UNL     1      48.644   8.160  16.880  0.00  0.00    +0.000 A 
ATOM     22 CL   UNL     1      48.148   9.547  17.748  0.00  0.00    +0.000 Cl
ATOM     23  N   UNL     1      48.959   8.353  15.607  0.00  0.00    +0.000 NA
ATOM     24  C   UNL     1      49.384   7.262  14.991  0.00  0.00    +0.000 A 
ATOM     25  N   UNL     1      49.836   7.309  13.670  0.00  0.00    +0.000 N 
ATOM     26  N   UNL     1      49.469   6.065  15.573  0.00  0.00    +0.000 NA
ATOM     27  H   UNL     1      49.949   6.350  13.362  0.00  0.00    +0.000 HD
ENDBRANCH  15  25
ENDBRANCH   1  15
TORSDOF 4
ENDMDL
MODEL 4
REMARK VINA RESULT:    -7.269      2.018      2.543
REMARK INTER + INTRA:          -9.194
REMARK INTER:                  -8.376
REMARK INTRA:                  -0.817
REMARK UNBOUND:                -0.225
REMARK  Name = 
REMARK  5 active torsions:
REMARK  status: ('A' for Active; 'I' for Inactive)
REMARK    1  A    between atoms: C_1  and  C_2
REMARK    2  A    between atoms: N_8  and  C_9
REMARK    3  A    between atoms: C_9  and  C_10
REMARK    4  A    between atoms: C_14  and  C_15
REMARK    5  A    between atoms: C_19  and  C_20
REMARK                            x       y       z     vdW  Elec       q    Type
REMARK                         _______ _______ _______ _____ _____    ______ ____
ROOT
ATOM      1  C   UNL     1      45.300   5.034  12.278  0.00  0.00    +0.000 A 
ATOM      2  C   UNL     1      43.927   5.312  12.293  0.00  0.00    +0.000 A 
ATOM      3  C   UNL     1      43.118   5.002  11.200  0.00  0.00    +0.000 A 
ATOM      4  C   UNL     1      43.669   4.390  10.072  0.00  0.00    +0.000 A 
ATOM      5  C   UNL     1      45.034   4.066  10.010  0.00  0.00    +0.000 A 
ATOM      6  C   UNL     1      45.819   4.395  11.133  0.00  0.00    +0.000 A 
ENDROOT
BRANCH   5   7
ATOM      7  C   UNL     1      45.632   3.418   8.818  0.00  0.00    +0.000 A 
ATOM      8  C   UNL     1      45.997   4.162   7.679  0.00  0.00    +0.000 A 
ATOM      9  C   UNL     1      46.559   3.551   6.554  0.00  0.00    +0.000 A 
ATOM     10  C   UNL     1      46.786   2.178   6.544  0.00  0.00    +0.000 A 
ATOM     11  C   UNL     1      46.444   1.414   7.660  0.00  0.00    +0.000 A 
ATOM     12  C   UNL     1      45.867   2.031   8.779  0.00  0.00    +0.000 A 
BRANCH  11  13
ATOM     13  C   UNL     1      46.683   0.003   7.667  0.00  0.00    +0.000 C 
ATOM     14  N   UNL     1      46.870  -1.145   7.672  0.00  0.00    +0.000 NA
ENDBRANCH  11  13
ENDBRANCH   5   7
BRANCH   1  15
ATOM     15  C   UNL     1      46.206   5.429  13.441  0.00  0.00    +0.000 C 
ATOM     16  C   UNL     1      46.148   4.576  14.705  0.00  0.00    +0.000 C 
ATOM     17  C   UNL     1      47.330   4.475  13.798  0.00  0.00    +0.000 C 
BRANCH  15  25
ATOM     18  C   UNL     1      47.077  11.233  12.009  0.00  0.00    +0.000 C 
ATOM     19  C   UNL     1      47.519   9.807  12.138  0.00  0.00    +0.000 A 
ATOM     20  N   UNL     1      48.673   9.459  11.588  0.00  0.00    +0.000 NA
ATOM     21  C   UNL     1      48.965   8.176  11.757  0.00  0.00    +0.000 A 
ATOM     22 CL   UNL     1      50.463   7.661  11.111  0.00  0.00    +0.000 Cl
ATOM     23  N   UNL     1      48.251   7.249  12.379  0.00  0.00    +0.000 NA
ATOM     24  C   UNL     1      47.125   7.706  12.903  0.00  0.00    +0.000 A 
ATOM     25  N   UNL     1      46.297   6.878  13.665  0.00  0.00    +0.000 N 
ATOM     26  N   UNL     1      46.719   8.972  12.804  0.00  0.00    +0.000 NA
ATOM     27  H   UNL     1      45.432   7.385  13.816  0.00  0.00    +0.000 HD
ENDBRANCH  15  25
ENDBRANCH   1  15
TORSDOF 4
ENDMDL
MODEL 5
REMARK VINA RESULT:    -7.034      6.154      8.169
REMARK INTER + INTRA:          -8.904
REMARK INTER:                  -8.646
REMARK INTRA:                  -0.258
REMARK UNBOUND:                -0.225
REMARK  Name = 
REMARK  5 active torsions:
REMARK  status: ('A' for Active; 'I' for Inactive)
REMARK    1  A    between atoms: C_1  and  C_2
REMARK    2  A    between atoms: N_8  and  C_9
REMARK    3  A    between atoms: C_9  and  C_10
REMARK    4  A    between atoms: C_14  and  C_15
REMARK    5  A    between atoms: C_19  and  C_20
REMARK                            x       y       z     vdW  Elec       q    Type
REMARK                         _______ _______ _______ _____ _____    ______ ____
ROOT
ATOM      1  C   UNL     1      48.074   5.124  16.397  0.00  0.00    +0.000 A 
ATOM      2  C   UNL     1      49.055   6.125  16.364  0.00  0.00    +0.000 A 
ATOM      3  C   UNL     1      49.246   6.907  15.227  0.00  0.00    +0.000 A 
ATOM      4  C   UNL     1      48.444   6.713  14.099  0.00  0.00    +0.000 A 
ATOM      5  C   UNL     1      47.431   5.742  14.083  0.00  0.00    +0.000 A 
ATOM      6  C   UNL     1      47.267   4.970  15.250  0.00  0.00    +0.000 A 
ENDROOT
BRANCH   5   7
ATOM      7  C   UNL     1      46.574   5.524  12.892  0.00  0.00    +0.000 A 
ATOM      8  C   UNL     1      46.680   6.337  11.747  0.00  0.00    +0.000 A 
ATOM      9  C   UNL     1      45.872   6.133  10.625  0.00  0.00    +0.000 A 
ATOM     10  C   UNL     1      44.942   5.096  10.613  0.00  0.00    +0.000 A 
ATOM     11  C   UNL     1      44.819   4.267  11.727  0.00  0.00    +0.000 A 
ATOM     12  C   UNL     1      45.623   4.487  12.855  0.00  0.00    +0.000 A 
BRANCH  11  13
ATOM     13  C   UNL     1      43.875   3.190  11.723  0.00  0.00    +0.000 C 
ATOM     14  N   UNL     1      43.104   2.319  11.718  0.00  0.00    +0.000 NA
ENDBRANCH  11  13
ENDBRANCH   5   7
BRANCH   1  15
ATOM     15  C   UNL     1      47.901   4.217  17.612  0.00  0.00    +0.000 C 
ATOM     16  C   UNL     1      47.482   2.772  17.363  0.00  0.00    +0.000 C 
ATOM     17  C   UNL     1      48.886   3.076  17.771  0.00  0.00    +0.000 C 
BRANCH  15  25
ATOM     18  C   UNL     1      47.348   8.066  22.236  0.00  0.00    +0.000 C 
ATOM     19  C   UNL     1      48.009   6.934  21.512  0.00  0.00    +0.000 A 
ATOM     20  N   UNL     1      49.179   6.504  21.960  0.00  0.00    +0.000 NA
ATOM     21  C   UNL     1      49.677   5.504  21.244  0.00  0.00    +0.000 A 
ATOM     22 CL   UNL     1      51.167   4.866  21.789  0.00  0.00    +0.000 Cl
ATOM     23  N   UNL     1      49.155   4.927  20.171  0.00  0.00    +0.000 NA
ATOM     24  C   UNL     1      47.980   5.422  19.817  0.00  0.00    +0.000 A 
ATOM     25  N   UNL     1      47.254   4.870  18.759  0.00  0.00    +0.000 N 
ATOM     26  N   UNL     1      47.373   6.424  20.454  0.00  0.00    +0.000 NA
ATOM     27  H   UNL     1      46.485   5.501  18.567  0.00  0.00    +0.000 HD
ENDBRANCH  15  25
ENDBRANCH   1  15
TORSDOF 4
ENDMDL
MODEL 6
REMARK VINA RESULT:    -6.967      2.448      4.335
REMARK INTER + INTRA:          -8.822
REMARK INTER:                  -8.576
REMARK INTRA:                  -0.246
REMARK UNBOUND:                -0.225
REMARK  Name = 
REMARK  5 active torsions:
REMARK  status: ('A' for Active; 'I' for Inactive)
REMARK    1  A    between atoms: C_1  and  C_2
REMARK    2  A    between atoms: N_8  and  C_9
REMARK    3  A    between atoms: C_9  and  C_10
REMARK    4  A    between atoms: C_14  and  C_15
REMARK    5  A    between atoms: C_19  and  C_20
REMARK                            x       y       z     vdW  Elec       q    Type
REMARK                         _______ _______ _______ _____ _____    ______ ____
ROOT
ATOM      1  C   UNL     1      46.970   9.224  12.210  0.00  0.00    +0.000 A 
ATOM      2  C   UNL     1      48.215   8.825  12.714  0.00  0.00    +0.000 A 
ATOM      3  C   UNL     1      48.467   7.493  13.038  0.00  0.00    +0.000 A 
ATOM      4  C   UNL     1      47.476   6.526  12.849  0.00  0.00    +0.000 A 
ATOM      5  C   UNL     1      46.218   6.864  12.326  0.00  0.00    +0.000 A 
ATOM      6  C   UNL     1      46.000   8.219  12.010  0.00  0.00    +0.000 A 
ENDROOT
BRANCH   5   7
ATOM      7  C   UNL     1      45.156   5.848  12.122  0.00  0.00    +0.000 A 
ATOM      8  C   UNL     1      44.004   5.812  12.930  0.00  0.00    +0.000 A 
ATOM      9  C   UNL     1      43.004   4.854  12.740  0.00  0.00    +0.000 A 
ATOM     10  C   UNL     1      43.124   3.911  11.722  0.00  0.00    +0.000 A 
ATOM     11  C   UNL     1      44.249   3.925  10.898  0.00  0.00    +0.000 A 
ATOM     12  C   UNL     1      45.255   4.881  11.104  0.00  0.00    +0.000 A 
BRANCH  11  13
ATOM     13  C   UNL     1      44.379   2.970   9.840  0.00  0.00    +0.000 C 
ATOM     14  N   UNL     1      44.481   2.189   8.985  0.00  0.00    +0.000 NA
ENDBRANCH  11  13
ENDBRANCH   5   7
BRANCH   1  15
ATOM     15  C   UNL     1      46.661  10.689  11.914  0.00  0.00    +0.000 C 
ATOM     16  C   UNL     1      47.708  11.726  12.308  0.00  0.00    +0.000 C 
ATOM     17  C   UNL     1      47.516  11.379  10.869  0.00  0.00    +0.000 C 
BRANCH  15  25
ATOM     18  C   UNL     1      40.643  10.429  11.462  0.00  0.00    +0.000 C 
ATOM     19  C   UNL     1      42.019  10.608  10.897  0.00  0.00    +0.000 A 
ATOM     20  N   UNL     1      42.155  10.638   9.580  0.00  0.00    +0.000 NA
ATOM     21  C   UNL     1      43.412  10.795   9.189  0.00  0.00    +0.000 A 
ATOM     22 CL   UNL     1      43.661  10.887   7.499  0.00  0.00    +0.000 Cl
ATOM     23  N   UNL     1      44.496  10.908   9.943  0.00  0.00    +0.000 NA
ATOM     24  C   UNL     1      44.247  10.881  11.242  0.00  0.00    +0.000 A 
ATOM     25  N   UNL     1      45.268  11.073  12.176  0.00  0.00    +0.000 N 
ATOM     26  N   UNL     1      43.029  10.729  11.763  0.00  0.00    +0.000 NA
ATOM     27  H   UNL     1      44.882  10.847  13.086  0.00  0.00    +0.000 HD
ENDBRANCH  15  25
ENDBRANCH   1  15
TORSDOF 4
ENDMDL
MODEL 7
REMARK VINA RESULT:    -6.929      3.653      7.391
REMARK INTER + INTRA:          -8.774
REMARK INTER:                  -7.841
REMARK INTRA:                  -0.933
REMARK UNBOUND:                -0.225
REMARK  Name = 
REMARK  5 active torsions:
REMARK  status: ('A' for Active; 'I' for Inactive)
REMARK    1  A    between atoms: C_1  and  C_2
REMARK    2  A    between atoms: N_8  and  C_9
REMARK    3  A    between atoms: C_9  and  C_10
REMARK    4  A    between atoms: C_14  and  C_15
REMARK    5  A    between atoms: C_19  and  C_20
REMARK                            x       y       z     vdW  Elec       q    Type
REMARK                         _______ _______ _______ _____ _____    ______ ____
ROOT
ATOM      1  C   UNL     1      46.972   8.129  12.505  0.00  0.00    +0.000 A 
ATOM      2  C   UNL     1      48.049   8.551  11.714  0.00  0.00    +0.000 A 
ATOM      3  C   UNL     1      49.365   8.290  12.092  0.00  0.00    +0.000 A 
ATOM      4  C   UNL     1      49.630   7.584  13.268  0.00  0.00    +0.000 A 
ATOM      5  C   UNL     1      48.591   7.116  14.087  0.00  0.00    +0.000 A 
ATOM      6  C   UNL     1      47.274   7.398  13.673  0.00  0.00    +0.000 A 
ENDROOT
BRANCH   5   7
ATOM      7  C   UNL     1      48.858   6.366  15.339  0.00  0.00    +0.000 A 
ATOM      8  C   UNL     1      49.953   6.679  16.167  0.00  0.00    +0.000 A 
ATOM      9  C   UNL     1      50.206   5.972  17.346  0.00  0.00    +0.000 A 
ATOM     10  C   UNL     1      49.359   4.939  17.738  0.00  0.00    +0.000 A 
ATOM     11  C   UNL     1      48.259   4.611  16.945  0.00  0.00    +0.000 A 
ATOM     12  C   UNL     1      48.020   5.316  15.756  0.00  0.00    +0.000 A 
BRANCH  11  13
ATOM     13  C   UNL     1      47.372   3.560  17.342  0.00  0.00    +0.000 C 
ATOM     14  N   UNL     1      46.649   2.707  17.659  0.00  0.00    +0.000 NA
ENDBRANCH  11  13
ENDBRANCH   5   7
BRANCH   1  15
ATOM     15  C   UNL     1      45.531   8.466  12.134  0.00  0.00    +0.000 C 
ATOM     16  C   UNL     1      45.012   9.853  12.499  0.00  0.00    +0.000 C 
ATOM     17  C   UNL     1      45.319   9.529  11.074  0.00  0.00    +0.000 C 
BRANCH  15  25
ATOM     18  C   UNL     1      43.651   2.735  12.488  0.00  0.00    +0.000 C 
ATOM     19  C   UNL     1      44.225   3.911  11.758  0.00  0.00    +0.000 A 
ATOM     20  N   UNL     1      44.735   3.709  10.552  0.00  0.00    +0.000 NA
ATOM     21  C   UNL     1      45.219   4.813   9.999  0.00  0.00    +0.000 A 
ATOM     22 CL   UNL     1      45.856   4.640   8.422  0.00  0.00    +0.000 Cl
ATOM     23  N   UNL     1      45.254   6.037  10.508  0.00  0.00    +0.000 NA
ATOM     24  C   UNL     1      44.705   6.130  11.709  0.00  0.00    +0.000 A 
ATOM     25  N   UNL     1      44.583   7.364  12.351  0.00  0.00    +0.000 N 
ATOM     26  N   UNL     1      44.184   5.096  12.371  0.00  0.00    +0.000 NA
ATOM     27  H   UNL     1      44.295   7.174  13.304  0.00  0.00    +0.000 HD
ENDBRANCH  15  25
ENDBRANCH   1  15
TORSDOF 4
ENDMDL
MODEL 8
REMARK VINA RESULT:    -6.690      5.359      8.259
REMARK INTER + INTRA:          -8.480
REMARK INTER:                  -7.524
REMARK INTRA:                  -0.955
REMARK UNBOUND:                -0.225
REMARK  Name = 
REMARK  5 active torsions:
REMARK  status: ('A' for Active; 'I' for Inactive)
REMARK    1  A    between atoms: C_1  and  C_2
REMARK    2  A    between atoms: N_8  and  C_9
REMARK    3  A    between atoms: C_9  and  C_10
REMARK    4  A    between atoms: C_14  and  C_15
REMARK    5  A    between atoms: C_19  and  C_20
REMARK                            x       y       z     vdW  Elec       q    Type
REMARK                         _______ _______ _______ _____ _____    ______ ____
ROOT
ATOM      1  C   UNL     1      49.456   7.488  15.412  0.00  0.00    +0.000 A 
ATOM      2  C   UNL     1      50.549   7.722  14.566  0.00  0.00    +0.000 A 
ATOM      3  C   UNL     1      50.417   7.641  13.181  0.00  0.00    +0.000 A 
ATOM      4  C   UNL     1      49.178   7.337  12.611  0.00  0.00    +0.000 A 
ATOM      5  C   UNL     1      48.043   7.116  13.408  0.00  0.00    +0.000 A 
ATOM      6  C   UNL     1      48.215   7.206  14.803  0.00  0.00    +0.000 A 
ENDROOT
BRANCH   5   7
ATOM      7  C   UNL     1      46.722   6.790  12.816  0.00  0.00    +0.000 A 
ATOM      8  C   UNL     1      46.014   7.722  12.035  0.00  0.00    +0.000 A 
ATOM      9  C   UNL     1      44.768   7.417  11.479  0.00  0.00    +0.000 A 
ATOM     10  C   UNL     1      44.203   6.160  11.678  0.00  0.00    +0.000 A 
ATOM     11  C   UNL     1      44.884   5.210  12.440  0.00  0.00    +0.000 A 
ATOM     12  C   UNL     1      46.127   5.529  13.006  0.00  0.00    +0.000 A 
BRANCH  11  13
ATOM     13  C   UNL     1      44.320   3.910  12.642  0.00  0.00    +0.000 C 
ATOM     14  N   UNL     1      43.867   2.851  12.804  0.00  0.00    +0.000 NA
ENDBRANCH  11  13
ENDBRANCH   5   7
BRANCH   1  15
ATOM     15  C   UNL     1      49.605   7.509  16.930  0.00  0.00    +0.000 C 
ATOM     16  C   UNL     1      49.782   8.865  17.606  0.00  0.00    +0.000 C 
ATOM     17  C   UNL     1      48.481   8.143  17.727  0.00  0.00    +0.000 C 
BRANCH  15  25
ATOM     18  C   UNL     1      51.845   1.917  17.382  0.00  0.00    +0.000 C 
ATOM     19  C   UNL     1      50.730   2.916  17.416  0.00  0.00    +0.000 A 
ATOM     20  N   UNL     1      49.486   2.463  17.466  0.00  0.00    +0.000 NA
ATOM     21  C   UNL     1      48.579   3.430  17.487  0.00  0.00    +0.000 A 
ATOM     22 CL   UNL     1      46.950   2.922  17.596  0.00  0.00    +0.000 Cl
ATOM     23  N   UNL     1      48.778   4.740  17.453  0.00  0.00    +0.000 NA
ATOM     24  C   UNL     1      50.055   5.085  17.420  0.00  0.00    +0.000 A 
ATOM     25  N   UNL     1      50.441   6.426  17.466  0.00  0.00    +0.000 N 
ATOM     26  N   UNL     1      51.061   4.209  17.396  0.00  0.00    +0.000 NA
ATOM     27  H   UNL     1      51.433   6.455  17.262  0.00  0.00    +0.000 HD
ENDBRANCH  15  25
ENDBRANCH   1  15
TORSDOF 4
ENDMDL
MODEL 9
REMARK VINA RESULT:    -6.289      5.571      7.554
REMARK INTER + INTRA:          -7.985
REMARK INTER:                  -7.055
REMARK INTRA:                  -0.930
REMARK UNBOUND:                -0.225
REMARK  Name = 
REMARK  5 active torsions:
REMARK  status: ('A' for Active; 'I' for Inactive)
REMARK    1  A    between atoms: C_1  and  C_2
REMARK    2  A    between atoms: N_8  and  C_9
REMARK    3  A    between atoms: C_9  and  C_10
REMARK    4  A    between atoms: C_14  and  C_15
REMARK    5  A    between atoms: C_19  and  C_20
REMARK                            x       y       z     vdW  Elec       q    Type
REMARK                         _______ _______ _______ _____ _____    ______ ____
ROOT
ATOM      1  C   UNL     1      49.104   5.156  17.127  0.00  0.00    +0.000 A 
ATOM      2  C   UNL     1      48.544   4.090  17.843  0.00  0.00    +0.000 A 
ATOM      3  C   UNL     1      47.458   3.376  17.338  0.00  0.00    +0.000 A 
ATOM      4  C   UNL     1      46.918   3.708  16.093  0.00  0.00    +0.000 A 
ATOM      5  C   UNL     1      47.454   4.751  15.321  0.00  0.00    +0.000 A 
ATOM      6  C   UNL     1      48.551   5.449  15.863  0.00  0.00    +0.000 A 
ENDROOT
BRANCH   5   7
ATOM      7  C   UNL     1      46.890   5.116  13.998  0.00  0.00    +0.000 A 
ATOM      8  C   UNL     1      47.436   6.159  13.226  0.00  0.00    +0.000 A 
ATOM      9  C   UNL     1      46.904   6.504  11.980  0.00  0.00    +0.000 A 
ATOM     10  C   UNL     1      45.817   5.802  11.465  0.00  0.00    +0.000 A 
ATOM     11  C   UNL     1      45.259   4.757  12.201  0.00  0.00    +0.000 A 
ATOM     12  C   UNL     1      45.790   4.426  13.457  0.00  0.00    +0.000 A 
BRANCH  11  13
ATOM     13  C   UNL     1      44.150   4.019  11.678  0.00  0.00    +0.000 C 
ATOM     14  N   UNL     1      43.246   3.419  11.260  0.00  0.00    +0.000 NA
ENDBRANCH  11  13
ENDBRANCH   5   7
BRANCH   1  15
ATOM     15  C   UNL     1      50.250   5.985  17.700  0.00  0.00    +0.000 C 
ATOM     16  C   UNL     1      51.674   5.511  17.425  0.00  0.00    +0.000 C 
ATOM     17  C   UNL     1      51.142   6.709  16.710  0.00  0.00    +0.000 C 
BRANCH  15  25
ATOM     18  C   UNL     1      47.121   8.452  22.240  0.00  0.00    +0.000 C 
ATOM     19  C   UNL     1      47.734   8.473  20.874  0.00  0.00    +0.000 A 
ATOM     20  N   UNL     1      47.423   9.475  20.065  0.00  0.00    +0.000 NA
ATOM     21  C   UNL     1      48.016   9.393  18.881  0.00  0.00    +0.000 A 
ATOM     22 CL   UNL     1      47.697  10.676  17.797  0.00  0.00    +0.000 Cl
ATOM     23  N   UNL     1      48.839   8.451  18.441  0.00  0.00    +0.000 NA
ATOM     24  C   UNL     1      49.094   7.507  19.332  0.00  0.00    +0.000 A 
ATOM     25  N   UNL     1      50.007   6.486  19.059  0.00  0.00    +0.000 N 
ATOM     26  N   UNL     1      48.562   7.475  20.555  0.00  0.00    +0.000 NA
ATOM     27  H   UNL     1      49.916   5.802  19.802  0.00  0.00    +0.000 HD
ENDBRANCH  15  25
ENDBRANCH   1  15
TORSDOF 4
ENDMDL
