MODEL 1
REMARK VINA RESULT:    -6.838      0.000      0.000
REMARK INTER + INTRA:         -10.262
REMARK INTER:                  -9.436
REMARK INTRA:                  -0.827
REMARK UNBOUND:                -0.827
REMARK  Name = 
REMARK  8 active torsions:
REMARK  status: ('A' for Active; 'I' for Inactive)
REMARK    1  A    between atoms: C_1  and  C_2
REMARK    2  A    between atoms: C_3  and  C_4
REMARK    3  A    between atoms: C_9  and  C_10
REMARK    4  A    between atoms: C_10  and  C_11
REMARK    5  A    between atoms: C_11  and  O_12
REMARK    6  A    between atoms: O_12  and  C_13
REMARK    7  A    between atoms: C_17  and  C_18
REMARK    8  A    between atoms: C_18  and  N_19
REMARK                            x       y       z     vdW  Elec       q    Type
REMARK                         _______ _______ _______ _____ _____    ______ ____
ROOT
ATOM      1  C   UNL     1      44.086   2.933  11.854  0.00  0.00    +0.000 C 
ENDROOT
BRANCH   1   2
ATOM      2  C   UNL     1      43.760   4.251  12.577  0.00  0.00    +0.000 C 
BRANCH   2   9
ATOM      3  C   UNL     1      44.651   6.987  11.623  0.00  0.00    +0.000 C 
ATOM      4  C   UNL     1      45.505   6.153  12.536  0.00  0.00    +0.000 A 
ATOM      5  C   UNL     1      46.795   6.576  12.931  0.00  0.00    +0.000 A 
ATOM      6  C   UNL     1      47.530   5.841  13.860  0.00  0.00    +0.000 A 
ATOM      7  C   UNL     1      46.966   4.698  14.367  0.00  0.00    +0.000 A 
ATOM      8  N   UNL     1      45.773   4.233  13.965  0.00  0.00    +0.000 NA
ATOM      9  C   UNL     1      45.050   4.926  13.040  0.00  0.00    +0.000 A 
BRANCH   5  10
ATOM     10  C   UNL     1      47.416   7.754  12.388  0.00  0.00    +0.000 C 
ATOM     11  N   UNL     1      47.899   8.717  11.965  0.00  0.00    +0.000 NA
ENDBRANCH   5  10
ENDBRANCH   2   9
ENDBRANCH   1   2
BRANCH   1  12
ATOM     12  O   UNL     1      43.578   2.802  10.516  0.00  0.00    +0.000 OA
BRANCH  12  13
ATOM     13  C   UNL     1      44.540   3.060   9.550  0.00  0.00    +0.000 A 
ATOM     14  C   UNL     1      44.860   4.342   9.072  0.00  0.00    +0.000 A 
ATOM     15  C   UNL     1      45.834   4.529   8.093  0.00  0.00    +0.000 A 
ATOM     16  C   UNL     1      46.508   3.432   7.574  0.00  0.00    +0.000 A 
ATOM     17  C   UNL     1      46.216   2.137   8.025  0.00  0.00    +0.000 A 
ATOM     18  C   UNL     1      45.231   1.960   9.021  0.00  0.00    +0.000 A 
BRANCH  17  19
ATOM     19  C   UNL     1      46.979   0.975   7.437  0.00  0.00    +0.000 C 
BRANCH  19  20
ATOM     20  N   UNL     1      48.106   1.433   6.629  0.00  0.00    +0.000 NA
ATOM     21  H   UNL     1      47.942   1.171   5.659  0.00  0.00    +0.000 HD
ATOM     22  H   UNL     1      48.952   0.952   6.924  0.00  0.00    +0.000 HD
ENDBRANCH  19  20
ENDBRANCH  17  19
ENDBRANCH  12  13
ENDBRANCH   1  12
TORSDOF 7
ENDMDL
MODEL 2
REMARK VINA RESULT:    -6.717      1.161      1.846
REMARK INTER + INTRA:         -10.096
REMARK INTER:                  -9.381
REMARK INTRA:                  -0.715
REMARK UNBOUND:                -0.827
REMARK  Name = 
REMARK  8 active torsions:
REMARK  status: ('A' for Active; 'I' for Inactive)
REMARK    1  A    between atoms: C_1  and  C_2
REMARK    2  A    between atoms: C_3  and  C_4
REMARK    3  A    between atoms: C_9  and  C_10
REMARK    4  A    between atoms: C_10  and  C_11
REMARK    5  A    between atoms: C_11  and  O_12
REMARK    6  A    between atoms: O_12  and  C_13
REMARK    7  A    between atoms: C_17  and  C_18
REMARK    8  A    between atoms: C_18  and  N_19
REMARK                            x       y       z     vdW  Elec       q    Type
REMARK                         _______ _______ _______ _____ _____    ______ ____
ROOT
ATOM      1  C   UNL     1      43.827   2.797  11.834  0.00  0.00    +0.000 C 
ENDROOT
BRANCH   1   2
ATOM      2  C   UNL     1      43.656   3.887  12.905  0.00  0.00    +0.000 C 
BRANCH   2   9
ATOM      3  C   UNL     1      46.618   3.876  13.550  0.00  0.00    +0.000 C 
ATOM      4  C   UNL     1      45.938   5.091  12.982  0.00  0.00    +0.000 A 
ATOM      5  C   UNL     1      46.636   6.307  12.793  0.00  0.00    +0.000 A 
ATOM      6  C   UNL     1      46.018   7.389  12.169  0.00  0.00    +0.000 A 
ATOM      7  C   UNL     1      44.719   7.239  11.756  0.00  0.00    +0.000 A 
ATOM      8  N   UNL     1      44.007   6.123  11.980  0.00  0.00    +0.000 NA
ATOM      9  C   UNL     1      44.588   5.062  12.608  0.00  0.00    +0.000 A 
BRANCH   5  10
ATOM     10  C   UNL     1      47.988   6.494  13.245  0.00  0.00    +0.000 C 
ATOM     11  N   UNL     1      49.082   6.622  13.600  0.00  0.00    +0.000 NA
ENDBRANCH   5  10
ENDBRANCH   2   9
ENDBRANCH   1   2
BRANCH   1  12
ATOM     12  O   UNL     1      43.341   3.117  10.520  0.00  0.00    +0.000 OA
BRANCH  12  13
ATOM     13  C   UNL     1      44.360   3.222   9.583  0.00  0.00    +0.000 A 
ATOM     14  C   UNL     1      44.811   4.434   9.034  0.00  0.00    +0.000 A 
ATOM     15  C   UNL     1      45.835   4.466   8.090  0.00  0.00    +0.000 A 
ATOM     16  C   UNL     1      46.428   3.281   7.678  0.00  0.00    +0.000 A 
ATOM     17  C   UNL     1      46.006   2.051   8.202  0.00  0.00    +0.000 A 
ATOM     18  C   UNL     1      44.970   2.032   9.162  0.00  0.00    +0.000 A 
BRANCH  17  19
ATOM     19  C   UNL     1      46.684   0.789   7.729  0.00  0.00    +0.000 C 
BRANCH  19  20
ATOM     20  N   UNL     1      47.843   1.090   6.893  0.00  0.00    +0.000 NA
ATOM     21  H   UNL     1      48.433   1.761   7.380  0.00  0.00    +0.000 HD
ATOM     22  H   UNL     1      47.535   1.539   6.035  0.00  0.00    +0.000 HD
ENDBRANCH  19  20
ENDBRANCH  17  19
ENDBRANCH  12  13
ENDBRANCH   1  12
TORSDOF 7
ENDMDL
MODEL 3
REMARK VINA RESULT:    -6.515      1.012      1.570
REMARK INTER + INTRA:          -9.818
REMARK INTER:                  -9.057
REMARK INTRA:                  -0.760
REMARK UNBOUND:                -0.827
REMARK  Name = 
REMARK  8 active torsions:
REMARK  status: ('A' for Active; 'I' for Inactive)
REMARK    1  A    between atoms: C_1  and  C_2
REMARK    2  A    between atoms: C_3  and  C_4
REMARK    3  A    between atoms: C_9  and  C_10
REMARK    4  A    between atoms: C_10  and  C_11
REMARK    5  A    between atoms: C_11  and  O_12
REMARK    6  A    between atoms: O_12  and  C_13
REMARK    7  A    between atoms: C_17  and  C_18
REMARK    8  A    between atoms: C_18  and  N_19
REMARK                            x       y       z     vdW  Elec       q    Type
REMARK                         _______ _______ _______ _____ _____    ______ ____
ROOT
ATOM      1  C   UNL     1      42.998   4.485  11.355  0.00  0.00    +0.000 C 
ENDROOT
BRANCH   1   2
ATOM      2  C   UNL     1      43.218   5.326  12.625  0.00  0.00    +0.000 C 
BRANCH   2   9
ATOM      3  C   UNL     1      44.885   7.721  11.806  0.00  0.00    +0.000 C 
ATOM      4  C   UNL     1      45.501   6.519  12.465  0.00  0.00    +0.000 A 
ATOM      5  C   UNL     1      46.898   6.421  12.664  0.00  0.00    +0.000 A 
ATOM      6  C   UNL     1      47.440   5.348  13.370  0.00  0.00    +0.000 A 
ATOM      7  C   UNL     1      46.581   4.394  13.851  0.00  0.00    +0.000 A 
ATOM      8  N   UNL     1      45.258   4.422  13.623  0.00  0.00    +0.000 NA
ATOM      9  C   UNL     1      44.713   5.452  12.916  0.00  0.00    +0.000 A 
BRANCH   5  10
ATOM     10  C   UNL     1      47.818   7.395  12.141  0.00  0.00    +0.000 C 
ATOM     11  N   UNL     1      48.539   8.190  11.708  0.00  0.00    +0.000 NA
ENDBRANCH   5  10
ENDBRANCH   2   9
ENDBRANCH   1   2
BRANCH   1  12
ATOM     12  O   UNL     1      43.656   4.950  10.166  0.00  0.00    +0.000 OA
BRANCH  12  13
ATOM     13  C   UNL     1      44.363   3.946   9.518  0.00  0.00    +0.000 A 
ATOM     14  C   UNL     1      44.223   2.575   9.789  0.00  0.00    +0.000 A 
ATOM     15  C   UNL     1      44.973   1.620   9.104  0.00  0.00    +0.000 A 
ATOM     16  C   UNL     1      45.877   2.023   8.133  0.00  0.00    +0.000 A 
ATOM     17  C   UNL     1      46.046   3.382   7.834  0.00  0.00    +0.000 A 
ATOM     18  C   UNL     1      45.277   4.341   8.531  0.00  0.00    +0.000 A 
BRANCH  17  19
ATOM     19  C   UNL     1      47.036   3.773   6.764  0.00  0.00    +0.000 C 
BRANCH  19  20
ATOM     20  N   UNL     1      48.114   2.793   6.654  0.00  0.00    +0.000 NA
ATOM     21  H   UNL     1      48.332   2.656   5.669  0.00  0.00    +0.000 HD
ATOM     22  H   UNL     1      47.796   1.897   7.012  0.00  0.00    +0.000 HD
ENDBRANCH  19  20
ENDBRANCH  17  19
ENDBRANCH  12  13
ENDBRANCH   1  12
TORSDOF 7
ENDMDL
MODEL 4
REMARK VINA RESULT:    -6.276      1.431      2.939
REMARK INTER + INTRA:          -9.488
REMARK INTER:                  -8.862
REMARK INTRA:                  -0.626
REMARK UNBOUND:                -0.827
REMARK  Name = 
REMARK  8 active torsions:
REMARK  status: ('A' for Active; 'I' for Inactive)
REMARK    1  A    between atoms: C_1  and  C_2
REMARK    2  A    between atoms: C_3  and  C_4
REMARK    3  A    between atoms: C_9  and  C_10
REMARK    4  A    between atoms: C_10  and  C_11
REMARK    5  A    between atoms: C_11  and  O_12
REMARK    6  A    between atoms: O_12  and  C_13
REMARK    7  A    between atoms: C_17  and  C_18
REMARK    8  A    between atoms: C_18  and  N_19
REMARK                            x       y       z     vdW  Elec       q    Type
REMARK                         _______ _______ _______ _____ _____    ______ ____
ROOT
ATOM      1  C   UNL     1      45.144   5.360   9.585  0.00  0.00    +0.000 C 
ENDROOT
BRANCH   1   2
ATOM      2  C   UNL     1      44.600   5.803  10.954  0.00  0.00    +0.000 C 
BRANCH   2   9
ATOM      3  C   UNL     1      45.418   3.411  12.626  0.00  0.00    +0.000 C 
ATOM      4  C   UNL     1      46.057   4.759  12.812  0.00  0.00    +0.000 A 
ATOM      5  C   UNL     1      47.015   4.989  13.826  0.00  0.00    +0.000 A 
ATOM      6  C   UNL     1      47.673   6.215  13.916  0.00  0.00    +0.000 A 
ATOM      7  C   UNL     1      47.354   7.185  13.001  0.00  0.00    +0.000 A 
ATOM      8  N   UNL     1      46.402   7.023  12.068  0.00  0.00    +0.000 NA
ATOM      9  C   UNL     1      45.733   5.839  11.979  0.00  0.00    +0.000 A 
BRANCH   5  10
ATOM     10  C   UNL     1      47.341   3.995  14.813  0.00  0.00    +0.000 C 
ATOM     11  N   UNL     1      47.582   3.200  15.619  0.00  0.00    +0.000 NA
ENDBRANCH   5  10
ENDBRANCH   2   9
ENDBRANCH   1   2
BRANCH   1  12
ATOM     12  O   UNL     1      44.368   4.374   8.883  0.00  0.00    +0.000 OA
BRANCH  12  13
ATOM     13  C   UNL     1      45.142   3.331   8.395  0.00  0.00    +0.000 A 
ATOM     14  C   UNL     1      45.206   2.052   8.973  0.00  0.00    +0.000 A 
ATOM     15  C   UNL     1      46.012   1.052   8.433  0.00  0.00    +0.000 A 
ATOM     16  C   UNL     1      46.770   1.315   7.301  0.00  0.00    +0.000 A 
ATOM     17  C   UNL     1      46.734   2.579   6.696  0.00  0.00    +0.000 A 
ATOM     18  C   UNL     1      45.910   3.584   7.249  0.00  0.00    +0.000 A 
BRANCH  17  19
ATOM     19  C   UNL     1      47.571   2.817   5.463  0.00  0.00    +0.000 C 
BRANCH  19  20
ATOM     20  N   UNL     1      48.341   1.629   5.105  0.00  0.00    +0.000 NA
ATOM     21  H   UNL     1      48.964   1.397   5.876  0.00  0.00    +0.000 HD
ATOM     22  H   UNL     1      48.931   1.836   4.303  0.00  0.00    +0.000 HD
ENDBRANCH  19  20
ENDBRANCH  17  19
ENDBRANCH  12  13
ENDBRANCH   1  12
TORSDOF 7
ENDMDL
MODEL 5
REMARK VINA RESULT:    -5.969      2.393      4.397
REMARK INTER + INTRA:          -9.063
REMARK INTER:                  -8.026
REMARK INTRA:                  -1.037
REMARK UNBOUND:                -0.827
REMARK  Name = 
REMARK  8 active torsions:
REMARK  status: ('A' for Active; 'I' for Inactive)
REMARK    1  A    between atoms: C_1  and  C_2
REMARK    2  A    between atoms: C_3  and  C_4
REMARK    3  A    between atoms: C_9  and  C_10
REMARK    4  A    between atoms: C_10  and  C_11
REMARK    5  A    between atoms: C_11  and  O_12
REMARK    6  A    between atoms: O_12  and  C_13
REMARK    7  A    between atoms: C_17  and  C_18
REMARK    8  A    between atoms: C_18  and  N_19
REMARK                            x       y       z     vdW  Elec       q    Type
REMARK                         _______ _______ _______ _____ _____    ______ ____
ROOT
ATOM      1  C   UNL     1      46.108   7.385  12.419  0.00  0.00    +0.000 C 
ENDROOT
BRANCH   1   2
ATOM      2  C   UNL     1      47.315   6.432  12.408  0.00  0.00    +0.000 C 
BRANCH   2   9
ATOM      3  C   UNL     1      46.632   3.844  13.830  0.00  0.00    +0.000 C 
ATOM      4  C   UNL     1      47.360   4.959  14.528  0.00  0.00    +0.000 A 
ATOM      5  C   UNL     1      47.692   4.879  15.900  0.00  0.00    +0.000 A 
ATOM      6  C   UNL     1      48.459   5.875  16.503  0.00  0.00    +0.000 A 
ATOM      7  C   UNL     1      48.868   6.931  15.728  0.00  0.00    +0.000 A 
ATOM      8  N   UNL     1      48.514   7.070  14.441  0.00  0.00    +0.000 NA
ATOM      9  C   UNL     1      47.746   6.118  13.840  0.00  0.00    +0.000 A 
BRANCH   5  10
ATOM     10  C   UNL     1      47.248   3.796  16.735  0.00  0.00    +0.000 C 
ATOM     11  N   UNL     1      46.871   2.921  17.392  0.00  0.00    +0.000 NA
ENDBRANCH   5  10
ENDBRANCH   2   9
ENDBRANCH   1   2
BRANCH   1  12
ATOM     12  O   UNL     1      45.101   7.145  11.422  0.00  0.00    +0.000 OA
BRANCH  12  13
ATOM     13  C   UNL     1      44.506   5.898  11.550  0.00  0.00    +0.000 A 
ATOM     14  C   UNL     1      43.711   5.506  12.640  0.00  0.00    +0.000 A 
ATOM     15  C   UNL     1      43.150   4.232  12.707  0.00  0.00    +0.000 A 
ATOM     16  C   UNL     1      43.375   3.326  11.681  0.00  0.00    +0.000 A 
ATOM     17  C   UNL     1      44.163   3.679  10.577  0.00  0.00    +0.000 A 
ATOM     18  C   UNL     1      44.723   4.975  10.517  0.00  0.00    +0.000 A 
BRANCH  17  19
ATOM     19  C   UNL     1      44.374   2.663   9.481  0.00  0.00    +0.000 C 
BRANCH  19  20
ATOM     20  N   UNL     1      44.387   3.295   8.165  0.00  0.00    +0.000 NA
ATOM     21  H   UNL     1      44.942   2.722   7.532  0.00  0.00    +0.000 HD
ATOM     22  H   UNL     1      44.850   4.198   8.226  0.00  0.00    +0.000 HD
ENDBRANCH  19  20
ENDBRANCH  17  19
ENDBRANCH  12  13
ENDBRANCH   1  12
TORSDOF 7
ENDMDL
MODEL 6
REMARK VINA RESULT:    -5.808      2.564      6.484
REMARK INTER + INTRA:          -8.842
REMARK INTER:                  -8.007
REMARK INTRA:                  -0.835
REMARK UNBOUND:                -0.827
REMARK  Name = 
REMARK  8 active torsions:
REMARK  status: ('A' for Active; 'I' for Inactive)
REMARK    1  A    between atoms: C_1  and  C_2
REMARK    2  A    between atoms: C_3  and  C_4
REMARK    3  A    between atoms: C_9  and  C_10
REMARK    4  A    between atoms: C_10  and  C_11
REMARK    5  A    between atoms: C_11  and  O_12
REMARK    6  A    between atoms: O_12  and  C_13
REMARK    7  A    between atoms: C_17  and  C_18
REMARK    8  A    between atoms: C_18  and  N_19
REMARK                            x       y       z     vdW  Elec       q    Type
REMARK                         _______ _______ _______ _____ _____    ______ ____
ROOT
ATOM      1  C   UNL     1      46.041   7.560  12.791  0.00  0.00    +0.000 C 
ENDROOT
BRANCH   1   2
ATOM      2  C   UNL     1      44.881   7.266  11.824  0.00  0.00    +0.000 C 
BRANCH   2   9
ATOM      3  C   UNL     1      45.719   5.298   9.677  0.00  0.00    +0.000 C 
ATOM      4  C   UNL     1      44.848   4.884  10.830  0.00  0.00    +0.000 A 
ATOM      5  C   UNL     1      44.320   3.576  10.924  0.00  0.00    +0.000 A 
ATOM      6  C   UNL     1      43.602   3.179  12.051  0.00  0.00    +0.000 A 
ATOM      7  C   UNL     1      43.419   4.098  13.053  0.00  0.00    +0.000 A 
ATOM      8  N   UNL     1      43.850   5.366  12.967  0.00  0.00    +0.000 NA
ATOM      9  C   UNL     1      44.534   5.778  11.863  0.00  0.00    +0.000 A 
BRANCH   5  10
ATOM     10  C   UNL     1      44.475   2.608   9.871  0.00  0.00    +0.000 C 
ATOM     11  N   UNL     1      44.619   1.843   9.015  0.00  0.00    +0.000 NA
ENDBRANCH   5  10
ENDBRANCH   2   9
ENDBRANCH   1   2
BRANCH   1  12
ATOM     12  O   UNL     1      47.161   6.662  12.730  0.00  0.00    +0.000 OA
BRANCH  12  13
ATOM     13  C   UNL     1      47.656   6.338  13.986  0.00  0.00    +0.000 A 
ATOM     14  C   UNL     1      48.454   7.190  14.768  0.00  0.00    +0.000 A 
ATOM     15  C   UNL     1      48.925   6.796  16.019  0.00  0.00    +0.000 A 
ATOM     16  C   UNL     1      48.602   5.539  16.511  0.00  0.00    +0.000 A 
ATOM     17  C   UNL     1      47.809   4.661  15.761  0.00  0.00    +0.000 A 
ATOM     18  C   UNL     1      47.333   5.073  14.496  0.00  0.00    +0.000 A 
BRANCH  17  19
ATOM     19  C   UNL     1      47.479   3.307  16.339  0.00  0.00    +0.000 C 
BRANCH  19  20
ATOM     20  N   UNL     1      46.627   3.426  17.519  0.00  0.00    +0.000 NA
ATOM     21  H   UNL     1      46.708   2.572  18.068  0.00  0.00    +0.000 HD
ATOM     22  H   UNL     1      45.655   3.498  17.231  0.00  0.00    +0.000 HD
ENDBRANCH  19  20
ENDBRANCH  17  19
ENDBRANCH  12  13
ENDBRANCH   1  12
TORSDOF 7
ENDMDL
MODEL 7
REMARK VINA RESULT:    -5.780      2.137      3.252
REMARK INTER + INTRA:          -8.802
REMARK INTER:                  -8.415
REMARK INTRA:                  -0.388
REMARK UNBOUND:                -0.827
REMARK  Name = 
REMARK  8 active torsions:
REMARK  status: ('A' for Active; 'I' for Inactive)
REMARK    1  A    between atoms: C_1  and  C_2
REMARK    2  A    between atoms: C_3  and  C_4
REMARK    3  A    between atoms: C_9  and  C_10
REMARK    4  A    between atoms: C_10  and  C_11
REMARK    5  A    between atoms: C_11  and  O_12
REMARK    6  A    between atoms: O_12  and  C_13
REMARK    7  A    between atoms: C_17  and  C_18
REMARK    8  A    between atoms: C_18  and  N_19
REMARK                            x       y       z     vdW  Elec       q    Type
REMARK                         _______ _______ _______ _____ _____    ______ ____
ROOT
ATOM      1  C   UNL     1      44.870   1.738   8.990  0.00  0.00    +0.000 C 
ENDROOT
BRANCH   1   2
ATOM      2  C   UNL     1      44.373   3.190   8.886  0.00  0.00    +0.000 C 
BRANCH   2   9
ATOM      3  C   UNL     1      45.906   5.670   9.719  0.00  0.00    +0.000 C 
ATOM      4  C   UNL     1      45.050   4.907  10.692  0.00  0.00    +0.000 A 
ATOM      5  C   UNL     1      44.981   5.269  12.057  0.00  0.00    +0.000 A 
ATOM      6  C   UNL     1      44.103   4.617  12.921  0.00  0.00    +0.000 A 
ATOM      7  C   UNL     1      43.322   3.613  12.407  0.00  0.00    +0.000 A 
ATOM      8  N   UNL     1      43.410   3.200  11.133  0.00  0.00    +0.000 NA
ATOM      9  C   UNL     1      44.279   3.811  10.280  0.00  0.00    +0.000 A 
BRANCH   5  10
ATOM     10  C   UNL     1      45.813   6.298  12.620  0.00  0.00    +0.000 C 
ATOM     11  N   UNL     1      46.503   7.111  13.070  0.00  0.00    +0.000 NA
ENDBRANCH   5  10
ENDBRANCH   2   9
ENDBRANCH   1   2
BRANCH   1  12
ATOM     12  O   UNL     1      46.270   1.527   8.749  0.00  0.00    +0.000 OA
BRANCH  12  13
ATOM     13  C   UNL     1      46.633   1.788   7.435  0.00  0.00    +0.000 A 
ATOM     14  C   UNL     1      46.901   3.070   6.926  0.00  0.00    +0.000 A 
ATOM     15  C   UNL     1      47.253   3.260   5.591  0.00  0.00    +0.000 A 
ATOM     16  C   UNL     1      47.345   2.168   4.741  0.00  0.00    +0.000 A 
ATOM     17  C   UNL     1      47.085   0.873   5.211  0.00  0.00    +0.000 A 
ATOM     18  C   UNL     1      46.733   0.692   6.567  0.00  0.00    +0.000 A 
BRANCH  17  19
ATOM     19  C   UNL     1      47.203  -0.285   4.252  0.00  0.00    +0.000 C 
BRANCH  19  20
ATOM     20  N   UNL     1      47.344   0.178   2.874  0.00  0.00    +0.000 NA
ATOM     21  H   UNL     1      47.282   1.194   2.862  0.00  0.00    +0.000 HD
ATOM     22  H   UNL     1      46.568  -0.170   2.318  0.00  0.00    +0.000 HD
ENDBRANCH  19  20
ENDBRANCH  17  19
ENDBRANCH  12  13
ENDBRANCH   1  12
TORSDOF 7
ENDMDL
MODEL 8
REMARK VINA RESULT:    -5.737      4.279      6.092
REMARK INTER + INTRA:          -8.743
REMARK INTER:                  -8.284
REMARK INTRA:                  -0.459
REMARK UNBOUND:                -0.827
REMARK  Name = 
REMARK  8 active torsions:
REMARK  status: ('A' for Active; 'I' for Inactive)
REMARK    1  A    between atoms: C_1  and  C_2
REMARK    2  A    between atoms: C_3  and  C_4
REMARK    3  A    between atoms: C_9  and  C_10
REMARK    4  A    between atoms: C_10  and  C_11
REMARK    5  A    between atoms: C_11  and  O_12
REMARK    6  A    between atoms: O_12  and  C_13
REMARK    7  A    between atoms: C_17  and  C_18
REMARK    8  A    between atoms: C_18  and  N_19
REMARK                            x       y       z     vdW  Elec       q    Type
REMARK                         _______ _______ _______ _____ _____    ______ ____
ROOT
ATOM      1  C   UNL     1      47.251   4.222  15.581  0.00  0.00    +0.000 C 
ENDROOT
BRANCH   1   2
ATOM      2  C   UNL     1      47.329   3.410  16.885  0.00  0.00    +0.000 C 
BRANCH   2   9
ATOM      3  C   UNL     1      48.873   5.157  18.822  0.00  0.00    +0.000 C 
ATOM      4  C   UNL     1      49.529   4.020  18.090  0.00  0.00    +0.000 A 
ATOM      5  C   UNL     1      50.913   3.761  18.217  0.00  0.00    +0.000 A 
ATOM      6  C   UNL     1      51.484   2.640  17.615  0.00  0.00    +0.000 A 
ATOM      7  C   UNL     1      50.664   1.810  16.894  0.00  0.00    +0.000 A 
ATOM      8  N   UNL     1      49.360   2.062  16.699  0.00  0.00    +0.000 NA
ATOM      9  C   UNL     1      48.790   3.165  17.261  0.00  0.00    +0.000 A 
BRANCH   5  10
ATOM     10  C   UNL     1      51.794   4.636  18.943  0.00  0.00    +0.000 C 
ATOM     11  N   UNL     1      52.490   5.359  19.519  0.00  0.00    +0.000 NA
ENDBRANCH   5  10
ENDBRANCH   2   9
ENDBRANCH   1   2
BRANCH   1  12
ATOM     12  O   UNL     1      47.206   3.462  14.362  0.00  0.00    +0.000 OA
BRANCH  12  13
ATOM     13  C   UNL     1      46.543   4.127  13.340  0.00  0.00    +0.000 A 
ATOM     14  C   UNL     1      46.822   5.444  12.939  0.00  0.00    +0.000 A 
ATOM     15  C   UNL     1      46.110   6.054  11.908  0.00  0.00    +0.000 A 
ATOM     16  C   UNL     1      45.106   5.354  11.257  0.00  0.00    +0.000 A 
ATOM     17  C   UNL     1      44.797   4.037  11.628  0.00  0.00    +0.000 A 
ATOM     18  C   UNL     1      45.528   3.427  12.672  0.00  0.00    +0.000 A 
BRANCH  17  19
ATOM     19  C   UNL     1      43.701   3.312  10.887  0.00  0.00    +0.000 C 
BRANCH  19  20
ATOM     20  N   UNL     1      43.128   2.242  11.699  0.00  0.00    +0.000 NA
ATOM     21  H   UNL     1      43.046   2.569  12.660  0.00  0.00    +0.000 HD
ATOM     22  H   UNL     1      43.762   1.449  11.712  0.00  0.00    +0.000 HD
ENDBRANCH  19  20
ENDBRANCH  17  19
ENDBRANCH  12  13
ENDBRANCH   1  12
TORSDOF 7
ENDMDL
MODEL 9
REMARK VINA RESULT:    -5.441      4.283      6.780
REMARK INTER + INTRA:          -8.335
REMARK INTER:                  -7.542
REMARK INTRA:                  -0.793
REMARK UNBOUND:                -0.827
REMARK  Name = 
REMARK  8 active torsions:
REMARK  status: ('A' for Active; 'I' for Inactive)
REMARK    1  A    between atoms: C_1  and  C_2
REMARK    2  A    between atoms: C_3  and  C_4
REMARK    3  A    between atoms: C_9  and  C_10
REMARK    4  A    between atoms: C_10  and  C_11
REMARK    5  A    between atoms: C_11  and  O_12
REMARK    6  A    between atoms: O_12  and  C_13
REMARK    7  A    between atoms: C_17  and  C_18
REMARK    8  A    between atoms: C_18  and  N_19
REMARK                            x       y       z     vdW  Elec       q    Type
REMARK                         _______ _______ _______ _____ _____    ______ ____
ROOT
ATOM      1  C   UNL     1      48.822   7.353  15.738  0.00  0.00    +0.000 C 
ENDROOT
BRANCH   1   2
ATOM      2  C   UNL     1      49.216   6.882  17.148  0.00  0.00    +0.000 C 
BRANCH   2   9
ATOM      3  C   UNL     1      51.399   4.803  17.469  0.00  0.00    +0.000 C 
ATOM      4  C   UNL     1      49.951   4.416  17.359  0.00  0.00    +0.000 A 
ATOM      5  C   UNL     1      49.550   3.060  17.326  0.00  0.00    +0.000 A 
ATOM      6  C   UNL     1      48.198   2.720  17.330  0.00  0.00    +0.000 A 
ATOM      7  C   UNL     1      47.278   3.737  17.357  0.00  0.00    +0.000 A 
ATOM      8  N   UNL     1      47.624   5.034  17.322  0.00  0.00    +0.000 NA
ATOM      9  C   UNL     1      48.941   5.385  17.295  0.00  0.00    +0.000 A 
BRANCH   5  10
ATOM     10  C   UNL     1      50.498   1.981  17.266  0.00  0.00    +0.000 C 
ATOM     11  N   UNL     1      51.276   1.127  17.205  0.00  0.00    +0.000 NA
ENDBRANCH   5  10
ENDBRANCH   2   9
ENDBRANCH   1   2
BRANCH   1  12
ATOM     12  O   UNL     1      49.202   6.491  14.652  0.00  0.00    +0.000 OA
BRANCH  12  13
ATOM     13  C   UNL     1      48.275   6.489  13.620  0.00  0.00    +0.000 A 
ATOM     14  C   UNL     1      48.431   7.189  12.412  0.00  0.00    +0.000 A 
ATOM     15  C   UNL     1      47.453   7.149  11.419  0.00  0.00    +0.000 A 
ATOM     16  C   UNL     1      46.300   6.404  11.619  0.00  0.00    +0.000 A 
ATOM     17  C   UNL     1      46.107   5.692  12.811  0.00  0.00    +0.000 A 
ATOM     18  C   UNL     1      47.107   5.737  13.808  0.00  0.00    +0.000 A 
BRANCH  17  19
ATOM     19  C   UNL     1      44.840   4.891  12.981  0.00  0.00    +0.000 C 
BRANCH  19  20
ATOM     20  N   UNL     1      43.688   5.759  13.209  0.00  0.00    +0.000 NA
ATOM     21  H   UNL     1      43.598   6.397  12.420  0.00  0.00    +0.000 HD
ATOM     22  H   UNL     1      43.852   6.332  14.032  0.00  0.00    +0.000 HD
ENDBRANCH  19  20
ENDBRANCH  17  19
ENDBRANCH  12  13
ENDBRANCH   1  12
TORSDOF 7
ENDMDL
