MODEL 1
REMARK VINA RESULT:    -8.395      0.000      0.000
REMARK INTER + INTRA:         -12.223
REMARK INTER:                 -11.340
REMARK INTRA:                  -0.883
REMARK UNBOUND:                -0.883
REMARK  Name = 
REMARK  8 active torsions:
REMARK  status: ('A' for Active; 'I' for Inactive)
REMARK    1  A    between atoms: C_1  and  C_2
REMARK    2  A    between atoms: C_4  and  C_5
REMARK    3  A    between atoms: C_5  and  C_6
REMARK    4  A    between atoms: C_5  and  C_7
REMARK    5  A    between atoms: C_7  and  O_8
REMARK    6  A    between atoms: O_8  and  C_9
REMARK    7  A    between atoms: C_12  and  C_13
REMARK    8  A    between atoms: C_19  and  C_20
REMARK                            x       y       z     vdW  Elec       q    Type
REMARK                         _______ _______ _______ _____ _____    ______ ____
ROOT
ATOM      1  C   UNL     1      43.985   4.703  12.412  0.00  0.00    +0.000 C 
ATOM      2  C   UNL     1      43.333   5.797  11.563  0.00  0.00    +0.000 C 
ENDROOT
BRANCH   1   6
ATOM      3  C   UNL     1      48.259   7.363  11.785  0.00  0.00    +0.000 C 
ATOM      4  C   UNL     1      47.411   6.407  12.571  0.00  0.00    +0.000 A 
ATOM      5  C   UNL     1      46.158   6.030  12.102  0.00  0.00    +0.000 A 
ATOM      6  C   UNL     1      45.380   5.135  12.843  0.00  0.00    +0.000 A 
ATOM      7  C   UNL     1      45.908   4.660  14.046  0.00  0.00    +0.000 A 
ATOM      8  C   UNL     1      47.174   5.076  14.464  0.00  0.00    +0.000 A 
ATOM      9  N   UNL     1      47.918   5.946  13.735  0.00  0.00    +0.000 NA
BRANCH   8  10
ATOM     10  C   UNL     1      47.790   4.596  15.717  0.00  0.00    +0.000 A 
ATOM     11  C   UNL     1      47.717   3.237  16.086  0.00  0.00    +0.000 A 
ATOM     12  C   UNL     1      48.291   2.771  17.274  0.00  0.00    +0.000 A 
ATOM     13  C   UNL     1      48.949   3.657  18.121  0.00  0.00    +0.000 A 
ATOM     14  C   UNL     1      49.026   4.997  17.771  0.00  0.00    +0.000 A 
ATOM     15  F   UNL     1      49.653   5.858  18.583  0.00  0.00    +0.000 F 
ATOM     16  C   UNL     1      48.459   5.469  16.591  0.00  0.00    +0.000 A 
ENDBRANCH   8  10
ENDBRANCH   1   6
BRANCH   1  17
ATOM     17  C   UNL     1      44.004   3.357  11.671  0.00  0.00    +0.000 C 
BRANCH  17  18
ATOM     18  O   UNL     1      43.535   3.487  10.327  0.00  0.00    +0.000 OA
BRANCH  18  19
ATOM     19  C   UNL     1      44.495   3.308   9.375  0.00  0.00    +0.000 A 
ATOM     20  C   UNL     1      45.069   4.276   8.570  0.00  0.00    +0.000 A 
ATOM     21  N   UNL     1      46.038   4.039   7.661  0.00  0.00    +0.000 NA
ATOM     22  C   UNL     1      46.438   2.751   7.570  0.00  0.00    +0.000 A 
ATOM     23  N   UNL     1      45.946   1.720   8.287  0.00  0.00    +0.000 NA
ATOM     24  C   UNL     1      44.979   2.031   9.176  0.00  0.00    +0.000 A 
BRANCH  22  25
ATOM     25  C   UNL     1      47.545   2.461   6.581  0.00  0.00    +0.000 C 
ATOM     26  N   UNL     1      47.451   3.111   5.371  0.00  0.00    +0.000 N 
ATOM     27  O   UNL     1      48.481   1.708   6.808  0.00  0.00    +0.000 OA
ATOM     28  H   UNL     1      46.682   3.742   5.182  0.00  0.00    +0.000 HD
ATOM     29  H   UNL     1      48.173   2.957   4.682  0.00  0.00    +0.000 HD
ENDBRANCH  22  25
ENDBRANCH  18  19
ENDBRANCH  17  18
ENDBRANCH   1  17
TORSDOF 6
ENDMDL
MODEL 2
REMARK VINA RESULT:    -8.165      3.581      8.085
REMARK INTER + INTRA:         -11.912
REMARK INTER:                 -11.016
REMARK INTRA:                  -0.896
REMARK UNBOUND:                -0.883
REMARK  Name = 
REMARK  8 active torsions:
REMARK  status: ('A' for Active; 'I' for Inactive)
REMARK    1  A    between atoms: C_1  and  C_2
REMARK    2  A    between atoms: C_4  and  C_5
REMARK    3  A    between atoms: C_5  and  C_6
REMARK    4  A    between atoms: C_5  and  C_7
REMARK    5  A    between atoms: C_7  and  O_8
REMARK    6  A    between atoms: O_8  and  C_9
REMARK    7  A    between atoms: C_12  and  C_13
REMARK    8  A    between atoms: C_19  and  C_20
REMARK                            x       y       z     vdW  Elec       q    Type
REMARK                         _______ _______ _______ _____ _____    ______ ____
ROOT
ATOM      1  C   UNL     1      45.279   6.956  11.041  0.00  0.00    +0.000 C 
ATOM      2  C   UNL     1      43.934   7.677  11.156  0.00  0.00    +0.000 C 
ENDROOT
BRANCH   1   6
ATOM      3  C   UNL     1      43.200   2.414  11.921  0.00  0.00    +0.000 C 
ATOM      4  C   UNL     1      44.066   3.325  11.102  0.00  0.00    +0.000 A 
ATOM      5  C   UNL     1      44.248   4.650  11.480  0.00  0.00    +0.000 A 
ATOM      6  C   UNL     1      45.061   5.487  10.710  0.00  0.00    +0.000 A 
ATOM      7  C   UNL     1      45.656   4.940   9.570  0.00  0.00    +0.000 A 
ATOM      8  C   UNL     1      45.435   3.601   9.242  0.00  0.00    +0.000 A 
ATOM      9  N   UNL     1      44.643   2.800   9.999  0.00  0.00    +0.000 NA
BRANCH   8  10
ATOM     10  C   UNL     1      46.050   2.965   8.060  0.00  0.00    +0.000 A 
ATOM     11  C   UNL     1      46.419   3.730   6.935  0.00  0.00    +0.000 A 
ATOM     12  C   UNL     1      46.997   3.138   5.806  0.00  0.00    +0.000 A 
ATOM     13  C   UNL     1      47.213   1.764   5.778  0.00  0.00    +0.000 A 
ATOM     14  C   UNL     1      46.851   0.999   6.876  0.00  0.00    +0.000 A 
ATOM     15  F   UNL     1      47.051  -0.326   6.855  0.00  0.00    +0.000 F 
ATOM     16  C   UNL     1      46.278   1.580   8.004  0.00  0.00    +0.000 A 
ENDBRANCH   8  10
ENDBRANCH   1   6
BRANCH   1  17
ATOM     17  C   UNL     1      46.123   7.140  12.312  0.00  0.00    +0.000 C 
BRANCH  17  18
ATOM     18  O   UNL     1      47.252   6.262  12.329  0.00  0.00    +0.000 OA
BRANCH  18  19
ATOM     19  C   UNL     1      47.427   5.592  13.503  0.00  0.00    +0.000 A 
ATOM     20  C   UNL     1      48.034   6.061  14.654  0.00  0.00    +0.000 A 
ATOM     21  N   UNL     1      48.153   5.354  15.798  0.00  0.00    +0.000 NA
ATOM     22  C   UNL     1      47.629   4.108  15.761  0.00  0.00    +0.000 A 
ATOM     23  N   UNL     1      47.029   3.536  14.697  0.00  0.00    +0.000 NA
ATOM     24  C   UNL     1      46.947   4.301  13.588  0.00  0.00    +0.000 A 
BRANCH  22  25
ATOM     25  C   UNL     1      47.722   3.304  17.038  0.00  0.00    +0.000 C 
ATOM     26  N   UNL     1      48.968   3.250  17.623  0.00  0.00    +0.000 N 
ATOM     27  O   UNL     1      46.773   2.730  17.553  0.00  0.00    +0.000 OA
ATOM     28  H   UNL     1      49.755   3.732  17.205  0.00  0.00    +0.000 HD
ATOM     29  H   UNL     1      49.077   2.733  18.483  0.00  0.00    +0.000 HD
ENDBRANCH  22  25
ENDBRANCH  18  19
ENDBRANCH  17  18
ENDBRANCH   1  17
TORSDOF 6
ENDMDL
MODEL 3
REMARK VINA RESULT:    -8.116      1.993      4.179
REMARK INTER + INTRA:         -11.845
REMARK INTER:                 -10.935
REMARK INTRA:                  -0.910
REMARK UNBOUND:                -0.883
REMARK  Name = 
REMARK  8 active torsions:
REMARK  status: ('A' for Active; 'I' for Inactive)
REMARK    1  A    between atoms: C_1  and  C_2
REMARK    2  A    between atoms: C_4  and  C_5
REMARK    3  A    between atoms: C_5  and  C_6
REMARK    4  A    between atoms: C_5  and  C_7
REMARK    5  A    between atoms: C_7  and  O_8
REMARK    6  A    between atoms: O_8  and  C_9
REMARK    7  A    between atoms: C_12  and  C_13
REMARK    8  A    between atoms: C_19  and  C_20
REMARK                            x       y       z     vdW  Elec       q    Type
REMARK                         _______ _______ _______ _____ _____    ______ ____
ROOT
ATOM      1  C   UNL     1      44.724   4.213  12.052  0.00  0.00    +0.000 C 
ATOM      2  C   UNL     1      43.557   3.900  12.991  0.00  0.00    +0.000 C 
ENDROOT
BRANCH   1   6
ATOM      3  C   UNL     1      47.737   4.598  16.114  0.00  0.00    +0.000 C 
ATOM      4  C   UNL     1      47.319   5.041  14.744  0.00  0.00    +0.000 A 
ATOM      5  C   UNL     1      46.246   4.430  14.104  0.00  0.00    +0.000 A 
ATOM      6  C   UNL     1      45.864   4.855  12.828  0.00  0.00    +0.000 A 
ATOM      7  C   UNL     1      46.601   5.890  12.244  0.00  0.00    +0.000 A 
ATOM      8  C   UNL     1      47.668   6.464  12.937  0.00  0.00    +0.000 A 
ATOM      9  N   UNL     1      48.028   6.040  14.175  0.00  0.00    +0.000 NA
BRANCH   8  10
ATOM     10  C   UNL     1      48.471   7.569  12.377  0.00  0.00    +0.000 A 
ATOM     11  C   UNL     1      47.918   8.856  12.216  0.00  0.00    +0.000 A 
ATOM     12  C   UNL     1      48.667   9.911  11.681  0.00  0.00    +0.000 A 
ATOM     13  C   UNL     1      49.985   9.698  11.292  0.00  0.00    +0.000 A 
ATOM     14  C   UNL     1      50.540   8.436  11.442  0.00  0.00    +0.000 A 
ATOM     15  F   UNL     1      51.808   8.221  11.065  0.00  0.00    +0.000 F 
ATOM     16  C   UNL     1      49.804   7.382  11.975  0.00  0.00    +0.000 A 
ENDBRANCH   8  10
ENDBRANCH   1   6
BRANCH   1  17
ATOM     17  C   UNL     1      44.272   5.082  10.868  0.00  0.00    +0.000 C 
BRANCH  17  18
ATOM     18  O   UNL     1      43.736   4.292   9.805  0.00  0.00    +0.000 OA
BRANCH  18  19
ATOM     19  C   UNL     1      44.672   3.623   9.072  0.00  0.00    +0.000 A 
ATOM     20  C   UNL     1      44.953   2.269   9.105  0.00  0.00    +0.000 A 
ATOM     21  N   UNL     1      45.877   1.661   8.331  0.00  0.00    +0.000 NA
ATOM     22  C   UNL     1      46.548   2.477   7.488  0.00  0.00    +0.000 A 
ATOM     23  N   UNL     1      46.375   3.810   7.377  0.00  0.00    +0.000 NA
ATOM     24  C   UNL     1      45.435   4.350   8.181  0.00  0.00    +0.000 A 
BRANCH  22  25
ATOM     25  C   UNL     1      47.569   1.818   6.588  0.00  0.00    +0.000 C 
ATOM     26  N   UNL     1      48.722   2.537   6.363  0.00  0.00    +0.000 N 
ATOM     27  O   UNL     1      47.418   0.717   6.079  0.00  0.00    +0.000 OA
ATOM     28  H   UNL     1      48.854   3.446   6.790  0.00  0.00    +0.000 HD
ATOM     29  H   UNL     1      49.437   2.133   5.777  0.00  0.00    +0.000 HD
ENDBRANCH  22  25
ENDBRANCH  18  19
ENDBRANCH  17  18
ENDBRANCH   1  17
TORSDOF 6
ENDMDL
MODEL 4
REMARK VINA RESULT:    -7.946      3.657      5.669
REMARK INTER + INTRA:         -11.616
REMARK INTER:                 -10.740
REMARK INTRA:                  -0.877
REMARK UNBOUND:                -0.883
REMARK  Name = 
REMARK  8 active torsions:
REMARK  status: ('A' for Active; 'I' for Inactive)
REMARK    1  A    between atoms: C_1  and  C_2
REMARK    2  A    between atoms: C_4  and  C_5
REMARK    3  A    between atoms: C_5  and  C_6
REMARK    4  A    between atoms: C_5  and  C_7
REMARK    5  A    between atoms: C_7  and  O_8
REMARK    6  A    between atoms: O_8  and  C_9
REMARK    7  A    between atoms: C_12  and  C_13
REMARK    8  A    between atoms: C_19  and  C_20
REMARK                            x       y       z     vdW  Elec       q    Type
REMARK                         _______ _______ _______ _____ _____    ______ ____
ROOT
ATOM      1  C   UNL     1      44.289   4.648  11.951  0.00  0.00    +0.000 C 
ATOM      2  C   UNL     1      43.232   4.651  13.059  0.00  0.00    +0.000 C 
ENDROOT
BRANCH   1   6
ATOM      3  C   UNL     1      48.671   7.055  12.811  0.00  0.00    +0.000 C 
ATOM      4  C   UNL     1      47.222   7.066  12.424  0.00  0.00    +0.000 A 
ATOM      5  C   UNL     1      46.493   5.882  12.396  0.00  0.00    +0.000 A 
ATOM      6  C   UNL     1      45.142   5.906  12.038  0.00  0.00    +0.000 A 
ATOM      7  C   UNL     1      44.582   7.143  11.710  0.00  0.00    +0.000 A 
ATOM      8  C   UNL     1      45.365   8.298  11.756  0.00  0.00    +0.000 A 
ATOM      9  N   UNL     1      46.676   8.260  12.106  0.00  0.00    +0.000 NA
BRANCH   8  10
ATOM     10  C   UNL     1      44.824   9.634  11.437  0.00  0.00    +0.000 A 
ATOM     11  C   UNL     1      45.533  10.804  11.780  0.00  0.00    +0.000 A 
ATOM     12  C   UNL     1      45.029  12.076  11.488  0.00  0.00    +0.000 A 
ATOM     13  C   UNL     1      43.800  12.205  10.850  0.00  0.00    +0.000 A 
ATOM     14  C   UNL     1      43.090  11.062  10.509  0.00  0.00    +0.000 A 
ATOM     15  F   UNL     1      41.903  11.178   9.899  0.00  0.00    +0.000 F 
ATOM     16  C   UNL     1      43.586   9.794  10.794  0.00  0.00    +0.000 A 
ENDBRANCH   8  10
ENDBRANCH   1   6
BRANCH   1  17
ATOM     17  C   UNL     1      43.647   4.483  10.565  0.00  0.00    +0.000 C 
BRANCH  17  18
ATOM     18  O   UNL     1      43.714   3.129  10.110  0.00  0.00    +0.000 OA
BRANCH  18  19
ATOM     19  C   UNL     1      44.664   2.900   9.159  0.00  0.00    +0.000 A 
ATOM     20  C   UNL     1      45.357   1.724   8.932  0.00  0.00    +0.000 A 
ATOM     21  N   UNL     1      46.270   1.552   7.953  0.00  0.00    +0.000 NA
ATOM     22  C   UNL     1      46.487   2.635   7.172  0.00  0.00    +0.000 A 
ATOM     23  N   UNL     1      45.888   3.835   7.305  0.00  0.00    +0.000 NA
ATOM     24  C   UNL     1      44.987   3.935   8.305  0.00  0.00    +0.000 A 
BRANCH  22  25
ATOM     25  C   UNL     1      47.484   2.461   6.048  0.00  0.00    +0.000 C 
ATOM     26  N   UNL     1      48.810   2.441   6.422  0.00  0.00    +0.000 N 
ATOM     27  O   UNL     1      47.171   2.339   4.873  0.00  0.00    +0.000 OA
ATOM     28  H   UNL     1      49.073   2.533   7.395  0.00  0.00    +0.000 HD
ATOM     29  H   UNL     1      49.511   2.317   5.707  0.00  0.00    +0.000 HD
ENDBRANCH  22  25
ENDBRANCH  18  19
ENDBRANCH  17  18
ENDBRANCH   1  17
TORSDOF 6
ENDMDL
MODEL 5
REMARK VINA RESULT:    -7.737      3.941      8.003
REMARK INTER + INTRA:         -11.333
REMARK INTER:                 -10.422
REMARK INTRA:                  -0.911
REMARK UNBOUND:                -0.883
REMARK  Name = 
REMARK  8 active torsions:
REMARK  status: ('A' for Active; 'I' for Inactive)
REMARK    1  A    between atoms: C_1  and  C_2
REMARK    2  A    between atoms: C_4  and  C_5
REMARK    3  A    between atoms: C_5  and  C_6
REMARK    4  A    between atoms: C_5  and  C_7
REMARK    5  A    between atoms: C_7  and  O_8
REMARK    6  A    between atoms: O_8  and  C_9
REMARK    7  A    between atoms: C_12  and  C_13
REMARK    8  A    between atoms: C_19  and  C_20
REMARK                            x       y       z     vdW  Elec       q    Type
REMARK                         _______ _______ _______ _____ _____    ______ ____
ROOT
ATOM      1  C   UNL     1      46.604   7.783  11.788  0.00  0.00    +0.000 C 
ATOM      2  C   UNL     1      45.916   8.696  12.805  0.00  0.00    +0.000 C 
ENDROOT
BRANCH   1   6
ATOM      3  C   UNL     1      42.067   5.516  11.748  0.00  0.00    +0.000 C 
ATOM      4  C   UNL     1      43.487   5.618  11.277  0.00  0.00    +0.000 A 
ATOM      5  C   UNL     1      44.320   6.616  11.767  0.00  0.00    +0.000 A 
ATOM      6  C   UNL     1      45.644   6.698  11.323  0.00  0.00    +0.000 A 
ATOM      7  C   UNL     1      46.069   5.756  10.382  0.00  0.00    +0.000 A 
ATOM      8  C   UNL     1      45.185   4.776   9.927  0.00  0.00    +0.000 A 
ATOM      9  N   UNL     1      43.902   4.710  10.367  0.00  0.00    +0.000 NA
BRANCH   8  10
ATOM     10  C   UNL     1      45.582   3.746   8.947  0.00  0.00    +0.000 A 
ATOM     11  C   UNL     1      45.493   2.375   9.261  0.00  0.00    +0.000 A 
ATOM     12  C   UNL     1      45.873   1.389   8.343  0.00  0.00    +0.000 A 
ATOM     13  C   UNL     1      46.354   1.756   7.091  0.00  0.00    +0.000 A 
ATOM     14  C   UNL     1      46.449   3.102   6.769  0.00  0.00    +0.000 A 
ATOM     15  F   UNL     1      46.916   3.464   5.567  0.00  0.00    +0.000 F 
ATOM     16  C   UNL     1      46.072   4.089   7.676  0.00  0.00    +0.000 A 
ENDBRANCH   8  10
ENDBRANCH   1   6
BRANCH   1  17
ATOM     17  C   UNL     1      47.905   7.194  12.355  0.00  0.00    +0.000 C 
BRANCH  17  18
ATOM     18  O   UNL     1      48.030   7.441  13.758  0.00  0.00    +0.000 OA
BRANCH  18  19
ATOM     19  C   UNL     1      47.960   6.322  14.535  0.00  0.00    +0.000 A 
ATOM     20  C   UNL     1      47.196   5.191  14.311  0.00  0.00    +0.000 A 
ATOM     21  N   UNL     1      47.191   4.102  15.108  0.00  0.00    +0.000 NA
ATOM     22  C   UNL     1      48.004   4.174  16.186  0.00  0.00    +0.000 A 
ATOM     23  N   UNL     1      48.782   5.225  16.517  0.00  0.00    +0.000 NA
ATOM     24  C   UNL     1      48.735   6.279  15.676  0.00  0.00    +0.000 A 
BRANCH  22  25
ATOM     25  C   UNL     1      48.042   2.955  17.080  0.00  0.00    +0.000 C 
ATOM     26  N   UNL     1      46.858   2.638  17.709  0.00  0.00    +0.000 N 
ATOM     27  O   UNL     1      49.037   2.267  17.253  0.00  0.00    +0.000 OA
ATOM     28  H   UNL     1      46.029   3.200  17.562  0.00  0.00    +0.000 HD
ATOM     29  H   UNL     1      46.832   1.826  18.309  0.00  0.00    +0.000 HD
ENDBRANCH  22  25
ENDBRANCH  18  19
ENDBRANCH  17  18
ENDBRANCH   1  17
TORSDOF 6
ENDMDL
MODEL 6
REMARK VINA RESULT:    -7.218      4.086      7.849
REMARK INTER + INTRA:         -10.632
REMARK INTER:                  -9.538
REMARK INTRA:                  -1.094
REMARK UNBOUND:                -0.883
REMARK  Name = 
REMARK  8 active torsions:
REMARK  status: ('A' for Active; 'I' for Inactive)
REMARK    1  A    between atoms: C_1  and  C_2
REMARK    2  A    between atoms: C_4  and  C_5
REMARK    3  A    between atoms: C_5  and  C_6
REMARK    4  A    between atoms: C_5  and  C_7
REMARK    5  A    between atoms: C_7  and  O_8
REMARK    6  A    between atoms: O_8  and  C_9
REMARK    7  A    between atoms: C_12  and  C_13
REMARK    8  A    between atoms: C_19  and  C_20
REMARK                            x       y       z     vdW  Elec       q    Type
REMARK                         _______ _______ _______ _____ _____    ______ ____
ROOT
ATOM      1  C   UNL     1      49.131   8.423  12.380  0.00  0.00    +0.000 C 
ATOM      2  C   UNL     1      49.400   9.892  12.716  0.00  0.00    +0.000 C 
ENDROOT
BRANCH   1   6
ATOM      3  C   UNL     1      44.356  10.086  11.968  0.00  0.00    +0.000 C 
ATOM      4  C   UNL     1      45.375   8.988  11.887  0.00  0.00    +0.000 A 
ATOM      5  C   UNL     1      46.709   9.245  12.182  0.00  0.00    +0.000 A 
ATOM      6  C   UNL     1      47.649   8.212  12.106  0.00  0.00    +0.000 A 
ATOM      7  C   UNL     1      47.191   6.949  11.721  0.00  0.00    +0.000 A 
ATOM      8  C   UNL     1      45.838   6.753  11.437  0.00  0.00    +0.000 A 
ATOM      9  N   UNL     1      44.938   7.766  11.514  0.00  0.00    +0.000 NA
BRANCH   8  10
ATOM     10  C   UNL     1      45.295   5.439  11.042  0.00  0.00    +0.000 A 
ATOM     11  C   UNL     1      45.351   5.005   9.701  0.00  0.00    +0.000 A 
ATOM     12  C   UNL     1      44.834   3.764   9.313  0.00  0.00    +0.000 A 
ATOM     13  C   UNL     1      44.245   2.932  10.258  0.00  0.00    +0.000 A 
ATOM     14  C   UNL     1      44.180   3.347  11.580  0.00  0.00    +0.000 A 
ATOM     15  F   UNL     1      43.609   2.554  12.496  0.00  0.00    +0.000 F 
ATOM     16  C   UNL     1      44.693   4.579  11.975  0.00  0.00    +0.000 A 
ENDBRANCH   8  10
ENDBRANCH   1   6
BRANCH   1  17
ATOM     17  C   UNL     1      49.649   7.493  13.488  0.00  0.00    +0.000 C 
BRANCH  17  18
ATOM     18  O   UNL     1      49.130   7.856  14.769  0.00  0.00    +0.000 OA
BRANCH  18  19
ATOM     19  C   UNL     1      48.801   6.798  15.565  0.00  0.00    +0.000 A 
ATOM     20  C   UNL     1      49.102   6.630  16.905  0.00  0.00    +0.000 A 
ATOM     21  N   UNL     1      48.723   5.568  17.646  0.00  0.00    +0.000 NA
ATOM     22  C   UNL     1      48.004   4.632  16.985  0.00  0.00    +0.000 A 
ATOM     23  N   UNL     1      47.663   4.676  15.681  0.00  0.00    +0.000 NA
ATOM     24  C   UNL     1      48.076   5.767  15.002  0.00  0.00    +0.000 A 
BRANCH  22  25
ATOM     25  C   UNL     1      47.540   3.445  17.799  0.00  0.00    +0.000 C 
ATOM     26  N   UNL     1      48.298   3.148  18.910  0.00  0.00    +0.000 N 
ATOM     27  O   UNL     1      46.558   2.772  17.523  0.00  0.00    +0.000 OA
ATOM     28  H   UNL     1      49.108   3.708  19.147  0.00  0.00    +0.000 HD
ATOM     29  H   UNL     1      48.021   2.370  19.490  0.00  0.00    +0.000 HD
ENDBRANCH  22  25
ENDBRANCH  18  19
ENDBRANCH  17  18
ENDBRANCH   1  17
TORSDOF 6
ENDMDL
MODEL 7
REMARK VINA RESULT:    -6.795      2.819      4.680
REMARK INTER + INTRA:         -10.061
REMARK INTER:                  -9.107
REMARK INTRA:                  -0.954
REMARK UNBOUND:                -0.883
REMARK  Name = 
REMARK  8 active torsions:
REMARK  status: ('A' for Active; 'I' for Inactive)
REMARK    1  A    between atoms: C_1  and  C_2
REMARK    2  A    between atoms: C_4  and  C_5
REMARK    3  A    between atoms: C_5  and  C_6
REMARK    4  A    between atoms: C_5  and  C_7
REMARK    5  A    between atoms: C_7  and  O_8
REMARK    6  A    between atoms: O_8  and  C_9
REMARK    7  A    between atoms: C_12  and  C_13
REMARK    8  A    between atoms: C_19  and  C_20
REMARK                            x       y       z     vdW  Elec       q    Type
REMARK                         _______ _______ _______ _____ _____    ______ ____
ROOT
ATOM      1  C   UNL     1      48.444   8.431  12.783  0.00  0.00    +0.000 C 
ATOM      2  C   UNL     1      49.198   7.302  12.075  0.00  0.00    +0.000 C 
ENDROOT
BRANCH   1   6
ATOM      3  C   UNL     1      48.242  10.163  17.546  0.00  0.00    +0.000 C 
ATOM      4  C   UNL     1      48.393   9.040  16.563  0.00  0.00    +0.000 A 
ATOM      5  C   UNL     1      48.359   9.293  15.197  0.00  0.00    +0.000 A 
ATOM      6  C   UNL     1      48.505   8.238  14.291  0.00  0.00    +0.000 A 
ATOM      7  C   UNL     1      48.675   6.954  14.816  0.00  0.00    +0.000 A 
ATOM      8  C   UNL     1      48.701   6.763  16.199  0.00  0.00    +0.000 A 
ATOM      9  N   UNL     1      48.557   7.798  17.066  0.00  0.00    +0.000 NA
BRANCH   8  10
ATOM     10  C   UNL     1      48.893   5.434  16.811  0.00  0.00    +0.000 A 
ATOM     11  C   UNL     1      50.168   5.011  17.240  0.00  0.00    +0.000 A 
ATOM     12  C   UNL     1      50.364   3.750  17.816  0.00  0.00    +0.000 A 
ATOM     13  C   UNL     1      49.287   2.884  17.970  0.00  0.00    +0.000 A 
ATOM     14  C   UNL     1      48.027   3.286  17.550  0.00  0.00    +0.000 A 
ATOM     15  F   UNL     1      46.986   2.455  17.690  0.00  0.00    +0.000 F 
ATOM     16  C   UNL     1      47.824   4.538  16.978  0.00  0.00    +0.000 A 
ENDBRANCH   8  10
ENDBRANCH   1   6
BRANCH   1  17
ATOM     17  C   UNL     1      46.998   8.542  12.275  0.00  0.00    +0.000 C 
BRANCH  17  18
ATOM     18  O   UNL     1      46.081   7.866  13.140  0.00  0.00    +0.000 OA
BRANCH  18  19
ATOM     19  C   UNL     1      45.656   6.657  12.676  0.00  0.00    +0.000 A 
ATOM     20  C   UNL     1      45.780   5.428  13.300  0.00  0.00    +0.000 A 
ATOM     21  N   UNL     1      45.312   4.265  12.799  0.00  0.00    +0.000 NA
ATOM     22  C   UNL     1      44.692   4.364  11.601  0.00  0.00    +0.000 A 
ATOM     23  N   UNL     1      44.524   5.498  10.891  0.00  0.00    +0.000 NA
ATOM     24  C   UNL     1      45.018   6.621  11.453  0.00  0.00    +0.000 A 
BRANCH  22  25
ATOM     25  C   UNL     1      44.131   3.081  11.030  0.00  0.00    +0.000 C 
ATOM     26  N   UNL     1      44.934   2.430  10.118  0.00  0.00    +0.000 N 
ATOM     27  O   UNL     1      43.042   2.617  11.336  0.00  0.00    +0.000 OA
ATOM     28  H   UNL     1      45.839   2.807   9.868  0.00  0.00    +0.000 HD
ATOM     29  H   UNL     1      44.605   1.564   9.717  0.00  0.00    +0.000 HD
ENDBRANCH  22  25
ENDBRANCH  18  19
ENDBRANCH  17  18
ENDBRANCH   1  17
TORSDOF 6
ENDMDL
MODEL 8
REMARK VINA RESULT:    -6.276      4.697      8.935
REMARK INTER + INTRA:          -9.361
REMARK INTER:                  -8.632
REMARK INTRA:                  -0.728
REMARK UNBOUND:                -0.883
REMARK  Name = 
REMARK  8 active torsions:
REMARK  status: ('A' for Active; 'I' for Inactive)
REMARK    1  A    between atoms: C_1  and  C_2
REMARK    2  A    between atoms: C_4  and  C_5
REMARK    3  A    between atoms: C_5  and  C_6
REMARK    4  A    between atoms: C_5  and  C_7
REMARK    5  A    between atoms: C_7  and  O_8
REMARK    6  A    between atoms: O_8  and  C_9
REMARK    7  A    between atoms: C_12  and  C_13
REMARK    8  A    between atoms: C_19  and  C_20
REMARK                            x       y       z     vdW  Elec       q    Type
REMARK                         _______ _______ _______ _____ _____    ______ ____
ROOT
ATOM      1  C   UNL     1      48.654   7.576  13.655  0.00  0.00    +0.000 C 
ATOM      2  C   UNL     1      49.827   8.016  12.776  0.00  0.00    +0.000 C 
ENDROOT
BRANCH   1   6
ATOM      3  C   UNL     1      44.462   9.805  11.868  0.00  0.00    +0.000 C 
ATOM      4  C   UNL     1      45.377   8.620  11.971  0.00  0.00    +0.000 A 
ATOM      5  C   UNL     1      46.523   8.683  12.755  0.00  0.00    +0.000 A 
ATOM      6  C   UNL     1      47.365   7.571  12.846  0.00  0.00    +0.000 A 
ATOM      7  C   UNL     1      47.009   6.430  12.122  0.00  0.00    +0.000 A 
ATOM      8  C   UNL     1      45.844   6.427  11.352  0.00  0.00    +0.000 A 
ATOM      9  N   UNL     1      45.036   7.516  11.273  0.00  0.00    +0.000 NA
BRANCH   8  10
ATOM     10  C   UNL     1      45.409   5.247  10.580  0.00  0.00    +0.000 A 
ATOM     11  C   UNL     1      44.685   4.205  11.196  0.00  0.00    +0.000 A 
ATOM     12  C   UNL     1      44.272   3.078  10.476  0.00  0.00    +0.000 A 
ATOM     13  C   UNL     1      44.579   2.967   9.124  0.00  0.00    +0.000 A 
ATOM     14  C   UNL     1      45.293   3.984   8.506  0.00  0.00    +0.000 A 
ATOM     15  F   UNL     1      45.597   3.883   7.205  0.00  0.00    +0.000 F 
ATOM     16  C   UNL     1      45.706   5.109   9.214  0.00  0.00    +0.000 A 
ENDBRANCH   8  10
ENDBRANCH   1   6
BRANCH   1  17
ATOM     17  C   UNL     1      48.538   8.449  14.914  0.00  0.00    +0.000 C 
BRANCH  17  18
ATOM     18  O   UNL     1      49.625   8.225  15.815  0.00  0.00    +0.000 OA
BRANCH  18  19
ATOM     19  C   UNL     1      49.387   7.270  16.759  0.00  0.00    +0.000 A 
ATOM     20  C   UNL     1      49.893   5.982  16.797  0.00  0.00    +0.000 A 
ATOM     21  N   UNL     1      49.639   5.090  17.776  0.00  0.00    +0.000 NA
ATOM     22  C   UNL     1      48.827   5.533  18.762  0.00  0.00    +0.000 A 
ATOM     23  N   UNL     1      48.262   6.756  18.828  0.00  0.00    +0.000 NA
ATOM     24  C   UNL     1      48.559   7.596  17.814  0.00  0.00    +0.000 A 
BRANCH  22  25
ATOM     25  C   UNL     1      48.550   4.564  19.889  0.00  0.00    +0.000 C 
ATOM     26  N   UNL     1      48.539   3.230  19.543  0.00  0.00    +0.000 N 
ATOM     27  O   UNL     1      48.348   4.903  21.046  0.00  0.00    +0.000 OA
ATOM     28  H   UNL     1      48.714   2.945  18.587  0.00  0.00    +0.000 HD
ATOM     29  H   UNL     1      48.368   2.545  20.264  0.00  0.00    +0.000 HD
ENDBRANCH  22  25
ENDBRANCH  18  19
ENDBRANCH  17  18
ENDBRANCH   1  17
TORSDOF 6
ENDMDL
MODEL 9
REMARK VINA RESULT:    -6.190      4.371      7.661
REMARK INTER + INTRA:          -9.244
REMARK INTER:                  -8.252
REMARK INTRA:                  -0.992
REMARK UNBOUND:                -0.883
REMARK  Name = 
REMARK  8 active torsions:
REMARK  status: ('A' for Active; 'I' for Inactive)
REMARK    1  A    between atoms: C_1  and  C_2
REMARK    2  A    between atoms: C_4  and  C_5
REMARK    3  A    between atoms: C_5  and  C_6
REMARK    4  A    between atoms: C_5  and  C_7
REMARK    5  A    between atoms: C_7  and  O_8
REMARK    6  A    between atoms: O_8  and  C_9
REMARK    7  A    between atoms: C_12  and  C_13
REMARK    8  A    between atoms: C_19  and  C_20
REMARK                            x       y       z     vdW  Elec       q    Type
REMARK                         _______ _______ _______ _____ _____    ______ ____
ROOT
ATOM      1  C   UNL     1      48.918   8.448  13.063  0.00  0.00    +0.000 C 
ATOM      2  C   UNL     1      50.411   8.168  12.876  0.00  0.00    +0.000 C 
ENDROOT
BRANCH   1   6
ATOM      3  C   UNL     1      47.810   4.697  16.292  0.00  0.00    +0.000 C 
ATOM      4  C   UNL     1      47.635   5.386  14.972  0.00  0.00    +0.000 A 
ATOM      5  C   UNL     1      48.358   6.536  14.678  0.00  0.00    +0.000 A 
ATOM      6  C   UNL     1      48.189   7.167  13.442  0.00  0.00    +0.000 A 
ATOM      7  C   UNL     1      47.276   6.602  12.547  0.00  0.00    +0.000 A 
ATOM      8  C   UNL     1      46.579   5.445  12.900  0.00  0.00    +0.000 A 
ATOM      9  N   UNL     1      46.753   4.844  14.104  0.00  0.00    +0.000 NA
BRANCH   8  10
ATOM     10  C   UNL     1      45.615   4.794  11.990  0.00  0.00    +0.000 A 
ATOM     11  C   UNL     1      45.448   5.249  10.666  0.00  0.00    +0.000 A 
ATOM     12  C   UNL     1      44.533   4.644   9.796  0.00  0.00    +0.000 A 
ATOM     13  C   UNL     1      43.762   3.574  10.236  0.00  0.00    +0.000 A 
ATOM     14  C   UNL     1      43.914   3.118  11.537  0.00  0.00    +0.000 A 
ATOM     15  F   UNL     1      43.171   2.091  11.970  0.00  0.00    +0.000 F 
ATOM     16  C   UNL     1      44.823   3.712  12.408  0.00  0.00    +0.000 A 
ENDBRANCH   8  10
ENDBRANCH   1   6
BRANCH   1  17
ATOM     17  C   UNL     1      48.312   9.107  11.814  0.00  0.00    +0.000 C 
BRANCH  17  18
ATOM     18  O   UNL     1      47.735  10.379  12.115  0.00  0.00    +0.000 OA
BRANCH  18  19
ATOM     19  C   UNL     1      46.389  10.452  11.906  0.00  0.00    +0.000 A 
ATOM     20  C   UNL     1      45.504   9.398  11.761  0.00  0.00    +0.000 A 
ATOM     21  N   UNL     1      44.174   9.536  11.583  0.00  0.00    +0.000 NA
ATOM     22  C   UNL     1      43.728  10.812  11.546  0.00  0.00    +0.000 A 
ATOM     23  N   UNL     1      44.491  11.917  11.659  0.00  0.00    +0.000 NA
ATOM     24  C   UNL     1      45.812  11.704  11.835  0.00  0.00    +0.000 A 
BRANCH  22  25
ATOM     25  C   UNL     1      42.236  10.996  11.377  0.00  0.00    +0.000 C 
ATOM     26  N   UNL     1      41.539  11.315  12.522  0.00  0.00    +0.000 N 
ATOM     27  O   UNL     1      41.652  10.882  10.310  0.00  0.00    +0.000 OA
ATOM     28  H   UNL     1      42.020  11.418  13.407  0.00  0.00    +0.000 HD
ATOM     29  H   UNL     1      40.541  11.457  12.456  0.00  0.00    +0.000 HD
ENDBRANCH  22  25
ENDBRANCH  18  19
ENDBRANCH  17  18
ENDBRANCH   1  17
TORSDOF 6
ENDMDL
