MODEL 1
REMARK VINA RESULT:    -6.855      0.000      0.000
REMARK INTER + INTRA:          -9.205
REMARK INTER:                  -8.458
REMARK INTRA:                  -0.746
REMARK UNBOUND:                -0.746
REMARK  Name = 
REMARK  4 active torsions:
REMARK  status: ('A' for Active; 'I' for Inactive)
REMARK    1  A    between atoms: C_4  and  O_5
REMARK    2  A    between atoms: O_5  and  C_6
REMARK    3  A    between atoms: C_6  and  C_7
REMARK    4  A    between atoms: C_11  and  C_12
REMARK                            x       y       z     vdW  Elec       q    Type
REMARK                         _______ _______ _______ _____ _____    ______ ____
ROOT
ATOM      1  C   UNL     1      45.050   4.920  12.112  0.00  0.00    +0.000 A 
ATOM      2  C   UNL     1      45.327   3.761  12.850  0.00  0.00    +0.000 A 
ATOM      3  C   UNL     1      46.503   3.642  13.590  0.00  0.00    +0.000 A 
ATOM      4  C   UNL     1      47.438   4.680  13.593  0.00  0.00    +0.000 A 
ATOM      5  C   UNL     1      47.212   5.864  12.876  0.00  0.00    +0.000 A 
ATOM      6  C   UNL     1      45.992   5.969  12.178  0.00  0.00    +0.000 A 
ENDROOT
BRANCH   5   7
ATOM      7  C   UNL     1      48.232   6.929  12.787  0.00  0.00    +0.000 A 
ATOM      8  C   UNL     1      48.426   7.699  11.632  0.00  0.00    +0.000 A 
ATOM      9  C   UNL     1      49.444   8.653  11.572  0.00  0.00    +0.000 A 
ATOM     10  C   UNL     1      50.246   8.829  12.684  0.00  0.00    +0.000 A 
ATOM     11  N   UNL     1      50.099   8.128  13.826  0.00  0.00    +0.000 NA
ATOM     12  C   UNL     1      49.109   7.201  13.844  0.00  0.00    +0.000 A 
ENDBRANCH   5   7
BRANCH   1  13
ATOM     13  C   UNL     1      43.823   5.006  11.215  0.00  0.00    +0.000 C 
ATOM     14  C   UNL     1      42.477   5.368  11.849  0.00  0.00    +0.000 C 
ATOM     15  C   UNL     1      43.195   6.372  11.014  0.00  0.00    +0.000 C 
BRANCH  13  16
ATOM     16  O   UNL     1      43.641   3.938  10.257  0.00  0.00    +0.000 OA
BRANCH  16  20
ATOM     17  C   UNL     1      46.407   2.669   7.567  0.00  0.00    +0.000 A 
ATOM     18  C   UNL     1      45.818   1.838   8.486  0.00  0.00    +0.000 A 
ATOM     19  N   UNL     1      44.956   2.263   9.425  0.00  0.00    +0.000 NA
ATOM     20  C   UNL     1      44.706   3.583   9.452  0.00  0.00    +0.000 A 
ATOM     21  N   UNL     1      45.242   4.490   8.618  0.00  0.00    +0.000 NA
ATOM     22  C   UNL     1      46.082   4.004   7.685  0.00  0.00    +0.000 A 
ENDBRANCH  16  20
ENDBRANCH  13  16
ENDBRANCH   1  13
TORSDOF 4
ENDMDL
MODEL 2
REMARK VINA RESULT:    -6.591      1.990      3.412
REMARK INTER + INTRA:          -8.879
REMARK INTER:                  -8.712
REMARK INTRA:                  -0.166
REMARK UNBOUND:                -0.746
REMARK  Name = 
REMARK  4 active torsions:
REMARK  status: ('A' for Active; 'I' for Inactive)
REMARK    1  A    between atoms: C_4  and  O_5
REMARK    2  A    between atoms: O_5  and  C_6
REMARK    3  A    between atoms: C_6  and  C_7
REMARK    4  A    between atoms: C_11  and  C_12
REMARK                            x       y       z     vdW  Elec       q    Type
REMARK                         _______ _______ _______ _____ _____    ______ ____
ROOT
ATOM      1  C   UNL     1      45.446   5.265  12.280  0.00  0.00    +0.000 A 
ATOM      2  C   UNL     1      46.191   6.248  11.615  0.00  0.00    +0.000 A 
ATOM      3  C   UNL     1      47.383   6.735  12.152  0.00  0.00    +0.000 A 
ATOM      4  C   UNL     1      47.847   6.256  13.379  0.00  0.00    +0.000 A 
ATOM      5  C   UNL     1      47.145   5.269  14.086  0.00  0.00    +0.000 A 
ATOM      6  C   UNL     1      45.970   4.767  13.492  0.00  0.00    +0.000 A 
ENDROOT
BRANCH   5   7
ATOM      7  C   UNL     1      47.568   4.823  15.430  0.00  0.00    +0.000 A 
ATOM      8  C   UNL     1      47.182   3.591  15.976  0.00  0.00    +0.000 A 
ATOM      9  C   UNL     1      47.553   3.238  17.274  0.00  0.00    +0.000 A 
ATOM     10  C   UNL     1      48.322   4.126  18.003  0.00  0.00    +0.000 A 
ATOM     11  N   UNL     1      48.734   5.318  17.527  0.00  0.00    +0.000 NA
ATOM     12  C   UNL     1      48.344   5.634  16.267  0.00  0.00    +0.000 A 
ENDBRANCH   5   7
BRANCH   1  13
ATOM     13  C   UNL     1      44.090   4.816  11.753  0.00  0.00    +0.000 C 
ATOM     14  C   UNL     1      42.845   5.108  12.595  0.00  0.00    +0.000 C 
ATOM     15  C   UNL     1      43.100   5.895  11.355  0.00  0.00    +0.000 C 
BRANCH  13  16
ATOM     16  O   UNL     1      44.012   3.477  11.213  0.00  0.00    +0.000 OA
BRANCH  16  20
ATOM     17  C   UNL     1      45.988   3.012   7.694  0.00  0.00    +0.000 A 
ATOM     18  C   UNL     1      45.443   4.206   8.097  0.00  0.00    +0.000 A 
ATOM     19  N   UNL     1      44.727   4.351   9.225  0.00  0.00    +0.000 NA
ATOM     20  C   UNL     1      44.531   3.240   9.955  0.00  0.00    +0.000 A 
ATOM     21  N   UNL     1      44.997   2.018   9.646  0.00  0.00    +0.000 NA
ATOM     22  C   UNL     1      45.724   1.936   8.516  0.00  0.00    +0.000 A 
ENDBRANCH  16  20
ENDBRANCH  13  16
ENDBRANCH   1  13
TORSDOF 4
ENDMDL
MODEL 3
REMARK VINA RESULT:    -6.491      2.702      6.863
REMARK INTER + INTRA:          -8.756
REMARK INTER:                  -8.032
REMARK INTRA:                  -0.724
REMARK UNBOUND:                -0.746
REMARK  Name = 
REMARK  4 active torsions:
REMARK  status: ('A' for Active; 'I' for Inactive)
REMARK    1  A    between atoms: C_4  and  O_5
REMARK    2  A    between atoms: O_5  and  C_6
REMARK    3  A    between atoms: C_6  and  C_7
REMARK    4  A    between atoms: C_11  and  C_12
REMARK                            x       y       z     vdW  Elec       q    Type
REMARK                         _______ _______ _______ _____ _____    ______ ____
ROOT
ATOM      1  C   UNL     1      47.081   7.268  12.822  0.00  0.00    +0.000 A 
ATOM      2  C   UNL     1      46.211   8.367  12.854  0.00  0.00    +0.000 A 
ATOM      3  C   UNL     1      45.002   8.348  12.159  0.00  0.00    +0.000 A 
ATOM      4  C   UNL     1      44.644   7.230  11.403  0.00  0.00    +0.000 A 
ATOM      5  C   UNL     1      45.474   6.101  11.338  0.00  0.00    +0.000 A 
ATOM      6  C   UNL     1      46.666   6.136  12.089  0.00  0.00    +0.000 A 
ENDROOT
BRANCH   5   7
ATOM      7  C   UNL     1      45.160   4.951  10.465  0.00  0.00    +0.000 A 
ATOM      8  C   UNL     1      45.582   4.875   9.130  0.00  0.00    +0.000 A 
ATOM      9  C   UNL     1      45.209   3.799   8.323  0.00  0.00    +0.000 A 
ATOM     10  C   UNL     1      44.426   2.803   8.876  0.00  0.00    +0.000 A 
ATOM     11  N   UNL     1      44.001   2.815  10.155  0.00  0.00    +0.000 NA
ATOM     12  C   UNL     1      44.371   3.883  10.906  0.00  0.00    +0.000 A 
ENDBRANCH   5   7
BRANCH   1  13
ATOM     13  C   UNL     1      48.450   7.331  13.485  0.00  0.00    +0.000 C 
ATOM     14  C   UNL     1      49.605   7.980  12.717  0.00  0.00    +0.000 C 
ATOM     15  C   UNL     1      48.984   8.700  13.864  0.00  0.00    +0.000 C 
BRANCH  13  16
ATOM     16  O   UNL     1      48.913   6.128  14.140  0.00  0.00    +0.000 OA
BRANCH  16  20
ATOM     17  C   UNL     1      47.650   4.717  17.733  0.00  0.00    +0.000 A 
ATOM     18  C   UNL     1      47.253   4.180  16.535  0.00  0.00    +0.000 A 
ATOM     19  N   UNL     1      47.609   4.685  15.342  0.00  0.00    +0.000 NA
ATOM     20  C   UNL     1      48.370   5.792  15.365  0.00  0.00    +0.000 A 
ATOM     21  N   UNL     1      48.798   6.414  16.476  0.00  0.00    +0.000 NA
ATOM     22  C   UNL     1      48.427   5.853  17.642  0.00  0.00    +0.000 A 
ENDBRANCH  16  20
ENDBRANCH  13  16
ENDBRANCH   1  13
TORSDOF 4
ENDMDL
MODEL 4
REMARK VINA RESULT:    -6.306      3.048      6.459
REMARK INTER + INTRA:          -8.527
REMARK INTER:                  -7.872
REMARK INTRA:                  -0.656
REMARK UNBOUND:                -0.746
REMARK  Name = 
REMARK  4 active torsions:
REMARK  status: ('A' for Active; 'I' for Inactive)
REMARK    1  A    between atoms: C_4  and  O_5
REMARK    2  A    between atoms: O_5  and  C_6
REMARK    3  A    between atoms: C_6  and  C_7
REMARK    4  A    between atoms: C_11  and  C_12
REMARK                            x       y       z     vdW  Elec       q    Type
REMARK                         _______ _______ _______ _____ _____    ______ ____
ROOT
ATOM      1  C   UNL     1      45.100   6.460  11.847  0.00  0.00    +0.000 A 
ATOM      2  C   UNL     1      43.785   6.215  12.267  0.00  0.00    +0.000 A 
ATOM      3  C   UNL     1      43.030   5.187  11.704  0.00  0.00    +0.000 A 
ATOM      4  C   UNL     1      43.572   4.389  10.694  0.00  0.00    +0.000 A 
ATOM      5  C   UNL     1      44.884   4.587  10.238  0.00  0.00    +0.000 A 
ATOM      6  C   UNL     1      45.634   5.604  10.861  0.00  0.00    +0.000 A 
ENDROOT
BRANCH   5   7
ATOM      7  C   UNL     1      45.439   3.819   9.103  0.00  0.00    +0.000 A 
ATOM      8  C   UNL     1      45.497   2.418   9.091  0.00  0.00    +0.000 A 
ATOM      9  C   UNL     1      46.086   1.737   8.026  0.00  0.00    +0.000 A 
ATOM     10  C   UNL     1      46.599   2.476   6.976  0.00  0.00    +0.000 A 
ATOM     11  N   UNL     1      46.561   3.822   6.926  0.00  0.00    +0.000 NA
ATOM     12  C   UNL     1      45.992   4.452   7.985  0.00  0.00    +0.000 A 
ENDBRANCH   5   7
BRANCH   1  13
ATOM     13  C   UNL     1      45.884   7.652  12.378  0.00  0.00    +0.000 C 
ATOM     14  C   UNL     1      47.020   7.395  13.373  0.00  0.00    +0.000 C 
ATOM     15  C   UNL     1      47.340   7.773  11.968  0.00  0.00    +0.000 C 
BRANCH  13  16
ATOM     16  O   UNL     1      45.116   8.803  12.799  0.00  0.00    +0.000 OA
BRANCH  16  20
ATOM     17  C   UNL     1      44.689  11.498   9.790  0.00  0.00    +0.000 A 
ATOM     18  C   UNL     1      45.615  11.634  10.794  0.00  0.00    +0.000 A 
ATOM     19  N   UNL     1      45.715  10.785  11.830  0.00  0.00    +0.000 NA
ATOM     20  C   UNL     1      44.825   9.780  11.867  0.00  0.00    +0.000 A 
ATOM     21  N   UNL     1      43.863   9.563  10.954  0.00  0.00    +0.000 NA
ATOM     22  C   UNL     1      43.823  10.432   9.927  0.00  0.00    +0.000 A 
ENDBRANCH  16  20
ENDBRANCH  13  16
ENDBRANCH   1  13
TORSDOF 4
ENDMDL
MODEL 5
REMARK VINA RESULT:    -6.193      1.569      2.601
REMARK INTER + INTRA:          -8.387
REMARK INTER:                  -7.828
REMARK INTRA:                  -0.559
REMARK UNBOUND:                -0.746
REMARK  Name = 
REMARK  4 active torsions:
REMARK  status: ('A' for Active; 'I' for Inactive)
REMARK    1  A    between atoms: C_4  and  O_5
REMARK    2  A    between atoms: O_5  and  C_6
REMARK    3  A    between atoms: C_6  and  C_7
REMARK    4  A    between atoms: C_11  and  C_12
REMARK                            x       y       z     vdW  Elec       q    Type
REMARK                         _______ _______ _______ _____ _____    ______ ____
ROOT
ATOM      1  C   UNL     1      45.014   6.705  12.063  0.00  0.00    +0.000 A 
ATOM      2  C   UNL     1      44.593   7.975  11.645  0.00  0.00    +0.000 A 
ATOM      3  C   UNL     1      45.362   9.109  11.902  0.00  0.00    +0.000 A 
ATOM      4  C   UNL     1      46.568   8.997  12.598  0.00  0.00    +0.000 A 
ATOM      5  C   UNL     1      47.040   7.751  13.036  0.00  0.00    +0.000 A 
ATOM      6  C   UNL     1      46.261   6.621  12.719  0.00  0.00    +0.000 A 
ENDROOT
BRANCH   5   7
ATOM      7  C   UNL     1      48.261   7.625  13.859  0.00  0.00    +0.000 A 
ATOM      8  C   UNL     1      49.354   8.495  13.733  0.00  0.00    +0.000 A 
ATOM      9  C   UNL     1      50.512   8.301  14.487  0.00  0.00    +0.000 A 
ATOM     10  C   UNL     1      50.550   7.240  15.372  0.00  0.00    +0.000 A 
ATOM     11  N   UNL     1      49.527   6.379  15.546  0.00  0.00    +0.000 NA
ATOM     12  C   UNL     1      48.423   6.590  14.787  0.00  0.00    +0.000 A 
ENDBRANCH   5   7
BRANCH   1  13
ATOM     13  C   UNL     1      44.123   5.483  11.885  0.00  0.00    +0.000 C 
ATOM     14  C   UNL     1      42.997   5.246  12.895  0.00  0.00    +0.000 C 
ATOM     15  C   UNL     1      42.669   5.723  11.521  0.00  0.00    +0.000 C 
BRANCH  13  16
ATOM     16  O   UNL     1      44.784   4.232  11.587  0.00  0.00    +0.000 OA
BRANCH  16  20
ATOM     17  C   UNL     1      45.625   3.063   7.789  0.00  0.00    +0.000 A 
ATOM     18  C   UNL     1      45.779   4.354   8.228  0.00  0.00    +0.000 A 
ATOM     19  N   UNL     1      45.436   4.764   9.461  0.00  0.00    +0.000 NA
ATOM     20  C   UNL     1      44.889   3.838  10.267  0.00  0.00    +0.000 A 
ATOM     21  N   UNL     1      44.671   2.554   9.936  0.00  0.00    +0.000 NA
ATOM     22  C   UNL     1      45.053   2.195   8.696  0.00  0.00    +0.000 A 
ENDBRANCH  16  20
ENDBRANCH  13  16
ENDBRANCH   1  13
TORSDOF 4
ENDMDL
MODEL 6
REMARK VINA RESULT:    -6.086      2.519      7.060
REMARK INTER + INTRA:          -8.255
REMARK INTER:                  -7.495
REMARK INTRA:                  -0.761
REMARK UNBOUND:                -0.746
REMARK  Name = 
REMARK  4 active torsions:
REMARK  status: ('A' for Active; 'I' for Inactive)
REMARK    1  A    between atoms: C_4  and  O_5
REMARK    2  A    between atoms: O_5  and  C_6
REMARK    3  A    between atoms: C_6  and  C_7
REMARK    4  A    between atoms: C_11  and  C_12
REMARK                            x       y       z     vdW  Elec       q    Type
REMARK                         _______ _______ _______ _____ _____    ______ ____
ROOT
ATOM      1  C   UNL     1      47.393   7.650  12.400  0.00  0.00    +0.000 A 
ATOM      2  C   UNL     1      46.450   8.666  12.605  0.00  0.00    +0.000 A 
ATOM      3  C   UNL     1      45.133   8.525  12.167  0.00  0.00    +0.000 A 
ATOM      4  C   UNL     1      44.736   7.365  11.498  0.00  0.00    +0.000 A 
ATOM      5  C   UNL     1      45.637   6.314  11.269  0.00  0.00    +0.000 A 
ATOM      6  C   UNL     1      46.946   6.471  11.767  0.00  0.00    +0.000 A 
ENDROOT
BRANCH   5   7
ATOM      7  C   UNL     1      45.262   5.124  10.477  0.00  0.00    +0.000 A 
ATOM      8  C   UNL     1      44.580   4.030  11.029  0.00  0.00    +0.000 A 
ATOM      9  C   UNL     1      44.301   2.901  10.259  0.00  0.00    +0.000 A 
ATOM     10  C   UNL     1      44.701   2.892   8.935  0.00  0.00    +0.000 A 
ATOM     11  N   UNL     1      45.348   3.918   8.347  0.00  0.00    +0.000 NA
ATOM     12  C   UNL     1      45.614   4.994   9.129  0.00  0.00    +0.000 A 
ENDBRANCH   5   7
BRANCH   1  13
ATOM     13  C   UNL     1      48.855   7.848  12.776  0.00  0.00    +0.000 C 
ATOM     14  C   UNL     1      49.850   8.217  11.672  0.00  0.00    +0.000 C 
ATOM     15  C   UNL     1      49.426   9.249  12.658  0.00  0.00    +0.000 C 
BRANCH  13  16
ATOM     16  O   UNL     1      49.442   6.861  13.654  0.00  0.00    +0.000 OA
BRANCH  16  20
ATOM     17  C   UNL     1      48.508   6.282  17.564  0.00  0.00    +0.000 A 
ATOM     18  C   UNL     1      48.249   5.355  16.585  0.00  0.00    +0.000 A 
ATOM     19  N   UNL     1      48.490   5.568  15.281  0.00  0.00    +0.000 NA
ATOM     20  C   UNL     1      48.982   6.774  14.953  0.00  0.00    +0.000 A 
ATOM     21  N   UNL     1      49.252   7.762  15.822  0.00  0.00    +0.000 NA
ATOM     22  C   UNL     1      49.011   7.487  17.117  0.00  0.00    +0.000 A 
ENDBRANCH  16  20
ENDBRANCH  13  16
ENDBRANCH   1  13
TORSDOF 4
ENDMDL
MODEL 7
REMARK VINA RESULT:    -5.613      4.261      7.640
REMARK INTER + INTRA:          -7.671
REMARK INTER:                  -7.174
REMARK INTRA:                  -0.497
REMARK UNBOUND:                -0.746
REMARK  Name = 
REMARK  4 active torsions:
REMARK  status: ('A' for Active; 'I' for Inactive)
REMARK    1  A    between atoms: C_4  and  O_5
REMARK    2  A    between atoms: O_5  and  C_6
REMARK    3  A    between atoms: C_6  and  C_7
REMARK    4  A    between atoms: C_11  and  C_12
REMARK                            x       y       z     vdW  Elec       q    Type
REMARK                         _______ _______ _______ _____ _____    ______ ____
ROOT
ATOM      1  C   UNL     1      48.886   6.319  15.917  0.00  0.00    +0.000 A 
ATOM      2  C   UNL     1      49.774   7.192  15.275  0.00  0.00    +0.000 A 
ATOM      3  C   UNL     1      49.656   7.467  13.913  0.00  0.00    +0.000 A 
ATOM      4  C   UNL     1      48.651   6.860  13.159  0.00  0.00    +0.000 A 
ATOM      5  C   UNL     1      47.731   5.980  13.749  0.00  0.00    +0.000 A 
ATOM      6  C   UNL     1      47.851   5.761  15.136  0.00  0.00    +0.000 A 
ENDROOT
BRANCH   5   7
ATOM      7  C   UNL     1      46.724   5.252  12.949  0.00  0.00    +0.000 A 
ATOM      8  C   UNL     1      46.111   5.805  11.816  0.00  0.00    +0.000 A 
ATOM      9  C   UNL     1      45.120   5.105  11.127  0.00  0.00    +0.000 A 
ATOM     10  C   UNL     1      44.768   3.847  11.580  0.00  0.00    +0.000 A 
ATOM     11  N   UNL     1      45.331   3.259  12.654  0.00  0.00    +0.000 NA
ATOM     12  C   UNL     1      46.281   3.973  13.307  0.00  0.00    +0.000 A 
ENDBRANCH   5   7
BRANCH   1  13
ATOM     13  C   UNL     1      49.083   5.929  17.375  0.00  0.00    +0.000 C 
ATOM     14  C   UNL     1      48.531   6.857  18.461  0.00  0.00    +0.000 C 
ATOM     15  C   UNL     1      47.847   5.564  18.177  0.00  0.00    +0.000 C 
BRANCH  13  16
ATOM     16  O   UNL     1      50.398   5.462  17.754  0.00  0.00    +0.000 OA
BRANCH  16  20
ATOM     17  C   UNL     1      51.389   1.538  17.409  0.00  0.00    +0.000 A 
ATOM     18  C   UNL     1      52.270   2.500  17.836  0.00  0.00    +0.000 A 
ATOM     19  N   UNL     1      51.971   3.809  17.885  0.00  0.00    +0.000 NA
ATOM     20  C   UNL     1      50.747   4.160  17.457  0.00  0.00    +0.000 A 
ATOM     21  N   UNL     1      49.815   3.308  16.998  0.00  0.00    +0.000 NA
ATOM     22  C   UNL     1      50.161   2.007  16.991  0.00  0.00    +0.000 A 
ENDBRANCH  16  20
ENDBRANCH  13  16
ENDBRANCH   1  13
TORSDOF 4
ENDMDL
MODEL 8
REMARK VINA RESULT:    -5.391      3.607      6.038
REMARK INTER + INTRA:          -7.398
REMARK INTER:                  -6.973
REMARK INTRA:                  -0.425
REMARK UNBOUND:                -0.746
REMARK  Name = 
REMARK  4 active torsions:
REMARK  status: ('A' for Active; 'I' for Inactive)
REMARK    1  A    between atoms: C_4  and  O_5
REMARK    2  A    between atoms: O_5  and  C_6
REMARK    3  A    between atoms: C_6  and  C_7
REMARK    4  A    between atoms: C_11  and  C_12
REMARK                            x       y       z     vdW  Elec       q    Type
REMARK                         _______ _______ _______ _____ _____    ______ ____
ROOT
ATOM      1  C   UNL     1      46.877   6.053  13.159  0.00  0.00    +0.000 A 
ATOM      2  C   UNL     1      48.240   6.239  12.892  0.00  0.00    +0.000 A 
ATOM      3  C   UNL     1      48.710   7.429  12.338  0.00  0.00    +0.000 A 
ATOM      4  C   UNL     1      47.819   8.458  12.025  0.00  0.00    +0.000 A 
ATOM      5  C   UNL     1      46.445   8.329  12.275  0.00  0.00    +0.000 A 
ATOM      6  C   UNL     1      46.011   7.131  12.878  0.00  0.00    +0.000 A 
ENDROOT
BRANCH   5   7
ATOM      7  C   UNL     1      45.476   9.365  11.859  0.00  0.00    +0.000 A 
ATOM      8  C   UNL     1      44.270   9.059  11.212  0.00  0.00    +0.000 A 
ATOM      9  C   UNL     1      43.414  10.074  10.782  0.00  0.00    +0.000 A 
ATOM     10  C   UNL     1      43.777  11.386  11.021  0.00  0.00    +0.000 A 
ATOM     11  N   UNL     1      44.916  11.740  11.649  0.00  0.00    +0.000 NA
ATOM     12  C   UNL     1      45.730  10.729  12.042  0.00  0.00    +0.000 A 
ENDBRANCH   5   7
BRANCH   1  13
ATOM     13  C   UNL     1      46.349   4.714  13.656  0.00  0.00    +0.000 C 
ATOM     14  C   UNL     1      45.055   4.167  13.046  0.00  0.00    +0.000 C 
ATOM     15  C   UNL     1      46.362   3.550  12.682  0.00  0.00    +0.000 C 
BRANCH  13  16
ATOM     16  O   UNL     1      46.341   4.508  15.086  0.00  0.00    +0.000 OA
BRANCH  16  20
ATOM     17  C   UNL     1      49.524   3.434  17.370  0.00  0.00    +0.000 A 
ATOM     18  C   UNL     1      49.119   4.736  17.212  0.00  0.00    +0.000 A 
ATOM     19  N   UNL     1      48.112   5.106  16.403  0.00  0.00    +0.000 NA
ATOM     20  C   UNL     1      47.515   4.125  15.706  0.00  0.00    +0.000 A 
ATOM     21  N   UNL     1      47.843   2.823  15.764  0.00  0.00    +0.000 NA
ATOM     22  C   UNL     1      48.845   2.508  16.606  0.00  0.00    +0.000 A 
ENDBRANCH  16  20
ENDBRANCH  13  16
ENDBRANCH   1  13
TORSDOF 4
ENDMDL
MODEL 9
REMARK VINA RESULT:    -5.235      3.514      7.220
REMARK INTER + INTRA:          -7.205
REMARK INTER:                  -6.773
REMARK INTRA:                  -0.432
REMARK UNBOUND:                -0.746
REMARK  Name = 
REMARK  4 active torsions:
REMARK  status: ('A' for Active; 'I' for Inactive)
REMARK    1  A    between atoms: C_4  and  O_5
REMARK    2  A    between atoms: O_5  and  C_6
REMARK    3  A    between atoms: C_6  and  C_7
REMARK    4  A    between atoms: C_11  and  C_12
REMARK                            x       y       z     vdW  Elec       q    Type
REMARK                         _______ _______ _______ _____ _____    ______ ____
ROOT
ATOM      1  C   UNL     1      49.047   7.357  14.976  0.00  0.00    +0.000 A 
ATOM      2  C   UNL     1      49.993   7.769  14.028  0.00  0.00    +0.000 A 
ATOM      3  C   UNL     1      49.797   7.538  12.666  0.00  0.00    +0.000 A 
ATOM      4  C   UNL     1      48.651   6.872  12.225  0.00  0.00    +0.000 A 
ATOM      5  C   UNL     1      47.669   6.441  13.130  0.00  0.00    +0.000 A 
ATOM      6  C   UNL     1      47.878   6.732  14.493  0.00  0.00    +0.000 A 
ENDROOT
BRANCH   5   7
ATOM      7  C   UNL     1      46.501   5.648  12.692  0.00  0.00    +0.000 A 
ATOM      8  C   UNL     1      45.878   5.837  11.450  0.00  0.00    +0.000 A 
ATOM      9  C   UNL     1      44.739   5.109  11.105  0.00  0.00    +0.000 A 
ATOM     10  C   UNL     1      44.248   4.187  12.010  0.00  0.00    +0.000 A 
ATOM     11  N   UNL     1      44.811   3.953  13.212  0.00  0.00    +0.000 NA
ATOM     12  C   UNL     1      45.909   4.688  13.520  0.00  0.00    +0.000 A 
ENDBRANCH   5   7
BRANCH   1  13
ATOM     13  C   UNL     1      49.313   7.506  16.467  0.00  0.00    +0.000 C 
ATOM     14  C   UNL     1      49.965   8.798  16.968  0.00  0.00    +0.000 C 
ATOM     15  C   UNL     1      48.516   8.555  17.221  0.00  0.00    +0.000 C 
BRANCH  13  16
ATOM     16  O   UNL     1      49.900   6.370  17.142  0.00  0.00    +0.000 OA
BRANCH  16  20
ATOM     17  C   UNL     1      47.311   3.244  17.291  0.00  0.00    +0.000 A 
ATOM     18  C   UNL     1      47.064   4.452  17.892  0.00  0.00    +0.000 A 
ATOM     19  N   UNL     1      47.945   5.466  17.908  0.00  0.00    +0.000 NA
ATOM     20  C   UNL     1      49.130   5.237  17.320  0.00  0.00    +0.000 A 
ATOM     21  N   UNL     1      49.488   4.088  16.721  0.00  0.00    +0.000 NA
ATOM     22  C   UNL     1      48.559   3.114  16.717  0.00  0.00    +0.000 A 
ENDBRANCH  16  20
ENDBRANCH  13  16
ENDBRANCH   1  13
TORSDOF 4
ENDMDL
