MODEL 1
REMARK VINA RESULT:    -8.071      0.000      0.000
REMARK INTER + INTRA:         -12.612
REMARK INTER:                 -11.374
REMARK INTRA:                  -1.238
REMARK UNBOUND:                -1.238
REMARK  Name = 
REMARK  8 active torsions:
REMARK  status: ('A' for Active; 'I' for Inactive)
REMARK    1  A    between atoms: C_1  and  C_2
REMARK    2  A    between atoms: C_2  and  C_3
REMARK    3  A    between atoms: C_2  and  C_14
REMARK    4  A    between atoms: C_3  and  O_4
REMARK    5  A    between atoms: O_4  and  C_5
REMARK    6  A    between atoms: C_8  and  C_9
REMARK    7  A    between atoms: C_18  and  O_19
REMARK    8  A    between atoms: O_19  and  C_20
REMARK                            x       y       z     vdW  Elec       q    Type
REMARK                         _______ _______ _______ _____ _____    ______ ____
ROOT
ATOM      1  C   UNL     1      42.814   5.512  12.007  0.00  0.00    +0.000 C 
ATOM      2  C   UNL     1      43.766   4.496  12.642  0.00  0.00    +0.000 C 
ENDROOT
BRANCH   2   3
ATOM      3  C   UNL     1      45.168   5.074  12.774  0.00  0.00    +0.000 A 
ATOM      4  C   UNL     1      45.639   5.973  11.810  0.00  0.00    +0.000 A 
ATOM      5  C   UNL     1      46.934   6.482  11.892  0.00  0.00    +0.000 A 
ATOM      6  C   UNL     1      47.760   6.138  12.963  0.00  0.00    +0.000 A 
ATOM      7  C   UNL     1      47.284   5.312  13.982  0.00  0.00    +0.000 A 
ATOM      8  C   UNL     1      46.010   4.746  13.857  0.00  0.00    +0.000 A 
BRANCH   7   9
ATOM      9  O   UNL     1      47.951   5.021  15.149  0.00  0.00    +0.000 OA
BRANCH   9  10
ATOM     10  C   UNL     1      47.317   4.076  16.026  0.00  0.00    +0.000 C 
ATOM     11  C   UNL     1      47.280   4.627  17.436  0.00  0.00    +0.000 C 
ATOM     12  C   UNL     1      48.533   4.081  18.083  0.00  0.00    +0.000 C 
ATOM     13  O   UNL     1      48.865   2.862  17.420  0.00  0.00    +0.000 OA
ATOM     14  C   UNL     1      48.127   2.789  16.192  0.00  0.00    +0.000 C 
ENDBRANCH   9  10
ENDBRANCH   7   9
ENDBRANCH   2   3
BRANCH   2  15
ATOM     15  C   UNL     1      43.803   3.166  11.871  0.00  0.00    +0.000 C 
BRANCH  15  16
ATOM     16  O   UNL     1      43.354   3.329  10.520  0.00  0.00    +0.000 OA
BRANCH  16  17
ATOM     17  C   UNL     1      44.321   3.168   9.563  0.00  0.00    +0.000 A 
ATOM     18  C   UNL     1      44.783   4.156   8.695  0.00  0.00    +0.000 A 
ATOM     19  C   UNL     1      45.791   3.866   7.780  0.00  0.00    +0.000 A 
ATOM     20  C   UNL     1      46.312   2.581   7.760  0.00  0.00    +0.000 A 
ATOM     21  N   UNL     1      45.890   1.580   8.581  0.00  0.00    +0.000 NA
ATOM     22  C   UNL     1      44.900   1.905   9.455  0.00  0.00    +0.000 A 
BRANCH  20  23
ATOM     23  C   UNL     1      47.417   2.261   6.804  0.00  0.00    +0.000 C 
ATOM     24  N   UNL     1      47.504   3.075   5.707  0.00  0.00    +0.000 N 
ATOM     25  O   UNL     1      48.193   1.331   6.976  0.00  0.00    +0.000 OA
ATOM     26  H   UNL     1      46.831   3.822   5.587  0.00  0.00    +0.000 HD
ATOM     27  H   UNL     1      48.209   2.893   5.007  0.00  0.00    +0.000 HD
ENDBRANCH  20  23
ENDBRANCH  16  17
ENDBRANCH  15  16
ENDBRANCH   2  15
TORSDOF 7
ENDMDL
MODEL 2
REMARK VINA RESULT:    -7.269      2.475      4.147
REMARK INTER + INTRA:         -11.482
REMARK INTER:                 -10.422
REMARK INTRA:                  -1.059
REMARK UNBOUND:                -1.238
REMARK  Name = 
REMARK  8 active torsions:
REMARK  status: ('A' for Active; 'I' for Inactive)
REMARK    1  A    between atoms: C_1  and  C_2
REMARK    2  A    between atoms: C_2  and  C_3
REMARK    3  A    between atoms: C_2  and  C_14
REMARK    4  A    between atoms: C_3  and  O_4
REMARK    5  A    between atoms: O_4  and  C_5
REMARK    6  A    between atoms: C_8  and  C_9
REMARK    7  A    between atoms: C_18  and  O_19
REMARK    8  A    between atoms: O_19  and  C_20
REMARK                            x       y       z     vdW  Elec       q    Type
REMARK                         _______ _______ _______ _____ _____    ______ ____
ROOT
ATOM      1  C   UNL     1      42.447   5.320  12.348  0.00  0.00    +0.000 C 
ATOM      2  C   UNL     1      43.503   4.249  12.633  0.00  0.00    +0.000 C 
ENDROOT
BRANCH   2   3
ATOM      3  C   UNL     1      44.885   4.872  12.773  0.00  0.00    +0.000 A 
ATOM      4  C   UNL     1      45.925   4.126  13.339  0.00  0.00    +0.000 A 
ATOM      5  C   UNL     1      47.187   4.692  13.513  0.00  0.00    +0.000 A 
ATOM      6  C   UNL     1      47.441   5.994  13.080  0.00  0.00    +0.000 A 
ATOM      7  C   UNL     1      46.445   6.728  12.434  0.00  0.00    +0.000 A 
ATOM      8  C   UNL     1      45.161   6.182  12.329  0.00  0.00    +0.000 A 
BRANCH   7   9
ATOM      9  O   UNL     1      46.618   7.957  11.841  0.00  0.00    +0.000 OA
BRANCH   9  10
ATOM     10  C   UNL     1      46.462   9.102  12.695  0.00  0.00    +0.000 C 
ATOM     11  C   UNL     1      45.439  10.049  12.103  0.00  0.00    +0.000 C 
ATOM     12  C   UNL     1      46.261  11.022  11.285  0.00  0.00    +0.000 C 
ATOM     13  O   UNL     1      47.562  11.081  11.867  0.00  0.00    +0.000 OA
ATOM     14  C   UNL     1      47.721   9.968  12.757  0.00  0.00    +0.000 C 
ENDBRANCH   9  10
ENDBRANCH   7   9
ENDBRANCH   2   3
BRANCH   2  15
ATOM     15  C   UNL     1      43.518   3.141  11.568  0.00  0.00    +0.000 C 
BRANCH  15  16
ATOM     16  O   UNL     1      43.440   3.685  10.243  0.00  0.00    +0.000 OA
BRANCH  16  17
ATOM     17  C   UNL     1      44.448   3.302   9.398  0.00  0.00    +0.000 A 
ATOM     18  C   UNL     1      44.978   2.017   9.291  0.00  0.00    +0.000 A 
ATOM     19  C   UNL     1      45.990   1.755   8.372  0.00  0.00    +0.000 A 
ATOM     20  C   UNL     1      46.447   2.798   7.580  0.00  0.00    +0.000 A 
ATOM     21  N   UNL     1      45.969   4.069   7.654  0.00  0.00    +0.000 NA
ATOM     22  C   UNL     1      44.985   4.283   8.568  0.00  0.00    +0.000 A 
BRANCH  20  23
ATOM     23  C   UNL     1      47.513   2.525   6.567  0.00  0.00    +0.000 C 
ATOM     24  N   UNL     1      47.382   3.189   5.377  0.00  0.00    +0.000 N 
ATOM     25  O   UNL     1      48.441   1.754   6.772  0.00  0.00    +0.000 OA
ATOM     26  H   UNL     1      46.589   3.802   5.233  0.00  0.00    +0.000 HD
ATOM     27  H   UNL     1      48.051   3.024   4.639  0.00  0.00    +0.000 HD
ENDBRANCH  20  23
ENDBRANCH  16  17
ENDBRANCH  15  16
ENDBRANCH   2  15
TORSDOF 7
ENDMDL
MODEL 3
REMARK VINA RESULT:    -7.167      3.406      5.372
REMARK INTER + INTRA:         -11.339
REMARK INTER:                 -10.418
REMARK INTRA:                  -0.921
REMARK UNBOUND:                -1.238
REMARK  Name = 
REMARK  8 active torsions:
REMARK  status: ('A' for Active; 'I' for Inactive)
REMARK    1  A    between atoms: C_1  and  C_2
REMARK    2  A    between atoms: C_2  and  C_3
REMARK    3  A    between atoms: C_2  and  C_14
REMARK    4  A    between atoms: C_3  and  O_4
REMARK    5  A    between atoms: O_4  and  C_5
REMARK    6  A    between atoms: C_8  and  C_9
REMARK    7  A    between atoms: C_18  and  O_19
REMARK    8  A    between atoms: O_19  and  C_20
REMARK                            x       y       z     vdW  Elec       q    Type
REMARK                         _______ _______ _______ _____ _____    ______ ____
ROOT
ATOM      1  C   UNL     1      45.242   4.446  12.970  0.00  0.00    +0.000 C 
ATOM      2  C   UNL     1      45.437   5.182  11.642  0.00  0.00    +0.000 C 
ENDROOT
BRANCH   2   3
ATOM      3  C   UNL     1      45.989   6.582  11.872  0.00  0.00    +0.000 A 
ATOM      4  C   UNL     1      47.371   6.797  11.818  0.00  0.00    +0.000 A 
ATOM      5  C   UNL     1      47.899   8.062  12.065  0.00  0.00    +0.000 A 
ATOM      6  C   UNL     1      47.052   9.141  12.322  0.00  0.00    +0.000 A 
ATOM      7  C   UNL     1      45.667   8.971  12.296  0.00  0.00    +0.000 A 
ATOM      8  C   UNL     1      45.146   7.684  12.120  0.00  0.00    +0.000 A 
BRANCH   7   9
ATOM      9  O   UNL     1      44.738   9.980  12.392  0.00  0.00    +0.000 OA
BRANCH   9  10
ATOM     10  C   UNL     1      44.049  10.329  11.180  0.00  0.00    +0.000 C 
ATOM     11  C   UNL     1      44.822  11.400  10.440  0.00  0.00    +0.000 C 
ATOM     12  C   UNL     1      44.214  12.699  10.921  0.00  0.00    +0.000 C 
ATOM     13  O   UNL     1      42.869  12.426  11.308  0.00  0.00    +0.000 OA
ATOM     14  C   UNL     1      42.704  11.008  11.440  0.00  0.00    +0.000 C 
ENDBRANCH   9  10
ENDBRANCH   7   9
ENDBRANCH   2   3
BRANCH   2  15
ATOM     15  C   UNL     1      44.146   5.243  10.810  0.00  0.00    +0.000 C 
BRANCH  15  16
ATOM     16  O   UNL     1      43.832   3.969  10.232  0.00  0.00    +0.000 OA
BRANCH  16  17
ATOM     17  C   UNL     1      44.731   3.516   9.302  0.00  0.00    +0.000 A 
ATOM     18  C   UNL     1      45.374   4.295   8.342  0.00  0.00    +0.000 A 
ATOM     19  C   UNL     1      46.285   3.712   7.467  0.00  0.00    +0.000 A 
ATOM     20  C   UNL     1      46.529   2.352   7.579  0.00  0.00    +0.000 A 
ATOM     21  N   UNL     1      45.921   1.547   8.493  0.00  0.00    +0.000 NA
ATOM     22  C   UNL     1      45.033   2.156   9.324  0.00  0.00    +0.000 A 
BRANCH  20  23
ATOM     23  C   UNL     1      47.529   1.716   6.666  0.00  0.00    +0.000 C 
ATOM     24  N   UNL     1      48.643   2.464   6.397  0.00  0.00    +0.000 N 
ATOM     25  O   UNL     1      47.369   0.606   6.178  0.00  0.00    +0.000 OA
ATOM     26  H   UNL     1      48.732   3.389   6.800  0.00  0.00    +0.000 HD
ATOM     27  H   UNL     1      49.342   2.105   5.762  0.00  0.00    +0.000 HD
ENDBRANCH  20  23
ENDBRANCH  16  17
ENDBRANCH  15  16
ENDBRANCH   2  15
TORSDOF 7
ENDMDL
MODEL 4
REMARK VINA RESULT:    -7.018      1.788      2.119
REMARK INTER + INTRA:         -11.128
REMARK INTER:                 -10.112
REMARK INTRA:                  -1.017
REMARK UNBOUND:                -1.238
REMARK  Name = 
REMARK  8 active torsions:
REMARK  status: ('A' for Active; 'I' for Inactive)
REMARK    1  A    between atoms: C_1  and  C_2
REMARK    2  A    between atoms: C_2  and  C_3
REMARK    3  A    between atoms: C_2  and  C_14
REMARK    4  A    between atoms: C_3  and  O_4
REMARK    5  A    between atoms: O_4  and  C_5
REMARK    6  A    between atoms: C_8  and  C_9
REMARK    7  A    between atoms: C_18  and  O_19
REMARK    8  A    between atoms: O_19  and  C_20
REMARK                            x       y       z     vdW  Elec       q    Type
REMARK                         _______ _______ _______ _____ _____    ______ ____
ROOT
ATOM      1  C   UNL     1      43.227   4.665  13.277  0.00  0.00    +0.000 C 
ATOM      2  C   UNL     1      44.247   4.324  12.188  0.00  0.00    +0.000 C 
ENDROOT
BRANCH   2   3
ATOM      3  C   UNL     1      45.493   5.190  12.319  0.00  0.00    +0.000 A 
ATOM      4  C   UNL     1      45.848   6.052  11.275  0.00  0.00    +0.000 A 
ATOM      5  C   UNL     1      47.005   6.823  11.358  0.00  0.00    +0.000 A 
ATOM      6  C   UNL     1      47.799   6.780  12.506  0.00  0.00    +0.000 A 
ATOM      7  C   UNL     1      47.420   5.994  13.595  0.00  0.00    +0.000 A 
ATOM      8  C   UNL     1      46.298   5.167  13.477  0.00  0.00    +0.000 A 
BRANCH   7   9
ATOM      9  O   UNL     1      48.041   5.981  14.822  0.00  0.00    +0.000 OA
BRANCH   9  10
ATOM     10  C   UNL     1      49.035   6.995  15.043  0.00  0.00    +0.000 C 
ATOM     11  C   UNL     1      50.053   6.505  16.053  0.00  0.00    +0.000 C 
ATOM     12  C   UNL     1      49.533   7.011  17.380  0.00  0.00    +0.000 C 
ATOM     13  O   UNL     1      48.761   8.182  17.123  0.00  0.00    +0.000 OA
ATOM     14  C   UNL     1      48.467   8.242  15.721  0.00  0.00    +0.000 C 
ENDBRANCH   9  10
ENDBRANCH   7   9
ENDBRANCH   2   3
BRANCH   2  15
ATOM     15  C   UNL     1      43.657   4.442  10.774  0.00  0.00    +0.000 C 
BRANCH  15  16
ATOM     16  O   UNL     1      43.597   3.166  10.121  0.00  0.00    +0.000 OA
BRANCH  16  17
ATOM     17  C   UNL     1      44.587   2.939   9.201  0.00  0.00    +0.000 A 
ATOM     18  C   UNL     1      45.169   3.898   8.375  0.00  0.00    +0.000 A 
ATOM     19  C   UNL     1      46.185   3.537   7.496  0.00  0.00    +0.000 A 
ATOM     20  C   UNL     1      46.593   2.212   7.468  0.00  0.00    +0.000 A 
ATOM     21  N   UNL     1      46.050   1.237   8.247  0.00  0.00    +0.000 NA
ATOM     22  C   UNL     1      45.057   1.632   9.088  0.00  0.00    +0.000 A 
BRANCH  20  23
ATOM     23  C   UNL     1      47.705   1.814   6.550  0.00  0.00    +0.000 C 
ATOM     24  N   UNL     1      47.386   0.878   5.604  0.00  0.00    +0.000 N 
ATOM     25  O   UNL     1      48.833   2.281   6.636  0.00  0.00    +0.000 OA
ATOM     26  H   UNL     1      46.448   0.497   5.577  0.00  0.00    +0.000 HD
ATOM     27  H   UNL     1      48.100   0.544   4.974  0.00  0.00    +0.000 HD
ENDBRANCH  20  23
ENDBRANCH  16  17
ENDBRANCH  15  16
ENDBRANCH   2  15
TORSDOF 7
ENDMDL
MODEL 5
REMARK VINA RESULT:    -6.851      2.699      7.920
REMARK INTER + INTRA:         -10.892
REMARK INTER:                 -10.080
REMARK INTRA:                  -0.813
REMARK UNBOUND:                -1.238
REMARK  Name = 
REMARK  8 active torsions:
REMARK  status: ('A' for Active; 'I' for Inactive)
REMARK    1  A    between atoms: C_1  and  C_2
REMARK    2  A    between atoms: C_2  and  C_3
REMARK    3  A    between atoms: C_2  and  C_14
REMARK    4  A    between atoms: C_3  and  O_4
REMARK    5  A    between atoms: O_4  and  C_5
REMARK    6  A    between atoms: C_8  and  C_9
REMARK    7  A    between atoms: C_18  and  O_19
REMARK    8  A    between atoms: O_19  and  C_20
REMARK                            x       y       z     vdW  Elec       q    Type
REMARK                         _______ _______ _______ _____ _____    ______ ____
ROOT
ATOM      1  C   UNL     1      44.782   7.142  12.164  0.00  0.00    +0.000 C 
ATOM      2  C   UNL     1      45.808   6.602  11.165  0.00  0.00    +0.000 C 
ENDROOT
BRANCH   2   3
ATOM      3  C   UNL     1      45.311   5.317  10.516  0.00  0.00    +0.000 A 
ATOM      4  C   UNL     1      44.438   4.480  11.220  0.00  0.00    +0.000 A 
ATOM      5  C   UNL     1      44.004   3.281  10.659  0.00  0.00    +0.000 A 
ATOM      6  C   UNL     1      44.397   2.923   9.368  0.00  0.00    +0.000 A 
ATOM      7  C   UNL     1      45.196   3.782   8.613  0.00  0.00    +0.000 A 
ATOM      8  C   UNL     1      45.689   4.949   9.208  0.00  0.00    +0.000 A 
BRANCH   7   9
ATOM      9  O   UNL     1      45.527   3.605   7.290  0.00  0.00    +0.000 OA
BRANCH   9  10
ATOM     10  C   UNL     1      46.891   3.243   7.018  0.00  0.00    +0.000 C 
ATOM     11  C   UNL     1      47.143   3.274   5.525  0.00  0.00    +0.000 C 
ATOM     12  C   UNL     1      46.887   1.854   5.073  0.00  0.00    +0.000 C 
ATOM     13  O   UNL     1      47.146   0.996   6.183  0.00  0.00    +0.000 OA
ATOM     14  C   UNL     1      47.198   1.788   7.377  0.00  0.00    +0.000 C 
ENDBRANCH   9  10
ENDBRANCH   7   9
ENDBRANCH   2   3
BRANCH   2  15
ATOM     15  C   UNL     1      47.189   6.382  11.804  0.00  0.00    +0.000 C 
BRANCH  15  16
ATOM     16  O   UNL     1      47.254   6.943  13.121  0.00  0.00    +0.000 OA
BRANCH  16  17
ATOM     17  C   UNL     1      47.512   6.045  14.123  0.00  0.00    +0.000 A 
ATOM     18  C   UNL     1      48.205   6.315  15.303  0.00  0.00    +0.000 A 
ATOM     19  C   UNL     1      48.379   5.314  16.253  0.00  0.00    +0.000 A 
ATOM     20  C   UNL     1      47.851   4.058  15.993  0.00  0.00    +0.000 A 
ATOM     21  N   UNL     1      47.175   3.743  14.854  0.00  0.00    +0.000 NA
ATOM     22  C   UNL     1      47.033   4.748  13.950  0.00  0.00    +0.000 A 
BRANCH  20  23
ATOM     23  C   UNL     1      48.004   2.980  17.018  0.00  0.00    +0.000 C 
ATOM     24  N   UNL     1      46.875   2.679  17.732  0.00  0.00    +0.000 N 
ATOM     25  O   UNL     1      49.064   2.405  17.222  0.00  0.00    +0.000 OA
ATOM     26  H   UNL     1      46.020   3.191  17.552  0.00  0.00    +0.000 HD
ATOM     27  H   UNL     1      46.920   1.982  18.462  0.00  0.00    +0.000 HD
ENDBRANCH  20  23
ENDBRANCH  16  17
ENDBRANCH  15  16
ENDBRANCH   2  15
TORSDOF 7
ENDMDL
MODEL 6
REMARK VINA RESULT:    -6.767      2.889      4.118
REMARK INTER + INTRA:         -10.774
REMARK INTER:                  -9.871
REMARK INTRA:                  -0.904
REMARK UNBOUND:                -1.238
REMARK  Name = 
REMARK  8 active torsions:
REMARK  status: ('A' for Active; 'I' for Inactive)
REMARK    1  A    between atoms: C_1  and  C_2
REMARK    2  A    between atoms: C_2  and  C_3
REMARK    3  A    between atoms: C_2  and  C_14
REMARK    4  A    between atoms: C_3  and  O_4
REMARK    5  A    between atoms: O_4  and  C_5
REMARK    6  A    between atoms: C_8  and  C_9
REMARK    7  A    between atoms: C_18  and  O_19
REMARK    8  A    between atoms: O_19  and  C_20
REMARK                            x       y       z     vdW  Elec       q    Type
REMARK                         _______ _______ _______ _____ _____    ______ ____
ROOT
ATOM      1  C   UNL     1      44.748   4.435  13.148  0.00  0.00    +0.000 C 
ATOM      2  C   UNL     1      45.187   5.071  11.828  0.00  0.00    +0.000 C 
ENDROOT
BRANCH   2   3
ATOM      3  C   UNL     1      45.867   6.412  12.070  0.00  0.00    +0.000 A 
ATOM      4  C   UNL     1      45.153   7.449  12.682  0.00  0.00    +0.000 A 
ATOM      5  C   UNL     1      45.744   8.695  12.875  0.00  0.00    +0.000 A 
ATOM      6  C   UNL     1      47.072   8.911  12.504  0.00  0.00    +0.000 A 
ATOM      7  C   UNL     1      47.832   7.868  11.972  0.00  0.00    +0.000 A 
ATOM      8  C   UNL     1      47.212   6.641  11.712  0.00  0.00    +0.000 A 
BRANCH   7   9
ATOM      9  O   UNL     1      49.180   7.921  11.704  0.00  0.00    +0.000 OA
BRANCH   9  10
ATOM     10  C   UNL     1      49.905   9.008  12.302  0.00  0.00    +0.000 C 
ATOM     11  C   UNL     1      50.428   9.933  11.223  0.00  0.00    +0.000 C 
ATOM     12  C   UNL     1      51.824   9.423  10.939  0.00  0.00    +0.000 C 
ATOM     13  O   UNL     1      52.299   8.787  12.124  0.00  0.00    +0.000 OA
ATOM     14  C   UNL     1      51.187   8.550  12.998  0.00  0.00    +0.000 C 
ENDBRANCH   9  10
ENDBRANCH   7   9
ENDBRANCH   2   3
BRANCH   2  15
ATOM     15  C   UNL     1      44.023   5.230  10.837  0.00  0.00    +0.000 C 
BRANCH  15  16
ATOM     16  O   UNL     1      43.711   3.989  10.189  0.00  0.00    +0.000 OA
BRANCH  16  17
ATOM     17  C   UNL     1      44.647   3.554   9.288  0.00  0.00    +0.000 A 
ATOM     18  C   UNL     1      45.387   4.362   8.425  0.00  0.00    +0.000 A 
ATOM     19  C   UNL     1      46.326   3.793   7.571  0.00  0.00    +0.000 A 
ATOM     20  C   UNL     1      46.499   2.417   7.604  0.00  0.00    +0.000 A 
ATOM     21  N   UNL     1      45.797   1.586   8.421  0.00  0.00    +0.000 NA
ATOM     22  C   UNL     1      44.885   2.182   9.235  0.00  0.00    +0.000 A 
BRANCH  20  23
ATOM     23  C   UNL     1      47.527   1.794   6.714  0.00  0.00    +0.000 C 
ATOM     24  N   UNL     1      48.603   2.583   6.409  0.00  0.00    +0.000 N 
ATOM     25  O   UNL     1      47.420   0.657   6.273  0.00  0.00    +0.000 OA
ATOM     26  H   UNL     1      48.647   3.527   6.773  0.00  0.00    +0.000 HD
ATOM     27  H   UNL     1      49.316   2.233   5.786  0.00  0.00    +0.000 HD
ENDBRANCH  20  23
ENDBRANCH  16  17
ENDBRANCH  15  16
ENDBRANCH   2  15
TORSDOF 7
ENDMDL
MODEL 7
REMARK VINA RESULT:    -6.595      3.151      7.457
REMARK INTER + INTRA:         -10.531
REMARK INTER:                  -9.560
REMARK INTRA:                  -0.972
REMARK UNBOUND:                -1.238
REMARK  Name = 
REMARK  8 active torsions:
REMARK  status: ('A' for Active; 'I' for Inactive)
REMARK    1  A    between atoms: C_1  and  C_2
REMARK    2  A    between atoms: C_2  and  C_3
REMARK    3  A    between atoms: C_2  and  C_14
REMARK    4  A    between atoms: C_3  and  O_4
REMARK    5  A    between atoms: O_4  and  C_5
REMARK    6  A    between atoms: C_8  and  C_9
REMARK    7  A    between atoms: C_18  and  O_19
REMARK    8  A    between atoms: O_19  and  C_20
REMARK                            x       y       z     vdW  Elec       q    Type
REMARK                         _______ _______ _______ _____ _____    ______ ____
ROOT
ATOM      1  C   UNL     1      45.471   8.657  12.554  0.00  0.00    +0.000 C 
ATOM      2  C   UNL     1      46.077   7.573  11.660  0.00  0.00    +0.000 C 
ENDROOT
BRANCH   2   3
ATOM      3  C   UNL     1      45.097   6.426  11.455  0.00  0.00    +0.000 A 
ATOM      4  C   UNL     1      43.726   6.650  11.626  0.00  0.00    +0.000 A 
ATOM      5  C   UNL     1      42.817   5.604  11.482  0.00  0.00    +0.000 A 
ATOM      6  C   UNL     1      43.259   4.331  11.117  0.00  0.00    +0.000 A 
ATOM      7  C   UNL     1      44.611   4.103  10.856  0.00  0.00    +0.000 A 
ATOM      8  C   UNL     1      45.527   5.138  11.074  0.00  0.00    +0.000 A 
BRANCH   7   9
ATOM      9  O   UNL     1      45.140   2.937  10.355  0.00  0.00    +0.000 OA
BRANCH   9  10
ATOM     10  C   UNL     1      44.718   2.563   9.034  0.00  0.00    +0.000 C 
ATOM     11  C   UNL     1      45.756   1.660   8.400  0.00  0.00    +0.000 C 
ATOM     12  C   UNL     1      46.652   2.604   7.629  0.00  0.00    +0.000 C 
ATOM     13  O   UNL     1      45.874   3.747   7.280  0.00  0.00    +0.000 OA
ATOM     14  C   UNL     1      44.676   3.749   8.070  0.00  0.00    +0.000 C 
ENDBRANCH   9  10
ENDBRANCH   7   9
ENDBRANCH   2   3
BRANCH   2  15
ATOM     15  C   UNL     1      47.416   7.046  12.203  0.00  0.00    +0.000 C 
BRANCH  15  16
ATOM     16  O   UNL     1      47.545   7.291  13.610  0.00  0.00    +0.000 OA
BRANCH  16  17
ATOM     17  C   UNL     1      47.656   6.168  14.387  0.00  0.00    +0.000 A 
ATOM     18  C   UNL     1      46.977   4.967  14.186  0.00  0.00    +0.000 A 
ATOM     19  C   UNL     1      47.198   3.890  15.040  0.00  0.00    +0.000 A 
ATOM     20  C   UNL     1      48.100   4.049  16.081  0.00  0.00    +0.000 A 
ATOM     21  N   UNL     1      48.780   5.203  16.324  0.00  0.00    +0.000 NA
ATOM     22  C   UNL     1      48.531   6.231  15.470  0.00  0.00    +0.000 A 
BRANCH  20  23
ATOM     23  C   UNL     1      48.370   2.891  16.989  0.00  0.00    +0.000 C 
ATOM     24  N   UNL     1      47.928   3.032  18.276  0.00  0.00    +0.000 N 
ATOM     25  O   UNL     1      48.957   1.883  16.619  0.00  0.00    +0.000 OA
ATOM     26  H   UNL     1      47.466   3.890  18.553  0.00  0.00    +0.000 HD
ATOM     27  H   UNL     1      48.107   2.300  18.947  0.00  0.00    +0.000 HD
ENDBRANCH  20  23
ENDBRANCH  16  17
ENDBRANCH  15  16
ENDBRANCH   2  15
TORSDOF 7
ENDMDL
MODEL 8
REMARK VINA RESULT:    -6.170      2.722      4.739
REMARK INTER + INTRA:          -9.933
REMARK INTER:                  -8.778
REMARK INTRA:                  -1.156
REMARK UNBOUND:                -1.238
REMARK  Name = 
REMARK  8 active torsions:
REMARK  status: ('A' for Active; 'I' for Inactive)
REMARK    1  A    between atoms: C_1  and  C_2
REMARK    2  A    between atoms: C_2  and  C_3
REMARK    3  A    between atoms: C_2  and  C_14
REMARK    4  A    between atoms: C_3  and  O_4
REMARK    5  A    between atoms: O_4  and  C_5
REMARK    6  A    between atoms: C_8  and  C_9
REMARK    7  A    between atoms: C_18  and  O_19
REMARK    8  A    between atoms: O_19  and  C_20
REMARK                            x       y       z     vdW  Elec       q    Type
REMARK                         _______ _______ _______ _____ _____    ______ ____
ROOT
ATOM      1  C   UNL     1      49.145   7.450  11.910  0.00  0.00    +0.000 C 
ATOM      2  C   UNL     1      48.413   8.501  12.748  0.00  0.00    +0.000 C 
ENDROOT
BRANCH   2   3
ATOM      3  C   UNL     1      48.587   8.228  14.236  0.00  0.00    +0.000 A 
ATOM      4  C   UNL     1      48.239   9.216  15.165  0.00  0.00    +0.000 A 
ATOM      5  C   UNL     1      48.429   9.001  16.529  0.00  0.00    +0.000 A 
ATOM      6  C   UNL     1      48.924   7.779  16.987  0.00  0.00    +0.000 A 
ATOM      7  C   UNL     1      49.197   6.748  16.087  0.00  0.00    +0.000 A 
ATOM      8  C   UNL     1      49.074   6.995  14.715  0.00  0.00    +0.000 A 
BRANCH   7   9
ATOM      9  O   UNL     1      49.550   5.464  16.430  0.00  0.00    +0.000 OA
BRANCH   9  10
ATOM     10  C   UNL     1      48.668   4.782  17.337  0.00  0.00    +0.000 C 
ATOM     11  C   UNL     1      49.238   3.422  17.683  0.00  0.00    +0.000 C 
ATOM     12  C   UNL     1      48.603   2.485  16.680  0.00  0.00    +0.000 C 
ATOM     13  O   UNL     1      47.354   3.053  16.290  0.00  0.00    +0.000 OA
ATOM     14  C   UNL     1      47.324   4.427  16.699  0.00  0.00    +0.000 C 
ENDBRANCH   9  10
ENDBRANCH   7   9
ENDBRANCH   2   3
BRANCH   2  15
ATOM     15  C   UNL     1      46.921   8.601  12.391  0.00  0.00    +0.000 C 
BRANCH  15  16
ATOM     16  O   UNL     1      46.114   7.818  13.280  0.00  0.00    +0.000 OA
BRANCH  16  17
ATOM     17  C   UNL     1      45.684   6.621  12.771  0.00  0.00    +0.000 A 
ATOM     18  C   UNL     1      45.849   5.373  13.371  0.00  0.00    +0.000 A 
ATOM     19  C   UNL     1      45.343   4.232  12.756  0.00  0.00    +0.000 A 
ATOM     20  C   UNL     1      44.681   4.374  11.546  0.00  0.00    +0.000 A 
ATOM     21  N   UNL     1      44.502   5.567  10.917  0.00  0.00    +0.000 NA
ATOM     22  C   UNL     1      45.017   6.656  11.548  0.00  0.00    +0.000 A 
BRANCH  20  23
ATOM     23  C   UNL     1      44.104   3.160  10.888  0.00  0.00    +0.000 C 
ATOM     24  N   UNL     1      43.454   2.289  11.720  0.00  0.00    +0.000 N 
ATOM     25  O   UNL     1      44.208   2.945   9.688  0.00  0.00    +0.000 OA
ATOM     26  H   UNL     1      43.407   2.488  12.712  0.00  0.00    +0.000 HD
ATOM     27  H   UNL     1      43.070   1.434  11.343  0.00  0.00    +0.000 HD
ENDBRANCH  20  23
ENDBRANCH  16  17
ENDBRANCH  15  16
ENDBRANCH   2  15
TORSDOF 7
ENDMDL
MODEL 9
REMARK VINA RESULT:    -6.135      3.502      7.697
REMARK INTER + INTRA:          -9.883
REMARK INTER:                  -8.899
REMARK INTRA:                  -0.984
REMARK UNBOUND:                -1.238
REMARK  Name = 
REMARK  8 active torsions:
REMARK  status: ('A' for Active; 'I' for Inactive)
REMARK    1  A    between atoms: C_1  and  C_2
REMARK    2  A    between atoms: C_2  and  C_3
REMARK    3  A    between atoms: C_2  and  C_14
REMARK    4  A    between atoms: C_3  and  O_4
REMARK    5  A    between atoms: O_4  and  C_5
REMARK    6  A    between atoms: C_8  and  C_9
REMARK    7  A    between atoms: C_18  and  O_19
REMARK    8  A    between atoms: O_19  and  C_20
REMARK                            x       y       z     vdW  Elec       q    Type
REMARK                         _______ _______ _______ _____ _____    ______ ____
ROOT
ATOM      1  C   UNL     1      49.441   9.928  12.333  0.00  0.00    +0.000 C 
ATOM      2  C   UNL     1      49.152   8.427  12.249  0.00  0.00    +0.000 C 
ENDROOT
BRANCH   2   3
ATOM      3  C   UNL     1      47.662   8.170  12.073  0.00  0.00    +0.000 A 
ATOM      4  C   UNL     1      46.761   9.238  12.158  0.00  0.00    +0.000 A 
ATOM      5  C   UNL     1      45.390   9.017  12.039  0.00  0.00    +0.000 A 
ATOM      6  C   UNL     1      44.903   7.734  11.786  0.00  0.00    +0.000 A 
ATOM      7  C   UNL     1      45.786   6.667  11.611  0.00  0.00    +0.000 A 
ATOM      8  C   UNL     1      47.155   6.882  11.804  0.00  0.00    +0.000 A 
BRANCH   7   9
ATOM      9  O   UNL     1      45.433   5.397  11.220  0.00  0.00    +0.000 OA
BRANCH   9  10
ATOM     10  C   UNL     1      44.024   5.125  11.136  0.00  0.00    +0.000 C 
ATOM     11  C   UNL     1      43.533   4.547  12.447  0.00  0.00    +0.000 C 
ATOM     12  C   UNL     1      43.628   3.050  12.253  0.00  0.00    +0.000 C 
ATOM     13  O   UNL     1      43.505   2.788  10.856  0.00  0.00    +0.000 OA
ATOM     14  C   UNL     1      43.695   4.014  10.138  0.00  0.00    +0.000 C 
ENDBRANCH   9  10
ENDBRANCH   7   9
ENDBRANCH   2   3
BRANCH   2  15
ATOM     15  C   UNL     1      49.690   7.657  13.466  0.00  0.00    +0.000 C 
BRANCH  15  16
ATOM     16  O   UNL     1      48.988   8.011  14.665  0.00  0.00    +0.000 OA
BRANCH  16  17
ATOM     17  C   UNL     1      48.710   6.965  15.505  0.00  0.00    +0.000 A 
ATOM     18  C   UNL     1      48.947   6.936  16.878  0.00  0.00    +0.000 A 
ATOM     19  C   UNL     1      48.596   5.815  17.623  0.00  0.00    +0.000 A 
ATOM     20  C   UNL     1      48.012   4.743  16.964  0.00  0.00    +0.000 A 
ATOM     21  N   UNL     1      47.768   4.719  15.626  0.00  0.00    +0.000 NA
ATOM     22  C   UNL     1      48.132   5.832  14.935  0.00  0.00    +0.000 A 
BRANCH  20  23
ATOM     23  C   UNL     1      47.600   3.542  17.756  0.00  0.00    +0.000 C 
ATOM     24  N   UNL     1      48.385   3.250  18.839  0.00  0.00    +0.000 N 
ATOM     25  O   UNL     1      46.633   2.854  17.460  0.00  0.00    +0.000 OA
ATOM     26  H   UNL     1      49.191   3.829  19.041  0.00  0.00    +0.000 HD
ATOM     27  H   UNL     1      48.180   2.434  19.397  0.00  0.00    +0.000 HD
ENDBRANCH  20  23
ENDBRANCH  16  17
ENDBRANCH  15  16
ENDBRANCH   2  15
TORSDOF 7
ENDMDL
