MODEL 1
REMARK VINA RESULT:    -7.212      0.000      0.000
REMARK INTER + INTRA:         -11.783
REMARK INTER:                 -10.796
REMARK INTRA:                  -0.987
REMARK UNBOUND:                -0.987
REMARK  Name = 
REMARK  9 active torsions:
REMARK  status: ('A' for Active; 'I' for Inactive)
REMARK    1  A    between atoms: N_1  and  C_2
REMARK    2  A    between atoms: C_9  and  C_10
REMARK    3  A    between atoms: C_10  and  O_12
REMARK    4  A    between atoms: O_12  and  C_13
REMARK    5  A    between atoms: C_13  and  C_14
REMARK    6  A    between atoms: C_17  and  N_18
REMARK    7  A    between atoms: N_18  and  C_19
REMARK    8  A    between atoms: C_19  and  C_20
REMARK    9  A    between atoms: C_20  and  N_21
REMARK                            x       y       z     vdW  Elec       q    Type
REMARK                         _______ _______ _______ _____ _____    ______ ____
ROOT
ATOM      1  C   UNL     1      48.288   5.819  15.284  0.00  0.00    +0.000 C 
ENDROOT
BRANCH   1   2
ATOM      2  C   UNL     1      47.461   5.942  14.032  0.00  0.00    +0.000 A 
ATOM      3  C   UNL     1      46.389   5.078  13.804  0.00  0.00    +0.000 A 
ATOM      4  C   UNL     1      45.652   5.164  12.622  0.00  0.00    +0.000 A 
ATOM      5  C   UNL     1      45.938   6.131  11.650  0.00  0.00    +0.000 A 
ATOM      6  C   UNL     1      47.046   6.959  11.867  0.00  0.00    +0.000 A 
ATOM      7  C   UNL     1      47.789   6.882  13.049  0.00  0.00    +0.000 A 
BRANCH   5   8
ATOM      8  N   UNL     1      45.266   6.213  10.420  0.00  0.00    +0.000 N 
ATOM      9  H   UNL     1      44.451   6.818  10.489  0.00  0.00    +0.000 HD
BRANCH   8  10
ATOM     10  C   UNL     1      44.975   4.949   9.743  0.00  0.00    +0.000 C 
BRANCH  10  11
ATOM     11  C   UNL     1      45.932   4.727   8.556  0.00  0.00    +0.000 C 
BRANCH  11  12
ATOM     12  N   UNL     1      45.380   3.847   7.502  0.00  0.00    +0.000 NA
ATOM     13  C   UNL     1      44.718   2.634   8.037  0.00  0.00    +0.000 C 
ATOM     14  C   UNL     1      45.694   1.637   8.681  0.00  0.00    +0.000 C 
ATOM     15  O   UNL     1      46.695   1.226   7.741  0.00  0.00    +0.000 OA
ATOM     16  C   UNL     1      47.406   2.354   7.213  0.00  0.00    +0.000 C 
ATOM     17  C   UNL     1      46.452   3.390   6.587  0.00  0.00    +0.000 C 
ENDBRANCH  11  12
ENDBRANCH  10  11
ENDBRANCH   8  10
ENDBRANCH   5   8
ENDBRANCH   1   2
BRANCH   1  18
ATOM     18  O   UNL     1      48.095   4.531  15.884  0.00  0.00    +0.000 OA
BRANCH  18  19
ATOM     19  C   UNL     1      48.155   4.531  17.239  0.00  0.00    +0.000 C 
ATOM     20  O   UNL     1      47.202   4.636  18.000  0.00  0.00    +0.000 OA
BRANCH  19  28
ATOM     21  C   UNL     1      50.344   2.041  17.011  0.00  0.00    +0.000 A 
ATOM     22  N   UNL     1      51.379   1.123  17.174  0.00  0.00    +0.000 NA
ATOM     23  C   UNL     1      52.413   1.490  17.869  0.00  0.00    +0.000 A 
ATOM     24  N   UNL     1      52.565   2.705  18.465  0.00  0.00    +0.000 N 
ATOM     25  C   UNL     1      51.580   3.630  18.361  0.00  0.00    +0.000 A 
ATOM     26  N   UNL     1      51.511   4.849  18.825  0.00  0.00    +0.000 NA
ATOM     27  C   UNL     1      50.259   5.297  18.410  0.00  0.00    +0.000 A 
ATOM     28  C   UNL     1      49.536   4.407  17.703  0.00  0.00    +0.000 A 
ATOM     29  C   UNL     1      50.368   3.251  17.602  0.00  0.00    +0.000 A 
ATOM     30  H   UNL     1      53.398   2.945  18.980  0.00  0.00    +0.000 HD
BRANCH  21  31
ATOM     31  N   UNL     1      49.290   1.652  16.213  0.00  0.00    +0.000 N 
ATOM     32  H   UNL     1      48.599   2.393  16.154  0.00  0.00    +0.000 HD
ATOM     33  H   UNL     1      49.563   1.282  15.299  0.00  0.00    +0.000 HD
ENDBRANCH  21  31
ENDBRANCH  19  28
ENDBRANCH  18  19
ENDBRANCH   1  18
TORSDOF 9
ENDMDL
MODEL 2
REMARK VINA RESULT:    -7.033      3.098      8.235
REMARK INTER + INTRA:         -11.515
REMARK INTER:                  -9.917
REMARK INTRA:                  -1.598
REMARK UNBOUND:                -0.987
REMARK  Name = 
REMARK  9 active torsions:
REMARK  status: ('A' for Active; 'I' for Inactive)
REMARK    1  A    between atoms: N_1  and  C_2
REMARK    2  A    between atoms: C_9  and  C_10
REMARK    3  A    between atoms: C_10  and  O_12
REMARK    4  A    between atoms: O_12  and  C_13
REMARK    5  A    between atoms: C_13  and  C_14
REMARK    6  A    between atoms: C_17  and  N_18
REMARK    7  A    between atoms: N_18  and  C_19
REMARK    8  A    between atoms: C_19  and  C_20
REMARK    9  A    between atoms: C_20  and  N_21
REMARK                            x       y       z     vdW  Elec       q    Type
REMARK                         _______ _______ _______ _____ _____    ______ ____
ROOT
ATOM      1  C   UNL     1      47.920   8.639  12.366  0.00  0.00    +0.000 C 
ENDROOT
BRANCH   1   2
ATOM      2  C   UNL     1      48.662   8.293  13.630  0.00  0.00    +0.000 A 
ATOM      3  C   UNL     1      48.107   8.581  14.877  0.00  0.00    +0.000 A 
ATOM      4  C   UNL     1      48.816   8.301  16.047  0.00  0.00    +0.000 A 
ATOM      5  C   UNL     1      50.079   7.698  16.010  0.00  0.00    +0.000 A 
ATOM      6  C   UNL     1      50.647   7.460  14.753  0.00  0.00    +0.000 A 
ATOM      7  C   UNL     1      49.944   7.735  13.576  0.00  0.00    +0.000 A 
BRANCH   5   8
ATOM      8  N   UNL     1      50.855   7.458  17.156  0.00  0.00    +0.000 N 
ATOM      9  H   UNL     1      51.826   7.283  16.909  0.00  0.00    +0.000 HD
BRANCH   8  10
ATOM     10  C   UNL     1      50.330   6.484  18.114  0.00  0.00    +0.000 C 
BRANCH  10  11
ATOM     11  C   UNL     1      50.120   5.112  17.445  0.00  0.00    +0.000 C 
BRANCH  11  12
ATOM     12  N   UNL     1      49.480   4.112  18.328  0.00  0.00    +0.000 NA
ATOM     13  C   UNL     1      49.203   2.823  17.651  0.00  0.00    +0.000 C 
ATOM     14  C   UNL     1      48.106   2.918  16.579  0.00  0.00    +0.000 C 
ATOM     15  O   UNL     1      46.882   3.401  17.145  0.00  0.00    +0.000 OA
ATOM     16  C   UNL     1      47.070   4.672  17.782  0.00  0.00    +0.000 C 
ATOM     17  C   UNL     1      48.186   4.619  18.844  0.00  0.00    +0.000 C 
ENDBRANCH  11  12
ENDBRANCH  10  11
ENDBRANCH   8  10
ENDBRANCH   5   8
ENDBRANCH   1   2
BRANCH   1  18
ATOM     18  O   UNL     1      47.314   7.466  11.807  0.00  0.00    +0.000 OA
BRANCH  18  19
ATOM     19  C   UNL     1      46.125   7.131  12.367  0.00  0.00    +0.000 C 
ATOM     20  O   UNL     1      45.237   7.911  12.688  0.00  0.00    +0.000 OA
BRANCH  19  28
ATOM     21  C   UNL     1      43.888   4.903  11.332  0.00  0.00    +0.000 A 
ATOM     22  N   UNL     1      43.037   3.814  11.154  0.00  0.00    +0.000 NA
ATOM     23  C   UNL     1      43.355   2.694  11.728  0.00  0.00    +0.000 A 
ATOM     24  N   UNL     1      44.457   2.496  12.505  0.00  0.00    +0.000 N 
ATOM     25  C   UNL     1      45.308   3.526  12.734  0.00  0.00    +0.000 A 
ATOM     26  N   UNL     1      46.418   3.570  13.420  0.00  0.00    +0.000 NA
ATOM     27  C   UNL     1      46.835   4.894  13.303  0.00  0.00    +0.000 A 
ATOM     28  C   UNL     1      46.029   5.687  12.570  0.00  0.00    +0.000 A 
ATOM     29  C   UNL     1      44.975   4.832  12.125  0.00  0.00    +0.000 A 
ATOM     30  H   UNL     1      44.666   1.599  12.913  0.00  0.00    +0.000 HD
BRANCH  21  31
ATOM     31  N   UNL     1      43.564   6.060  10.658  0.00  0.00    +0.000 N 
ATOM     32  H   UNL     1      44.292   6.756  10.781  0.00  0.00    +0.000 HD
ATOM     33  H   UNL     1      43.300   5.922   9.679  0.00  0.00    +0.000 HD
ENDBRANCH  21  31
ENDBRANCH  19  28
ENDBRANCH  18  19
ENDBRANCH   1  18
TORSDOF 9
ENDMDL
MODEL 3
REMARK VINA RESULT:    -6.888      2.900      8.573
REMARK INTER + INTRA:         -11.298
REMARK INTER:                  -9.952
REMARK INTRA:                  -1.346
REMARK UNBOUND:                -0.987
REMARK  Name = 
REMARK  9 active torsions:
REMARK  status: ('A' for Active; 'I' for Inactive)
REMARK    1  A    between atoms: N_1  and  C_2
REMARK    2  A    between atoms: C_9  and  C_10
REMARK    3  A    between atoms: C_10  and  O_12
REMARK    4  A    between atoms: O_12  and  C_13
REMARK    5  A    between atoms: C_13  and  C_14
REMARK    6  A    between atoms: C_17  and  N_18
REMARK    7  A    between atoms: N_18  and  C_19
REMARK    8  A    between atoms: C_19  and  C_20
REMARK    9  A    between atoms: C_20  and  N_21
REMARK                            x       y       z     vdW  Elec       q    Type
REMARK                         _______ _______ _______ _____ _____    ______ ____
ROOT
ATOM      1  C   UNL     1      45.428   7.684  12.031  0.00  0.00    +0.000 C 
ENDROOT
BRANCH   1   2
ATOM      2  C   UNL     1      46.758   7.584  12.731  0.00  0.00    +0.000 A 
ATOM      3  C   UNL     1      47.666   6.583  12.383  0.00  0.00    +0.000 A 
ATOM      4  C   UNL     1      48.879   6.464  13.063  0.00  0.00    +0.000 A 
ATOM      5  C   UNL     1      49.236   7.355  14.083  0.00  0.00    +0.000 A 
ATOM      6  C   UNL     1      48.297   8.323  14.457  0.00  0.00    +0.000 A 
ATOM      7  C   UNL     1      47.080   8.451  13.780  0.00  0.00    +0.000 A 
BRANCH   5   8
ATOM      8  N   UNL     1      50.416   7.234  14.837  0.00  0.00    +0.000 N 
ATOM      9  H   UNL     1      51.022   6.513  14.454  0.00  0.00    +0.000 HD
BRANCH   8  10
ATOM     10  C   UNL     1      50.261   7.130  16.289  0.00  0.00    +0.000 C 
BRANCH  10  11
ATOM     11  C   UNL     1      49.795   5.718  16.693  0.00  0.00    +0.000 C 
BRANCH  11  12
ATOM     12  N   UNL     1      48.376   5.656  17.108  0.00  0.00    +0.000 NA
ATOM     13  C   UNL     1      48.187   5.116  18.475  0.00  0.00    +0.000 C 
ATOM     14  C   UNL     1      48.528   3.623  18.596  0.00  0.00    +0.000 C 
ATOM     15  O   UNL     1      47.733   2.845  17.692  0.00  0.00    +0.000 OA
ATOM     16  C   UNL     1      47.903   3.289  16.339  0.00  0.00    +0.000 C 
ATOM     17  C   UNL     1      47.598   4.792  16.188  0.00  0.00    +0.000 C 
ENDBRANCH  11  12
ENDBRANCH  10  11
ENDBRANCH   8  10
ENDBRANCH   5   8
ENDBRANCH   1   2
BRANCH   1  18
ATOM     18  O   UNL     1      44.553   6.637  12.473  0.00  0.00    +0.000 OA
BRANCH  18  19
ATOM     19  C   UNL     1      43.653   6.231  11.543  0.00  0.00    +0.000 C 
ATOM     20  O   UNL     1      42.853   6.949  10.957  0.00  0.00    +0.000 OA
BRANCH  19  28
ATOM     21  C   UNL     1      45.336   4.426   9.318  0.00  0.00    +0.000 A 
ATOM     22  N   UNL     1      45.811   3.465   8.428  0.00  0.00    +0.000 NA
ATOM     23  C   UNL     1      45.424   2.237   8.597  0.00  0.00    +0.000 A 
ATOM     24  N   UNL     1      44.576   1.809   9.573  0.00  0.00    +0.000 N 
ATOM     25  C   UNL     1      44.063   2.703  10.453  0.00  0.00    +0.000 A 
ATOM     26  N   UNL     1      43.258   2.528  11.467  0.00  0.00    +0.000 NA
ATOM     27  C   UNL     1      43.077   3.810  11.980  0.00  0.00    +0.000 A 
ATOM     28  C   UNL     1      43.736   4.788  11.328  0.00  0.00    +0.000 A 
ATOM     29  C   UNL     1      44.451   4.122  10.287  0.00  0.00    +0.000 A 
ATOM     30  H   UNL     1      44.321   0.839   9.670  0.00  0.00    +0.000 HD
BRANCH  21  31
ATOM     31  N   UNL     1      45.815   5.709   9.160  0.00  0.00    +0.000 N 
ATOM     32  H   UNL     1      46.461   5.750   8.379  0.00  0.00    +0.000 HD
ATOM     33  H   UNL     1      45.090   6.431   9.122  0.00  0.00    +0.000 HD
ENDBRANCH  21  31
ENDBRANCH  19  28
ENDBRANCH  18  19
ENDBRANCH   1  18
TORSDOF 9
ENDMDL
MODEL 4
REMARK VINA RESULT:    -6.870      1.165      2.026
REMARK INTER + INTRA:         -11.271
REMARK INTER:                 -10.274
REMARK INTRA:                  -0.997
REMARK UNBOUND:                -0.987
REMARK  Name = 
REMARK  9 active torsions:
REMARK  status: ('A' for Active; 'I' for Inactive)
REMARK    1  A    between atoms: N_1  and  C_2
REMARK    2  A    between atoms: C_9  and  C_10
REMARK    3  A    between atoms: C_10  and  O_12
REMARK    4  A    between atoms: O_12  and  C_13
REMARK    5  A    between atoms: C_13  and  C_14
REMARK    6  A    between atoms: C_17  and  N_18
REMARK    7  A    between atoms: N_18  and  C_19
REMARK    8  A    between atoms: C_19  and  C_20
REMARK    9  A    between atoms: C_20  and  N_21
REMARK                            x       y       z     vdW  Elec       q    Type
REMARK                         _______ _______ _______ _____ _____    ______ ____
ROOT
ATOM      1  C   UNL     1      47.255   4.904  15.355  0.00  0.00    +0.000 C 
ENDROOT
BRANCH   1   2
ATOM      2  C   UNL     1      46.752   5.206  13.969  0.00  0.00    +0.000 A 
ATOM      3  C   UNL     1      45.818   4.368  13.357  0.00  0.00    +0.000 A 
ATOM      4  C   UNL     1      45.387   4.625  12.054  0.00  0.00    +0.000 A 
ATOM      5  C   UNL     1      45.845   5.737  11.338  0.00  0.00    +0.000 A 
ATOM      6  C   UNL     1      46.818   6.542  11.942  0.00  0.00    +0.000 A 
ATOM      7  C   UNL     1      47.255   6.294  13.247  0.00  0.00    +0.000 A 
BRANCH   5   8
ATOM      8  N   UNL     1      45.489   5.998  10.004  0.00  0.00    +0.000 N 
ATOM      9  H   UNL     1      44.824   6.766   9.948  0.00  0.00    +0.000 HD
BRANCH   8  10
ATOM     10  C   UNL     1      45.095   4.847   9.191  0.00  0.00    +0.000 C 
BRANCH  10  11
ATOM     11  C   UNL     1      46.173   4.521   8.140  0.00  0.00    +0.000 C 
BRANCH  11  12
ATOM     12  N   UNL     1      45.712   3.594   7.082  0.00  0.00    +0.000 NA
ATOM     13  C   UNL     1      45.068   2.369   7.614  0.00  0.00    +0.000 C 
ATOM     14  C   UNL     1      46.045   1.428   8.336  0.00  0.00    +0.000 C 
ATOM     15  O   UNL     1      47.110   1.032   7.461  0.00  0.00    +0.000 OA
ATOM     16  C   UNL     1      47.806   2.174   6.942  0.00  0.00    +0.000 C 
ATOM     17  C   UNL     1      46.849   3.156   6.238  0.00  0.00    +0.000 C 
ENDBRANCH  11  12
ENDBRANCH  10  11
ENDBRANCH   8  10
ENDBRANCH   5   8
ENDBRANCH   1   2
BRANCH   1  18
ATOM     18  O   UNL     1      47.547   3.506  15.485  0.00  0.00    +0.000 OA
BRANCH  18  19
ATOM     19  C   UNL     1      47.601   3.063  16.766  0.00  0.00    +0.000 C 
ATOM     20  O   UNL     1      46.640   2.866  17.499  0.00  0.00    +0.000 OA
BRANCH  19  28
ATOM     21  C   UNL     1      49.474   4.662  18.996  0.00  0.00    +0.000 A 
ATOM     22  N   UNL     1      50.494   5.237  19.751  0.00  0.00    +0.000 NA
ATOM     23  C   UNL     1      51.688   4.736  19.642  0.00  0.00    +0.000 A 
ATOM     24  N   UNL     1      52.029   3.692  18.835  0.00  0.00    +0.000 N 
ATOM     25  C   UNL     1      51.083   3.108  18.060  0.00  0.00    +0.000 A 
ATOM     26  N   UNL     1      51.168   2.100  17.235  0.00  0.00    +0.000 NA
ATOM     27  C   UNL     1      49.880   1.971  16.723  0.00  0.00    +0.000 A 
ATOM     28  C   UNL     1      48.984   2.861  17.194  0.00  0.00    +0.000 A 
ATOM     29  C   UNL     1      49.712   3.661  18.127  0.00  0.00    +0.000 A 
ATOM     30  H   UNL     1      52.969   3.331  18.802  0.00  0.00    +0.000 HD
BRANCH  21  31
ATOM     31  N   UNL     1      48.206   5.167  19.181  0.00  0.00    +0.000 N 
ATOM     32  H   UNL     1      48.048   5.959  18.567  0.00  0.00    +0.000 HD
ATOM     33  H   UNL     1      47.459   4.468  19.137  0.00  0.00    +0.000 HD
ENDBRANCH  21  31
ENDBRANCH  19  28
ENDBRANCH  18  19
ENDBRANCH   1  18
TORSDOF 9
ENDMDL
MODEL 5
REMARK VINA RESULT:    -6.577      2.465      3.154
REMARK INTER + INTRA:         -10.832
REMARK INTER:                  -9.633
REMARK INTRA:                  -1.199
REMARK UNBOUND:                -0.987
REMARK  Name = 
REMARK  9 active torsions:
REMARK  status: ('A' for Active; 'I' for Inactive)
REMARK    1  A    between atoms: N_1  and  C_2
REMARK    2  A    between atoms: C_9  and  C_10
REMARK    3  A    between atoms: C_10  and  O_12
REMARK    4  A    between atoms: O_12  and  C_13
REMARK    5  A    between atoms: C_13  and  C_14
REMARK    6  A    between atoms: C_17  and  N_18
REMARK    7  A    between atoms: N_18  and  C_19
REMARK    8  A    between atoms: C_19  and  C_20
REMARK    9  A    between atoms: C_20  and  N_21
REMARK                            x       y       z     vdW  Elec       q    Type
REMARK                         _______ _______ _______ _____ _____    ______ ____
ROOT
ATOM      1  C   UNL     1      49.292   8.153  14.181  0.00  0.00    +0.000 C 
ENDROOT
BRANCH   1   2
ATOM      2  C   UNL     1      48.036   7.977  13.369  0.00  0.00    +0.000 A 
ATOM      3  C   UNL     1      46.910   8.759  13.631  0.00  0.00    +0.000 A 
ATOM      4  C   UNL     1      45.732   8.563  12.907  0.00  0.00    +0.000 A 
ATOM      5  C   UNL     1      45.651   7.610  11.884  0.00  0.00    +0.000 A 
ATOM      6  C   UNL     1      46.771   6.799  11.664  0.00  0.00    +0.000 A 
ATOM      7  C   UNL     1      47.955   6.989  12.382  0.00  0.00    +0.000 A 
BRANCH   5   8
ATOM      8  N   UNL     1      44.470   7.335  11.175  0.00  0.00    +0.000 N 
ATOM      9  H   UNL     1      43.921   8.181  11.038  0.00  0.00    +0.000 HD
BRANCH   8  10
ATOM     10  C   UNL     1      43.665   6.209  11.650  0.00  0.00    +0.000 C 
BRANCH  10  11
ATOM     11  C   UNL     1      43.677   5.055  10.629  0.00  0.00    +0.000 C 
BRANCH  11  12
ATOM     12  N   UNL     1      45.018   4.470  10.408  0.00  0.00    +0.000 NA
ATOM     13  C   UNL     1      45.493   4.600   9.010  0.00  0.00    +0.000 C 
ATOM     14  C   UNL     1      44.700   3.741   8.012  0.00  0.00    +0.000 C 
ATOM     15  O   UNL     1      44.753   2.357   8.378  0.00  0.00    +0.000 OA
ATOM     16  C   UNL     1      44.265   2.154   9.711  0.00  0.00    +0.000 C 
ATOM     17  C   UNL     1      45.019   3.024  10.735  0.00  0.00    +0.000 C 
ENDBRANCH  11  12
ENDBRANCH  10  11
ENDBRANCH   8  10
ENDBRANCH   5   8
ENDBRANCH   1   2
BRANCH   1  18
ATOM     18  O   UNL     1      49.426   7.085  15.128  0.00  0.00    +0.000 OA
BRANCH  18  19
ATOM     19  C   UNL     1      49.069   7.413  16.395  0.00  0.00    +0.000 C 
ATOM     20  O   UNL     1      48.715   8.521  16.777  0.00  0.00    +0.000 OA
BRANCH  19  28
ATOM     21  C   UNL     1      47.436   4.521  16.471  0.00  0.00    +0.000 A 
ATOM     22  N   UNL     1      46.818   3.318  16.806  0.00  0.00    +0.000 NA
ATOM     23  C   UNL     1      47.216   2.710  17.883  0.00  0.00    +0.000 A 
ATOM     24  N   UNL     1      48.188   3.160  18.724  0.00  0.00    +0.000 N 
ATOM     25  C   UNL     1      48.808   4.337  18.461  0.00  0.00    +0.000 A 
ATOM     26  N   UNL     1      49.765   4.952  19.103  0.00  0.00    +0.000 NA
ATOM     27  C   UNL     1      49.971   6.116  18.367  0.00  0.00    +0.000 A 
ATOM     28  C   UNL     1      49.180   6.259  17.286  0.00  0.00    +0.000 A 
ATOM     29  C   UNL     1      48.371   5.083  17.260  0.00  0.00    +0.000 A 
ATOM     30  H   UNL     1      48.471   2.639  19.538  0.00  0.00    +0.000 HD
BRANCH  21  31
ATOM     31  N   UNL     1      47.043   5.111  15.289  0.00  0.00    +0.000 N 
ATOM     32  H   UNL     1      46.667   6.036  15.465  0.00  0.00    +0.000 HD
ATOM     33  H   UNL     1      47.753   5.098  14.552  0.00  0.00    +0.000 HD
ENDBRANCH  21  31
ENDBRANCH  19  28
ENDBRANCH  18  19
ENDBRANCH   1  18
TORSDOF 9
ENDMDL
MODEL 6
REMARK VINA RESULT:    -6.465      3.896      5.188
REMARK INTER + INTRA:         -10.664
REMARK INTER:                  -9.859
REMARK INTRA:                  -0.805
REMARK UNBOUND:                -0.987
REMARK  Name = 
REMARK  9 active torsions:
REMARK  status: ('A' for Active; 'I' for Inactive)
REMARK    1  A    between atoms: N_1  and  C_2
REMARK    2  A    between atoms: C_9  and  C_10
REMARK    3  A    between atoms: C_10  and  O_12
REMARK    4  A    between atoms: O_12  and  C_13
REMARK    5  A    between atoms: C_13  and  C_14
REMARK    6  A    between atoms: C_17  and  N_18
REMARK    7  A    between atoms: N_18  and  C_19
REMARK    8  A    between atoms: C_19  and  C_20
REMARK    9  A    between atoms: C_20  and  N_21
REMARK                            x       y       z     vdW  Elec       q    Type
REMARK                         _______ _______ _______ _____ _____    ______ ____
ROOT
ATOM      1  C   UNL     1      46.941   4.276  14.563  0.00  0.00    +0.000 C 
ENDROOT
BRANCH   1   2
ATOM      2  C   UNL     1      46.250   5.254  13.650  0.00  0.00    +0.000 A 
ATOM      3  C   UNL     1      46.906   6.409  13.224  0.00  0.00    +0.000 A 
ATOM      4  C   UNL     1      46.248   7.337  12.414  0.00  0.00    +0.000 A 
ATOM      5  C   UNL     1      44.933   7.126  11.980  0.00  0.00    +0.000 A 
ATOM      6  C   UNL     1      44.269   5.988  12.454  0.00  0.00    +0.000 A 
ATOM      7  C   UNL     1      44.921   5.053  13.262  0.00  0.00    +0.000 A 
BRANCH   5   8
ATOM      8  N   UNL     1      44.211   8.060  11.219  0.00  0.00    +0.000 N 
ATOM      9  H   UNL     1      44.209   7.806  10.234  0.00  0.00    +0.000 HD
BRANCH   8  10
ATOM     10  C   UNL     1      44.528   9.472  11.438  0.00  0.00    +0.000 C 
BRANCH  10  11
ATOM     11  C   UNL     1      43.827  10.362  10.393  0.00  0.00    +0.000 C 
BRANCH  11  12
ATOM     12  N   UNL     1      43.104  11.512  10.980  0.00  0.00    +0.000 NA
ATOM     13  C   UNL     1      41.875  11.122  11.711  0.00  0.00    +0.000 C 
ATOM     14  C   UNL     1      40.760  10.592  10.796  0.00  0.00    +0.000 C 
ATOM     15  O   UNL     1      40.406  11.569   9.808  0.00  0.00    +0.000 OA
ATOM     16  C   UNL     1      41.547  11.960   9.033  0.00  0.00    +0.000 C 
ATOM     17  C   UNL     1      42.697  12.469   9.924  0.00  0.00    +0.000 C 
ENDBRANCH  11  12
ENDBRANCH  10  11
ENDBRANCH   8  10
ENDBRANCH   5   8
ENDBRANCH   1   2
BRANCH   1  18
ATOM     18  O   UNL     1      47.369   4.933  15.763  0.00  0.00    +0.000 OA
BRANCH  18  19
ATOM     19  C   UNL     1      47.523   4.107  16.828  0.00  0.00    +0.000 C 
ATOM     20  O   UNL     1      46.678   3.338  17.268  0.00  0.00    +0.000 OA
BRANCH  19  28
ATOM     21  C   UNL     1      50.153   2.078  16.900  0.00  0.00    +0.000 A 
ATOM     22  N   UNL     1      51.321   1.378  17.194  0.00  0.00    +0.000 NA
ATOM     23  C   UNL     1      52.194   1.949  17.968  0.00  0.00    +0.000 A 
ATOM     24  N   UNL     1      52.055   3.183  18.529  0.00  0.00    +0.000 N 
ATOM     25  C   UNL     1      50.929   3.901  18.298  0.00  0.00    +0.000 A 
ATOM     26  N   UNL     1      50.585   5.093  18.706  0.00  0.00    +0.000 NA
ATOM     27  C   UNL     1      49.319   5.285  18.160  0.00  0.00    +0.000 A 
ATOM     28  C   UNL     1      48.850   4.259  17.423  0.00  0.00    +0.000 A 
ATOM     29  C   UNL     1      49.890   3.282  17.444  0.00  0.00    +0.000 A 
ATOM     30  H   UNL     1      52.773   3.587  19.109  0.00  0.00    +0.000 HD
BRANCH  21  31
ATOM     31  N   UNL     1      49.275   1.478  16.023  0.00  0.00    +0.000 N 
ATOM     32  H   UNL     1      49.707   1.368  15.112  0.00  0.00    +0.000 HD
ATOM     33  H   UNL     1      48.846   0.617  16.373  0.00  0.00    +0.000 HD
ENDBRANCH  21  31
ENDBRANCH  19  28
ENDBRANCH  18  19
ENDBRANCH   1  18
TORSDOF 9
ENDMDL
MODEL 7
REMARK VINA RESULT:    -6.425      3.260      4.391
REMARK INTER + INTRA:         -10.605
REMARK INTER:                  -8.581
REMARK INTRA:                  -2.024
REMARK UNBOUND:                -0.987
REMARK  Name = 
REMARK  9 active torsions:
REMARK  status: ('A' for Active; 'I' for Inactive)
REMARK    1  A    between atoms: N_1  and  C_2
REMARK    2  A    between atoms: C_9  and  C_10
REMARK    3  A    between atoms: C_10  and  O_12
REMARK    4  A    between atoms: O_12  and  C_13
REMARK    5  A    between atoms: C_13  and  C_14
REMARK    6  A    between atoms: C_17  and  N_18
REMARK    7  A    between atoms: N_18  and  C_19
REMARK    8  A    between atoms: C_19  and  C_20
REMARK    9  A    between atoms: C_20  and  N_21
REMARK                            x       y       z     vdW  Elec       q    Type
REMARK                         _______ _______ _______ _____ _____    ______ ____
ROOT
ATOM      1  C   UNL     1      50.550   8.224  17.236  0.00  0.00    +0.000 C 
ENDROOT
BRANCH   1   2
ATOM      2  C   UNL     1      49.653   8.147  16.030  0.00  0.00    +0.000 A 
ATOM      3  C   UNL     1      49.897   7.210  15.025  0.00  0.00    +0.000 A 
ATOM      4  C   UNL     1      49.090   7.170  13.886  0.00  0.00    +0.000 A 
ATOM      5  C   UNL     1      48.002   8.038  13.730  0.00  0.00    +0.000 A 
ATOM      6  C   UNL     1      47.797   9.006  14.720  0.00  0.00    +0.000 A 
ATOM      7  C   UNL     1      48.598   9.051  15.865  0.00  0.00    +0.000 A 
BRANCH   5   8
ATOM      8  N   UNL     1      47.205   8.077  12.574  0.00  0.00    +0.000 N 
ATOM      9  H   UNL     1      46.283   8.454  12.779  0.00  0.00    +0.000 HD
BRANCH   8  10
ATOM     10  C   UNL     1      47.151   6.856  11.769  0.00  0.00    +0.000 C 
BRANCH  10  11
ATOM     11  C   UNL     1      45.713   6.307  11.698  0.00  0.00    +0.000 C 
BRANCH  11  12
ATOM     12  N   UNL     1      45.173   5.881  13.008  0.00  0.00    +0.000 NA
ATOM     13  C   UNL     1      45.938   4.774  13.628  0.00  0.00    +0.000 C 
ATOM     14  C   UNL     1      45.801   3.440  12.878  0.00  0.00    +0.000 C 
ATOM     15  O   UNL     1      44.426   3.044  12.793  0.00  0.00    +0.000 OA
ATOM     16  C   UNL     1      43.632   4.057  12.162  0.00  0.00    +0.000 C 
ATOM     17  C   UNL     1      43.772   5.418  12.871  0.00  0.00    +0.000 C 
ENDBRANCH  11  12
ENDBRANCH  10  11
ENDBRANCH   8  10
ENDBRANCH   5   8
ENDBRANCH   1   2
BRANCH   1  18
ATOM     18  O   UNL     1      49.774   8.158  18.440  0.00  0.00    +0.000 OA
BRANCH  18  19
ATOM     19  C   UNL     1      49.871   6.980  19.104  0.00  0.00    +0.000 C 
ATOM     20  O   UNL     1      50.786   6.648  19.847  0.00  0.00    +0.000 OA
BRANCH  19  28
ATOM     21  C   UNL     1      49.651   4.133  17.404  0.00  0.00    +0.000 A 
ATOM     22  N   UNL     1      49.267   3.034  16.640  0.00  0.00    +0.000 NA
ATOM     23  C   UNL     1      48.001   2.757  16.567  0.00  0.00    +0.000 A 
ATOM     24  N   UNL     1      47.007   3.464  17.174  0.00  0.00    +0.000 N 
ATOM     25  C   UNL     1      47.319   4.558  17.911  0.00  0.00    +0.000 A 
ATOM     26  N   UNL     1      46.552   5.370  18.588  0.00  0.00    +0.000 NA
ATOM     27  C   UNL     1      47.436   6.304  19.121  0.00  0.00    +0.000 A 
ATOM     28  C   UNL     1      48.732   6.113  18.806  0.00  0.00    +0.000 A 
ATOM     29  C   UNL     1      48.747   4.933  18.002  0.00  0.00    +0.000 A 
ATOM     30  H   UNL     1      46.039   3.195  17.099  0.00  0.00    +0.000 HD
BRANCH  21  31
ATOM     31  N   UNL     1      51.005   4.366  17.521  0.00  0.00    +0.000 N 
ATOM     32  H   UNL     1      51.303   4.240  18.482  0.00  0.00    +0.000 HD
ATOM     33  H   UNL     1      51.583   3.853  16.849  0.00  0.00    +0.000 HD
ENDBRANCH  21  31
ENDBRANCH  19  28
ENDBRANCH  18  19
ENDBRANCH   1  18
TORSDOF 9
ENDMDL
MODEL 8
REMARK VINA RESULT:    -6.368      2.548      9.860
REMARK INTER + INTRA:         -10.519
REMARK INTER:                  -9.530
REMARK INTRA:                  -0.989
REMARK UNBOUND:                -0.987
REMARK  Name = 
REMARK  9 active torsions:
REMARK  status: ('A' for Active; 'I' for Inactive)
REMARK    1  A    between atoms: N_1  and  C_2
REMARK    2  A    between atoms: C_9  and  C_10
REMARK    3  A    between atoms: C_10  and  O_12
REMARK    4  A    between atoms: O_12  and  C_13
REMARK    5  A    between atoms: C_13  and  C_14
REMARK    6  A    between atoms: C_17  and  N_18
REMARK    7  A    between atoms: N_18  and  C_19
REMARK    8  A    between atoms: C_19  and  C_20
REMARK    9  A    between atoms: C_20  and  N_21
REMARK                            x       y       z     vdW  Elec       q    Type
REMARK                         _______ _______ _______ _____ _____    ______ ____
ROOT
ATOM      1  C   UNL     1      46.840   5.087  14.134  0.00  0.00    +0.000 C 
ENDROOT
BRANCH   1   2
ATOM      2  C   UNL     1      47.556   4.788  15.425  0.00  0.00    +0.000 A 
ATOM      3  C   UNL     1      48.470   5.701  15.954  0.00  0.00    +0.000 A 
ATOM      4  C   UNL     1      49.166   5.402  17.126  0.00  0.00    +0.000 A 
ATOM      5  C   UNL     1      48.950   4.206  17.821  0.00  0.00    +0.000 A 
ATOM      6  C   UNL     1      48.068   3.277  17.255  0.00  0.00    +0.000 A 
ATOM      7  C   UNL     1      47.364   3.569  16.083  0.00  0.00    +0.000 A 
BRANCH   5   8
ATOM      8  N   UNL     1      49.674   3.835  18.967  0.00  0.00    +0.000 N 
ATOM      9  H   UNL     1      49.169   3.137  19.508  0.00  0.00    +0.000 HD
BRANCH   8  10
ATOM     10  C   UNL     1      50.196   4.922  19.795  0.00  0.00    +0.000 C 
BRANCH  10  11
ATOM     11  C   UNL     1      51.735   4.875  19.860  0.00  0.00    +0.000 C 
BRANCH  11  12
ATOM     12  N   UNL     1      52.340   3.903  18.922  0.00  0.00    +0.000 NA
ATOM     13  C   UNL     1      53.487   3.163  19.502  0.00  0.00    +0.000 C 
ATOM     14  C   UNL     1      54.721   4.044  19.750  0.00  0.00    +0.000 C 
ATOM     15  O   UNL     1      55.155   4.665  18.534  0.00  0.00    +0.000 OA
ATOM     16  C   UNL     1      54.102   5.436  17.940  0.00  0.00    +0.000 C 
ATOM     17  C   UNL     1      52.836   4.589  17.706  0.00  0.00    +0.000 C 
ENDBRANCH  11  12
ENDBRANCH  10  11
ENDBRANCH   8  10
ENDBRANCH   5   8
ENDBRANCH   1   2
BRANCH   1  18
ATOM     18  O   UNL     1      45.548   4.465  14.126  0.00  0.00    +0.000 OA
BRANCH  18  19
ATOM     19  C   UNL     1      44.680   4.992  13.226  0.00  0.00    +0.000 C 
ATOM     20  O   UNL     1      44.163   6.099  13.291  0.00  0.00    +0.000 OA
BRANCH  19  28
ATOM     21  C   UNL     1      45.503   5.023  10.008  0.00  0.00    +0.000 A 
ATOM     22  N   UNL     1      45.590   4.866   8.626  0.00  0.00    +0.000 NA
ATOM     23  C   UNL     1      44.982   3.851   8.091  0.00  0.00    +0.000 A 
ATOM     24  N   UNL     1      44.250   2.926   8.773  0.00  0.00    +0.000 N 
ATOM     25  C   UNL     1      44.110   3.042  10.116  0.00  0.00    +0.000 A 
ATOM     26  N   UNL     1      43.481   2.280  10.971  0.00  0.00    +0.000 NA
ATOM     27  C   UNL     1      43.678   2.913  12.195  0.00  0.00    +0.000 A 
ATOM     28  C   UNL     1      44.407   4.046  12.146  0.00  0.00    +0.000 A 
ATOM     29  C   UNL     1      44.761   4.198  10.771  0.00  0.00    +0.000 A 
ATOM     30  H   UNL     1      43.812   2.146   8.308  0.00  0.00    +0.000 HD
BRANCH  21  31
ATOM     31  N   UNL     1      46.213   6.068  10.559  0.00  0.00    +0.000 N 
ATOM     32  H   UNL     1      46.435   6.757   9.848  0.00  0.00    +0.000 HD
ATOM     33  H   UNL     1      45.788   6.475  11.396  0.00  0.00    +0.000 HD
ENDBRANCH  21  31
ENDBRANCH  19  28
ENDBRANCH  18  19
ENDBRANCH   1  18
TORSDOF 9
ENDMDL
MODEL 9
REMARK VINA RESULT:    -6.283      3.852      5.399
REMARK INTER + INTRA:         -10.391
REMARK INTER:                  -9.575
REMARK INTRA:                  -0.816
REMARK UNBOUND:                -0.987
REMARK  Name = 
REMARK  9 active torsions:
REMARK  status: ('A' for Active; 'I' for Inactive)
REMARK    1  A    between atoms: N_1  and  C_2
REMARK    2  A    between atoms: C_9  and  C_10
REMARK    3  A    between atoms: C_10  and  O_12
REMARK    4  A    between atoms: O_12  and  C_13
REMARK    5  A    between atoms: C_13  and  C_14
REMARK    6  A    between atoms: C_17  and  N_18
REMARK    7  A    between atoms: N_18  and  C_19
REMARK    8  A    between atoms: C_19  and  C_20
REMARK    9  A    between atoms: C_20  and  N_21
REMARK                            x       y       z     vdW  Elec       q    Type
REMARK                         _______ _______ _______ _____ _____    ______ ____
ROOT
ATOM      1  C   UNL     1      46.950   3.794  14.194  0.00  0.00    +0.000 C 
ENDROOT
BRANCH   1   2
ATOM      2  C   UNL     1      46.265   4.877  13.403  0.00  0.00    +0.000 A 
ATOM      3  C   UNL     1      46.972   6.009  12.996  0.00  0.00    +0.000 A 
ATOM      4  C   UNL     1      46.325   7.033  12.302  0.00  0.00    +0.000 A 
ATOM      5  C   UNL     1      44.968   6.946  11.966  0.00  0.00    +0.000 A 
ATOM      6  C   UNL     1      44.258   5.829  12.423  0.00  0.00    +0.000 A 
ATOM      7  C   UNL     1      44.898   4.797  13.116  0.00  0.00    +0.000 A 
BRANCH   5   8
ATOM      8  N   UNL     1      44.261   7.978  11.327  0.00  0.00    +0.000 N 
ATOM      9  H   UNL     1      44.103   7.760  10.346  0.00  0.00    +0.000 HD
BRANCH   8  10
ATOM     10  C   UNL     1      44.758   9.339  11.531  0.00  0.00    +0.000 C 
BRANCH  10  11
ATOM     11  C   UNL     1      43.627  10.371  11.354  0.00  0.00    +0.000 C 
BRANCH  11  12
ATOM     12  N   UNL     1      42.748  10.097  10.194  0.00  0.00    +0.000 NA
ATOM     13  C   UNL     1      43.241  10.694   8.930  0.00  0.00    +0.000 C 
ATOM     14  C   UNL     1      43.175  12.229   8.912  0.00  0.00    +0.000 C 
ATOM     15  O   UNL     1      41.833  12.683   9.131  0.00  0.00    +0.000 OA
ATOM     16  C   UNL     1      41.308  12.174  10.365  0.00  0.00    +0.000 C 
ATOM     17  C   UNL     1      41.388  10.636  10.430  0.00  0.00    +0.000 C 
ENDBRANCH  11  12
ENDBRANCH  10  11
ENDBRANCH   8  10
ENDBRANCH   5   8
ENDBRANCH   1   2
BRANCH   1  18
ATOM     18  O   UNL     1      47.720   4.366  15.259  0.00  0.00    +0.000 OA
BRANCH  18  19
ATOM     19  C   UNL     1      47.576   3.738  16.453  0.00  0.00    +0.000 C 
ATOM     20  O   UNL     1      46.553   3.699  17.124  0.00  0.00    +0.000 OA
BRANCH  19  28
ATOM     21  C   UNL     1      49.954   4.742  18.545  0.00  0.00    +0.000 A 
ATOM     22  N   UNL     1      51.134   4.985  19.245  0.00  0.00    +0.000 NA
ATOM     23  C   UNL     1      52.088   4.109  19.149  0.00  0.00    +0.000 A 
ATOM     24  N   UNL     1      52.035   2.969  18.406  0.00  0.00    +0.000 N 
ATOM     25  C   UNL     1      50.921   2.692  17.685  0.00  0.00    +0.000 A 
ATOM     26  N   UNL     1      50.637   1.668  16.925  0.00  0.00    +0.000 NA
ATOM     27  C   UNL     1      49.361   1.949  16.444  0.00  0.00    +0.000 A 
ATOM     28  C   UNL     1      48.829   3.111  16.870  0.00  0.00    +0.000 A 
ATOM     29  C   UNL     1      49.814   3.672  17.738  0.00  0.00    +0.000 A 
ATOM     30  H   UNL     1      52.800   2.314  18.380  0.00  0.00    +0.000 HD
BRANCH  21  31
ATOM     31  N   UNL     1      48.932   5.651  18.717  0.00  0.00    +0.000 N 
ATOM     32  H   UNL     1      48.308   5.635  17.918  0.00  0.00    +0.000 HD
ATOM     33  H   UNL     1      48.443   5.574  19.613  0.00  0.00    +0.000 HD
ENDBRANCH  21  31
ENDBRANCH  19  28
ENDBRANCH  18  19
ENDBRANCH   1  18
TORSDOF 9
ENDMDL
