MODEL 1
REMARK VINA RESULT:    -8.079      0.000      0.000
REMARK INTER + INTRA:         -12.765
REMARK INTER:                 -11.621
REMARK INTRA:                  -1.143
REMARK UNBOUND:                -1.143
REMARK  Name = 
REMARK  8 active torsions:
REMARK  status: ('A' for Active; 'I' for Inactive)
REMARK    1  A    between atoms: C_2  and  C_22
REMARK    2  A    between atoms: N_3  and  C_4
REMARK    3  A    between atoms: C_4  and  C_5
REMARK    4  A    between atoms: C_8  and  C_9
REMARK    5  A    between atoms: C_9  and  N_10
REMARK    6  A    between atoms: N_10  and  C_11
REMARK    7  A    between atoms: C_11  and  C_12
REMARK    8  A    between atoms: C_12  and  O_13
REMARK                            x       y       z     vdW  Elec       q    Type
REMARK                         _______ _______ _______ _____ _____    ______ ____
ROOT
ATOM      1  C   UNL     1      48.089   6.862  14.254  0.00  0.00    +0.000 A 
ATOM      2  C   UNL     1      48.076   7.524  13.021  0.00  0.00    +0.000 A 
ATOM      3  C   UNL     1      47.261   7.073  11.977  0.00  0.00    +0.000 A 
ATOM      4  C   UNL     1      46.406   5.975  12.162  0.00  0.00    +0.000 A 
ATOM      5  C   UNL     1      46.498   5.249  13.355  0.00  0.00    +0.000 A 
ATOM      6  C   UNL     1      47.327   5.692  14.395  0.00  0.00    +0.000 A 
ENDROOT
BRANCH   1   7
ATOM      7  C   UNL     1      48.852   7.449  15.416  0.00  0.00    +0.000 C 
BRANCH   7  10
ATOM      8  O   UNL     1      48.926   6.065  17.879  0.00  0.00    +0.000 OA
ATOM      9  C   UNL     1      49.849   5.902  17.086  0.00  0.00    +0.000 C 
ATOM     10  N   UNL     1      49.897   6.558  15.877  0.00  0.00    +0.000 N 
ATOM     11  H   UNL     1      50.608   6.301  15.202  0.00  0.00    +0.000 HD
BRANCH   9  12
ATOM     12  C   UNL     1      50.987   5.028  17.416  0.00  0.00    +0.000 A 
ATOM     13  C   UNL     1      52.181   5.592  17.854  0.00  0.00    +0.000 A 
ATOM     14  S   UNL     1      53.398   4.451  18.208  0.00  0.00    +0.000 S 
ATOM     15  C   UNL     1      52.366   3.154  17.829  0.00  0.00    +0.000 A 
ATOM     16  N   UNL     1      52.789   1.867  17.968  0.00  0.00    +0.000 NA
ATOM     17  C   UNL     1      51.891   0.979  17.692  0.00  0.00    +0.000 A 
ATOM     18  N   UNL     1      50.621   1.263  17.266  0.00  0.00    +0.000 N 
ATOM     19  C   UNL     1      50.179   2.542  17.038  0.00  0.00    +0.000 A 
ATOM     20  O   UNL     1      49.080   2.756  16.528  0.00  0.00    +0.000 OA
ATOM     21  C   UNL     1      51.123   3.586  17.397  0.00  0.00    +0.000 A 
ATOM     22  H   UNL     1      49.984   0.519  17.020  0.00  0.00    +0.000 HD
ENDBRANCH   9  12
ENDBRANCH   7  10
ENDBRANCH   1   7
BRANCH   4  23
ATOM     23  C   UNL     1      45.232   5.785  11.221  0.00  0.00    +0.000 C 
BRANCH  23  24
ATOM     24  N   UNL     1      44.724   4.421  11.059  0.00  0.00    +0.000 N 
ATOM     25  C   UNL     1      45.128   3.789   9.855  0.00  0.00    +0.000 A 
ATOM     26  C   UNL     1      45.590   4.502   8.738  0.00  0.00    +0.000 A 
ATOM     27  C   UNL     1      46.064   3.829   7.611  0.00  0.00    +0.000 A 
ATOM     28  C   UNL     1      46.055   2.451   7.597  0.00  0.00    +0.000 A 
ATOM     29  C   UNL     1      45.538   1.805   8.708  0.00  0.00    +0.000 A 
ATOM     30  N   UNL     1      45.070   2.441   9.809  0.00  0.00    +0.000 NA
BRANCH  24  31
ATOM     31  C   UNL     1      43.263   4.236  11.248  0.00  0.00    +0.000 C 
BRANCH  31  32
ATOM     32  C   UNL     1      42.575   5.439  11.912  0.00  0.00    +0.000 C 
BRANCH  32  33
ATOM     33  O   UNL     1      42.593   5.352  13.336  0.00  0.00    +0.000 OA
ATOM     34  H   UNL     1      41.718   5.002  13.586  0.00  0.00    +0.000 HD
ENDBRANCH  32  33
ENDBRANCH  31  32
ENDBRANCH  24  31
ENDBRANCH  23  24
ENDBRANCH   4  23
TORSDOF 8
ENDMDL
MODEL 2
REMARK VINA RESULT:    -7.418      2.287      2.762
REMARK INTER + INTRA:         -11.814
REMARK INTER:                 -10.777
REMARK INTRA:                  -1.037
REMARK UNBOUND:                -1.143
REMARK  Name = 
REMARK  8 active torsions:
REMARK  status: ('A' for Active; 'I' for Inactive)
REMARK    1  A    between atoms: C_2  and  C_22
REMARK    2  A    between atoms: N_3  and  C_4
REMARK    3  A    between atoms: C_4  and  C_5
REMARK    4  A    between atoms: C_8  and  C_9
REMARK    5  A    between atoms: C_9  and  N_10
REMARK    6  A    between atoms: N_10  and  C_11
REMARK    7  A    between atoms: C_11  and  C_12
REMARK    8  A    between atoms: C_12  and  O_13
REMARK                            x       y       z     vdW  Elec       q    Type
REMARK                         _______ _______ _______ _____ _____    ______ ____
ROOT
ATOM      1  C   UNL     1      48.736   7.038  13.327  0.00  0.00    +0.000 A 
ATOM      2  C   UNL     1      48.521   7.517  12.029  0.00  0.00    +0.000 A 
ATOM      3  C   UNL     1      47.435   7.064  11.272  0.00  0.00    +0.000 A 
ATOM      4  C   UNL     1      46.514   6.155  11.817  0.00  0.00    +0.000 A 
ATOM      5  C   UNL     1      46.788   5.595  13.071  0.00  0.00    +0.000 A 
ATOM      6  C   UNL     1      47.886   6.038  13.822  0.00  0.00    +0.000 A 
ENDROOT
BRANCH   1   7
ATOM      7  C   UNL     1      49.816   7.649  14.186  0.00  0.00    +0.000 C 
BRANCH   7  10
ATOM      8  O   UNL     1      48.148   9.038  15.995  0.00  0.00    +0.000 OA
ATOM      9  C   UNL     1      48.770   8.062  16.402  0.00  0.00    +0.000 C 
ATOM     10  N   UNL     1      49.620   7.347  15.589  0.00  0.00    +0.000 N 
ATOM     11  H   UNL     1      50.016   6.478  15.928  0.00  0.00    +0.000 HD
BRANCH   9  12
ATOM     12  C   UNL     1      48.677   7.635  17.809  0.00  0.00    +0.000 A 
ATOM     13  C   UNL     1      48.467   8.586  18.802  0.00  0.00    +0.000 A 
ATOM     14  S   UNL     1      48.368   7.935  20.375  0.00  0.00    +0.000 S 
ATOM     15  C   UNL     1      48.562   6.350  19.788  0.00  0.00    +0.000 A 
ATOM     16  N   UNL     1      48.524   5.287  20.637  0.00  0.00    +0.000 NA
ATOM     17  C   UNL     1      48.637   4.137  20.056  0.00  0.00    +0.000 A 
ATOM     18  N   UNL     1      48.808   3.960  18.709  0.00  0.00    +0.000 N 
ATOM     19  C   UNL     1      48.929   5.006  17.828  0.00  0.00    +0.000 A 
ATOM     20  O   UNL     1      49.217   4.815  16.648  0.00  0.00    +0.000 OA
ATOM     21  C   UNL     1      48.742   6.321  18.415  0.00  0.00    +0.000 A 
ATOM     22  H   UNL     1      48.939   3.035  18.325  0.00  0.00    +0.000 HD
ENDBRANCH   9  12
ENDBRANCH   7  10
ENDBRANCH   1   7
BRANCH   4  23
ATOM     23  C   UNL     1      45.140   6.029  11.190  0.00  0.00    +0.000 C 
BRANCH  23  24
ATOM     24  N   UNL     1      44.591   4.677  11.055  0.00  0.00    +0.000 N 
ATOM     25  C   UNL     1      45.041   3.979   9.905  0.00  0.00    +0.000 A 
ATOM     26  C   UNL     1      45.593   4.626   8.788  0.00  0.00    +0.000 A 
ATOM     27  C   UNL     1      46.106   3.888   7.720  0.00  0.00    +0.000 A 
ATOM     28  C   UNL     1      46.046   2.512   7.763  0.00  0.00    +0.000 A 
ATOM     29  C   UNL     1      45.442   1.934   8.868  0.00  0.00    +0.000 A 
ATOM     30  N   UNL     1      44.935   2.633   9.912  0.00  0.00    +0.000 NA
BRANCH  24  31
ATOM     31  C   UNL     1      43.117   4.552  11.165  0.00  0.00    +0.000 C 
BRANCH  31  32
ATOM     32  C   UNL     1      42.474   5.634  12.046  0.00  0.00    +0.000 C 
BRANCH  32  33
ATOM     33  O   UNL     1      42.595   5.340  13.436  0.00  0.00    +0.000 OA
ATOM     34  H   UNL     1      42.324   4.409  13.529  0.00  0.00    +0.000 HD
ENDBRANCH  32  33
ENDBRANCH  31  32
ENDBRANCH  24  31
ENDBRANCH  23  24
ENDBRANCH   4  23
TORSDOF 8
ENDMDL
MODEL 3
REMARK VINA RESULT:    -7.403      2.554      3.791
REMARK INTER + INTRA:         -11.792
REMARK INTER:                 -10.428
REMARK INTRA:                  -1.364
REMARK UNBOUND:                -1.143
REMARK  Name = 
REMARK  8 active torsions:
REMARK  status: ('A' for Active; 'I' for Inactive)
REMARK    1  A    between atoms: C_2  and  C_22
REMARK    2  A    between atoms: N_3  and  C_4
REMARK    3  A    between atoms: C_4  and  C_5
REMARK    4  A    between atoms: C_8  and  C_9
REMARK    5  A    between atoms: C_9  and  N_10
REMARK    6  A    between atoms: N_10  and  C_11
REMARK    7  A    between atoms: C_11  and  C_12
REMARK    8  A    between atoms: C_12  and  O_13
REMARK                            x       y       z     vdW  Elec       q    Type
REMARK                         _______ _______ _______ _____ _____    ______ ____
ROOT
ATOM      1  C   UNL     1      48.050   6.735  13.753  0.00  0.00    +0.000 A 
ATOM      2  C   UNL     1      47.279   5.568  13.818  0.00  0.00    +0.000 A 
ATOM      3  C   UNL     1      46.285   5.316  12.867  0.00  0.00    +0.000 A 
ATOM      4  C   UNL     1      46.072   6.206  11.803  0.00  0.00    +0.000 A 
ATOM      5  C   UNL     1      46.766   7.423  11.799  0.00  0.00    +0.000 A 
ATOM      6  C   UNL     1      47.751   7.681  12.762  0.00  0.00    +0.000 A 
ENDROOT
BRANCH   1   7
ATOM      7  C   UNL     1      49.219   6.919  14.690  0.00  0.00    +0.000 C 
BRANCH   7  10
ATOM      8  O   UNL     1      50.750   5.518  16.607  0.00  0.00    +0.000 OA
ATOM      9  C   UNL     1      49.665   5.978  16.947  0.00  0.00    +0.000 C 
ATOM     10  N   UNL     1      48.850   6.653  16.066  0.00  0.00    +0.000 N 
ATOM     11  H   UNL     1      48.024   7.124  16.416  0.00  0.00    +0.000 HD
BRANCH   9  12
ATOM     12  C   UNL     1      49.152   5.785  18.314  0.00  0.00    +0.000 A 
ATOM     13  C   UNL     1      49.321   4.556  18.942  0.00  0.00    +0.000 A 
ATOM     14  S   UNL     1      48.687   4.492  20.524  0.00  0.00    +0.000 S 
ATOM     15  C   UNL     1      48.195   6.119  20.449  0.00  0.00    +0.000 A 
ATOM     16  N   UNL     1      47.610   6.717  21.522  0.00  0.00    +0.000 NA
ATOM     17  C   UNL     1      47.329   7.967  21.347  0.00  0.00    +0.000 A 
ATOM     18  N   UNL     1      47.558   8.661  20.190  0.00  0.00    +0.000 N 
ATOM     19  C   UNL     1      48.075   8.078  19.059  0.00  0.00    +0.000 A 
ATOM     20  O   UNL     1      48.142   8.695  17.998  0.00  0.00    +0.000 OA
ATOM     21  C   UNL     1      48.473   6.691  19.218  0.00  0.00    +0.000 A 
ATOM     22  H   UNL     1      47.270   9.625  20.103  0.00  0.00    +0.000 HD
ENDBRANCH   9  12
ENDBRANCH   7  10
ENDBRANCH   1   7
BRANCH   4  23
ATOM     23  C   UNL     1      45.344   5.720  10.565  0.00  0.00    +0.000 C 
BRANCH  23  24
ATOM     24  N   UNL     1      44.980   4.301  10.522  0.00  0.00    +0.000 N 
ATOM     25  C   UNL     1      45.420   3.622   9.357  0.00  0.00    +0.000 A 
ATOM     26  C   UNL     1      45.777   4.291   8.175  0.00  0.00    +0.000 A 
ATOM     27  C   UNL     1      46.293   3.585   7.087  0.00  0.00    +0.000 A 
ATOM     28  C   UNL     1      46.429   2.216   7.177  0.00  0.00    +0.000 A 
ATOM     29  C   UNL     1      46.010   1.608   8.349  0.00  0.00    +0.000 A 
ATOM     30  N   UNL     1      45.504   2.276   9.414  0.00  0.00    +0.000 NA
BRANCH  24  31
ATOM     31  C   UNL     1      43.552   3.981  10.771  0.00  0.00    +0.000 C 
BRANCH  31  32
ATOM     32  C   UNL     1      43.310   3.256  12.104  0.00  0.00    +0.000 C 
BRANCH  32  33
ATOM     33  O   UNL     1      44.374   2.365  12.434  0.00  0.00    +0.000 OA
ATOM     34  H   UNL     1      44.110   1.944  13.273  0.00  0.00    +0.000 HD
ENDBRANCH  32  33
ENDBRANCH  31  32
ENDBRANCH  24  31
ENDBRANCH  23  24
ENDBRANCH   4  23
TORSDOF 8
ENDMDL
MODEL 4
REMARK VINA RESULT:    -7.012      2.994      8.654
REMARK INTER + INTRA:         -11.230
REMARK INTER:                  -9.560
REMARK INTRA:                  -1.670
REMARK UNBOUND:                -1.143
REMARK  Name = 
REMARK  8 active torsions:
REMARK  status: ('A' for Active; 'I' for Inactive)
REMARK    1  A    between atoms: C_2  and  C_22
REMARK    2  A    between atoms: N_3  and  C_4
REMARK    3  A    between atoms: C_4  and  C_5
REMARK    4  A    between atoms: C_8  and  C_9
REMARK    5  A    between atoms: C_9  and  N_10
REMARK    6  A    between atoms: N_10  and  C_11
REMARK    7  A    between atoms: C_11  and  C_12
REMARK    8  A    between atoms: C_12  and  O_13
REMARK                            x       y       z     vdW  Elec       q    Type
REMARK                         _______ _______ _______ _____ _____    ______ ____
ROOT
ATOM      1  C   UNL     1      48.372   8.090  13.173  0.00  0.00    +0.000 A 
ATOM      2  C   UNL     1      49.601   7.468  13.420  0.00  0.00    +0.000 A 
ATOM      3  C   UNL     1      50.131   7.423  14.713  0.00  0.00    +0.000 A 
ATOM      4  C   UNL     1      49.418   7.961  15.797  0.00  0.00    +0.000 A 
ATOM      5  C   UNL     1      48.243   8.677  15.535  0.00  0.00    +0.000 A 
ATOM      6  C   UNL     1      47.722   8.735  14.235  0.00  0.00    +0.000 A 
ENDROOT
BRANCH   1   7
ATOM      7  C   UNL     1      47.740   7.995  11.805  0.00  0.00    +0.000 C 
BRANCH   7  10
ATOM      8  O   UNL     1      44.947   7.632  12.017  0.00  0.00    +0.000 OA
ATOM      9  C   UNL     1      45.644   6.663  11.734  0.00  0.00    +0.000 C 
ATOM     10  N   UNL     1      47.014   6.754  11.635  0.00  0.00    +0.000 N 
ATOM     11  H   UNL     1      47.539   5.963  11.279  0.00  0.00    +0.000 HD
BRANCH   9  12
ATOM     12  C   UNL     1      45.049   5.330  11.535  0.00  0.00    +0.000 A 
ATOM     13  C   UNL     1      44.354   4.728  12.578  0.00  0.00    +0.000 A 
ATOM     14  S   UNL     1      43.713   3.196  12.190  0.00  0.00    +0.000 S 
ATOM     15  C   UNL     1      44.304   3.293  10.598  0.00  0.00    +0.000 A 
ATOM     16  N   UNL     1      44.054   2.299   9.703  0.00  0.00    +0.000 NA
ATOM     17  C   UNL     1      44.520   2.520   8.517  0.00  0.00    +0.000 A 
ATOM     18  N   UNL     1      45.231   3.632   8.157  0.00  0.00    +0.000 N 
ATOM     19  C   UNL     1      45.572   4.622   9.046  0.00  0.00    +0.000 A 
ATOM     20  O   UNL     1      46.325   5.538   8.722  0.00  0.00    +0.000 OA
ATOM     21  C   UNL     1      45.017   4.460  10.378  0.00  0.00    +0.000 A 
ATOM     22  H   UNL     1      45.609   3.721   7.224  0.00  0.00    +0.000 HD
ENDBRANCH   9  12
ENDBRANCH   7  10
ENDBRANCH   1   7
BRANCH   4  23
ATOM     23  C   UNL     1      49.763   7.516  17.204  0.00  0.00    +0.000 C 
BRANCH  23  24
ATOM     24  N   UNL     1      50.346   6.180  17.355  0.00  0.00    +0.000 N 
ATOM     25  C   UNL     1      49.392   5.129  17.386  0.00  0.00    +0.000 A 
ATOM     26  C   UNL     1      48.036   5.340  17.681  0.00  0.00    +0.000 A 
ATOM     27  C   UNL     1      47.121   4.289  17.607  0.00  0.00    +0.000 A 
ATOM     28  C   UNL     1      47.567   3.031  17.262  0.00  0.00    +0.000 A 
ATOM     29  C   UNL     1      48.925   2.876  17.035  0.00  0.00    +0.000 A 
ATOM     30  N   UNL     1      49.829   3.883  17.105  0.00  0.00    +0.000 NA
BRANCH  24  31
ATOM     31  C   UNL     1      51.311   6.005  18.469  0.00  0.00    +0.000 C 
BRANCH  31  32
ATOM     32  C   UNL     1      52.743   5.711  17.997  0.00  0.00    +0.000 C 
BRANCH  32  33
ATOM     33  O   UNL     1      52.897   4.366  17.545  0.00  0.00    +0.000 OA
ATOM     34  H   UNL     1      51.998   3.991  17.535  0.00  0.00    +0.000 HD
ENDBRANCH  32  33
ENDBRANCH  31  32
ENDBRANCH  24  31
ENDBRANCH  23  24
ENDBRANCH   4  23
TORSDOF 8
ENDMDL
MODEL 5
REMARK VINA RESULT:    -6.704      3.407      9.160
REMARK INTER + INTRA:         -10.787
REMARK INTER:                  -9.369
REMARK INTRA:                  -1.417
REMARK UNBOUND:                -1.143
REMARK  Name = 
REMARK  8 active torsions:
REMARK  status: ('A' for Active; 'I' for Inactive)
REMARK    1  A    between atoms: C_2  and  C_22
REMARK    2  A    between atoms: N_3  and  C_4
REMARK    3  A    between atoms: C_4  and  C_5
REMARK    4  A    between atoms: C_8  and  C_9
REMARK    5  A    between atoms: C_9  and  N_10
REMARK    6  A    between atoms: N_10  and  C_11
REMARK    7  A    between atoms: C_11  and  C_12
REMARK    8  A    between atoms: C_12  and  O_13
REMARK                            x       y       z     vdW  Elec       q    Type
REMARK                         _______ _______ _______ _____ _____    ______ ____
ROOT
ATOM      1  C   UNL     1      48.280   8.080  13.227  0.00  0.00    +0.000 A 
ATOM      2  C   UNL     1      49.447   7.355  13.500  0.00  0.00    +0.000 A 
ATOM      3  C   UNL     1      49.982   7.323  14.791  0.00  0.00    +0.000 A 
ATOM      4  C   UNL     1      49.334   7.980  15.850  0.00  0.00    +0.000 A 
ATOM      5  C   UNL     1      48.231   8.792  15.558  0.00  0.00    +0.000 A 
ATOM      6  C   UNL     1      47.705   8.836  14.259  0.00  0.00    +0.000 A 
ENDROOT
BRANCH   1   7
ATOM      7  C   UNL     1      47.630   7.979  11.869  0.00  0.00    +0.000 C 
BRANCH   7  10
ATOM      8  O   UNL     1      44.829   7.609  11.856  0.00  0.00    +0.000 OA
ATOM      9  C   UNL     1      45.551   6.631  11.689  0.00  0.00    +0.000 C 
ATOM     10  N   UNL     1      46.924   6.725  11.705  0.00  0.00    +0.000 N 
ATOM     11  H   UNL     1      47.479   5.920  11.439  0.00  0.00    +0.000 HD
BRANCH   9  12
ATOM     12  C   UNL     1      44.978   5.285  11.512  0.00  0.00    +0.000 A 
ATOM     13  C   UNL     1      44.279   4.695  12.561  0.00  0.00    +0.000 A 
ATOM     14  S   UNL     1      43.666   3.146  12.199  0.00  0.00    +0.000 S 
ATOM     15  C   UNL     1      44.274   3.217  10.612  0.00  0.00    +0.000 A 
ATOM     16  N   UNL     1      44.049   2.200   9.736  0.00  0.00    +0.000 NA
ATOM     17  C   UNL     1      44.525   2.403   8.551  0.00  0.00    +0.000 A 
ATOM     18  N   UNL     1      45.224   3.517   8.174  0.00  0.00    +0.000 N 
ATOM     19  C   UNL     1      45.540   4.531   9.045  0.00  0.00    +0.000 A 
ATOM     20  O   UNL     1      46.283   5.451   8.710  0.00  0.00    +0.000 OA
ATOM     21  C   UNL     1      44.972   4.389  10.374  0.00  0.00    +0.000 A 
ATOM     22  H   UNL     1      45.611   3.591   7.244  0.00  0.00    +0.000 HD
ENDBRANCH   9  12
ENDBRANCH   7  10
ENDBRANCH   1   7
BRANCH   4  23
ATOM     23  C   UNL     1      49.648   7.573  17.276  0.00  0.00    +0.000 C 
BRANCH  23  24
ATOM     24  N   UNL     1      48.721   6.639  17.920  0.00  0.00    +0.000 N 
ATOM     25  C   UNL     1      48.599   6.815  19.323  0.00  0.00    +0.000 A 
ATOM     26  C   UNL     1      49.557   7.495  20.092  0.00  0.00    +0.000 A 
ATOM     27  C   UNL     1      49.345   7.723  21.452  0.00  0.00    +0.000 A 
ATOM     28  C   UNL     1      48.191   7.253  22.041  0.00  0.00    +0.000 A 
ATOM     29  C   UNL     1      47.309   6.543  21.242  0.00  0.00    +0.000 A 
ATOM     30  N   UNL     1      47.500   6.309  19.921  0.00  0.00    +0.000 NA
BRANCH  24  31
ATOM     31  C   UNL     1      48.923   5.200  17.618  0.00  0.00    +0.000 C 
BRANCH  31  32
ATOM     32  C   UNL     1      47.728   4.552  16.901  0.00  0.00    +0.000 C 
BRANCH  32  33
ATOM     33  O   UNL     1      46.574   4.475  17.737  0.00  0.00    +0.000 OA
ATOM     34  H   UNL     1      45.891   5.003  17.285  0.00  0.00    +0.000 HD
ENDBRANCH  32  33
ENDBRANCH  31  32
ENDBRANCH  24  31
ENDBRANCH  23  24
ENDBRANCH   4  23
TORSDOF 8
ENDMDL
MODEL 6
REMARK VINA RESULT:    -6.607      3.305      8.074
REMARK INTER + INTRA:         -10.646
REMARK INTER:                  -9.572
REMARK INTRA:                  -1.075
REMARK UNBOUND:                -1.143
REMARK  Name = 
REMARK  8 active torsions:
REMARK  status: ('A' for Active; 'I' for Inactive)
REMARK    1  A    between atoms: C_2  and  C_22
REMARK    2  A    between atoms: N_3  and  C_4
REMARK    3  A    between atoms: C_4  and  C_5
REMARK    4  A    between atoms: C_8  and  C_9
REMARK    5  A    between atoms: C_9  and  N_10
REMARK    6  A    between atoms: N_10  and  C_11
REMARK    7  A    between atoms: C_11  and  C_12
REMARK    8  A    between atoms: C_12  and  O_13
REMARK                            x       y       z     vdW  Elec       q    Type
REMARK                         _______ _______ _______ _____ _____    ______ ____
ROOT
ATOM      1  C   UNL     1      49.602   8.221  16.273  0.00  0.00    +0.000 A 
ATOM      2  C   UNL     1      50.472   7.377  15.573  0.00  0.00    +0.000 A 
ATOM      3  C   UNL     1      51.314   6.494  16.256  0.00  0.00    +0.000 A 
ATOM      4  C   UNL     1      51.270   6.403  17.656  0.00  0.00    +0.000 A 
ATOM      5  C   UNL     1      50.480   7.321  18.361  0.00  0.00    +0.000 A 
ATOM      6  C   UNL     1      49.649   8.217  17.675  0.00  0.00    +0.000 A 
ENDROOT
BRANCH   1   7
ATOM      7  C   UNL     1      48.593   9.054  15.522  0.00  0.00    +0.000 C 
BRANCH   7  10
ATOM      8  O   UNL     1      48.204   8.896  12.728  0.00  0.00    +0.000 OA
ATOM      9  C   UNL     1      47.512   8.192  13.457  0.00  0.00    +0.000 C 
ATOM     10  N   UNL     1      47.626   8.229  14.829  0.00  0.00    +0.000 N 
ATOM     11  H   UNL     1      47.127   7.545  15.386  0.00  0.00    +0.000 HD
BRANCH   9  12
ATOM     12  C   UNL     1      46.481   7.302  12.898  0.00  0.00    +0.000 A 
ATOM     13  C   UNL     1      45.496   7.830  12.070  0.00  0.00    +0.000 A 
ATOM     14  S   UNL     1      44.383   6.674  11.491  0.00  0.00    +0.000 S 
ATOM     15  C   UNL     1      45.197   5.413  12.291  0.00  0.00    +0.000 A 
ATOM     16  N   UNL     1      44.775   4.125  12.167  0.00  0.00    +0.000 NA
ATOM     17  C   UNL     1      45.509   3.261  12.788  0.00  0.00    +0.000 A 
ATOM     18  N   UNL     1      46.610   3.574  13.539  0.00  0.00    +0.000 N 
ATOM     19  C   UNL     1      47.026   4.864  13.753  0.00  0.00    +0.000 A 
ATOM     20  O   UNL     1      47.936   5.118  14.541  0.00  0.00    +0.000 OA
ATOM     21  C   UNL     1      46.278   5.873  13.025  0.00  0.00    +0.000 A 
ATOM     22  H   UNL     1      47.113   2.853  14.038  0.00  0.00    +0.000 HD
ENDBRANCH   9  12
ENDBRANCH   7  10
ENDBRANCH   1   7
BRANCH   4  23
ATOM     23  C   UNL     1      51.823   5.167  18.336  0.00  0.00    +0.000 C 
BRANCH  23  24
ATOM     24  N   UNL     1      51.529   3.875  17.709  0.00  0.00    +0.000 N 
ATOM     25  C   UNL     1      50.148   3.557  17.654  0.00  0.00    +0.000 A 
ATOM     26  C   UNL     1      49.190   4.171  18.477  0.00  0.00    +0.000 A 
ATOM     27  C   UNL     1      47.832   3.891  18.318  0.00  0.00    +0.000 A 
ATOM     28  C   UNL     1      47.440   2.986  17.357  0.00  0.00    +0.000 A 
ATOM     29  C   UNL     1      48.435   2.373  16.613  0.00  0.00    +0.000 A 
ATOM     30  N   UNL     1      49.758   2.629  16.754  0.00  0.00    +0.000 NA
BRANCH  24  31
ATOM     31  C   UNL     1      52.285   2.707  18.225  0.00  0.00    +0.000 C 
BRANCH  31  32
ATOM     32  C   UNL     1      52.137   1.450  17.354  0.00  0.00    +0.000 C 
BRANCH  32  33
ATOM     33  O   UNL     1      51.523   0.373  18.060  0.00  0.00    +0.000 OA
ATOM     34  H   UNL     1      51.783   0.491  18.992  0.00  0.00    +0.000 HD
ENDBRANCH  32  33
ENDBRANCH  31  32
ENDBRANCH  24  31
ENDBRANCH  23  24
ENDBRANCH   4  23
TORSDOF 8
ENDMDL
MODEL 7
REMARK VINA RESULT:    -6.232      3.301      8.710
REMARK INTER + INTRA:         -10.108
REMARK INTER:                  -8.757
REMARK INTRA:                  -1.351
REMARK UNBOUND:                -1.143
REMARK  Name = 
REMARK  8 active torsions:
REMARK  status: ('A' for Active; 'I' for Inactive)
REMARK    1  A    between atoms: C_2  and  C_22
REMARK    2  A    between atoms: N_3  and  C_4
REMARK    3  A    between atoms: C_4  and  C_5
REMARK    4  A    between atoms: C_8  and  C_9
REMARK    5  A    between atoms: C_9  and  N_10
REMARK    6  A    between atoms: N_10  and  C_11
REMARK    7  A    between atoms: C_11  and  C_12
REMARK    8  A    between atoms: C_12  and  O_13
REMARK                            x       y       z     vdW  Elec       q    Type
REMARK                         _______ _______ _______ _____ _____    ______ ____
ROOT
ATOM      1  C   UNL     1      48.893   8.528  15.360  0.00  0.00    +0.000 A 
ATOM      2  C   UNL     1      50.066   7.763  15.330  0.00  0.00    +0.000 A 
ATOM      3  C   UNL     1      50.677   7.347  16.517  0.00  0.00    +0.000 A 
ATOM      4  C   UNL     1      50.101   7.650  17.761  0.00  0.00    +0.000 A 
ATOM      5  C   UNL     1      48.991   8.505  17.795  0.00  0.00    +0.000 A 
ATOM      6  C   UNL     1      48.390   8.934  16.604  0.00  0.00    +0.000 A 
ENDROOT
BRANCH   1   7
ATOM      7  C   UNL     1      48.162   8.836  14.076  0.00  0.00    +0.000 C 
BRANCH   7  10
ATOM      8  O   UNL     1      48.640   6.604  12.411  0.00  0.00    +0.000 OA
ATOM      9  C   UNL     1      47.534   6.723  12.930  0.00  0.00    +0.000 C 
ATOM     10  N   UNL     1      47.216   7.794  13.734  0.00  0.00    +0.000 N 
ATOM     11  H   UNL     1      46.338   7.790  14.241  0.00  0.00    +0.000 HD
BRANCH   9  12
ATOM     12  C   UNL     1      46.465   5.743  12.672  0.00  0.00    +0.000 A 
ATOM     13  C   UNL     1      46.667   4.406  13.001  0.00  0.00    +0.000 A 
ATOM     14  S   UNL     1      45.335   3.399  12.656  0.00  0.00    +0.000 S 
ATOM     15  C   UNL     1      44.418   4.716  12.091  0.00  0.00    +0.000 A 
ATOM     16  N   UNL     1      43.133   4.541  11.677  0.00  0.00    +0.000 NA
ATOM     17  C   UNL     1      42.536   5.630  11.317  0.00  0.00    +0.000 A 
ATOM     18  N   UNL     1      43.117   6.869  11.311  0.00  0.00    +0.000 N 
ATOM     19  C   UNL     1      44.432   7.079  11.647  0.00  0.00    +0.000 A 
ATOM     20  O   UNL     1      44.958   8.181  11.501  0.00  0.00    +0.000 OA
ATOM     21  C   UNL     1      45.133   5.901  12.125  0.00  0.00    +0.000 A 
ATOM     22  H   UNL     1      42.608   7.673  10.972  0.00  0.00    +0.000 HD
ENDBRANCH   9  12
ENDBRANCH   7  10
ENDBRANCH   1   7
BRANCH   4  23
ATOM     23  C   UNL     1      50.495   6.835  18.977  0.00  0.00    +0.000 C 
BRANCH  23  24
ATOM     24  N   UNL     1      50.800   5.419  18.758  0.00  0.00    +0.000 N 
ATOM     25  C   UNL     1      49.697   4.650  18.304  0.00  0.00    +0.000 A 
ATOM     26  C   UNL     1      48.365   5.065  18.456  0.00  0.00    +0.000 A 
ATOM     27  C   UNL     1      47.321   4.317  17.909  0.00  0.00    +0.000 A 
ATOM     28  C   UNL     1      47.610   3.151  17.233  0.00  0.00    +0.000 A 
ATOM     29  C   UNL     1      48.940   2.767  17.163  0.00  0.00    +0.000 A 
ATOM     30  N   UNL     1      49.966   3.478  17.691  0.00  0.00    +0.000 NA
BRANCH  24  31
ATOM     31  C   UNL     1      51.470   4.710  19.876  0.00  0.00    +0.000 C 
BRANCH  31  32
ATOM     32  C   UNL     1      52.800   4.054  19.475  0.00  0.00    +0.000 C 
BRANCH  32  33
ATOM     33  O   UNL     1      52.630   2.700  19.059  0.00  0.00    +0.000 OA
ATOM     34  H   UNL     1      52.447   2.198  19.874  0.00  0.00    +0.000 HD
ENDBRANCH  32  33
ENDBRANCH  31  32
ENDBRANCH  24  31
ENDBRANCH  23  24
ENDBRANCH   4  23
TORSDOF 8
ENDMDL
MODEL 8
REMARK VINA RESULT:    -6.219      3.529      8.300
REMARK INTER + INTRA:         -10.089
REMARK INTER:                  -8.523
REMARK INTRA:                  -1.566
REMARK UNBOUND:                -1.143
REMARK  Name = 
REMARK  8 active torsions:
REMARK  status: ('A' for Active; 'I' for Inactive)
REMARK    1  A    between atoms: C_2  and  C_22
REMARK    2  A    between atoms: N_3  and  C_4
REMARK    3  A    between atoms: C_4  and  C_5
REMARK    4  A    between atoms: C_8  and  C_9
REMARK    5  A    between atoms: C_9  and  N_10
REMARK    6  A    between atoms: N_10  and  C_11
REMARK    7  A    between atoms: C_11  and  C_12
REMARK    8  A    between atoms: C_12  and  O_13
REMARK                            x       y       z     vdW  Elec       q    Type
REMARK                         _______ _______ _______ _____ _____    ______ ____
ROOT
ATOM      1  C   UNL     1      48.989   8.884  15.413  0.00  0.00    +0.000 A 
ATOM      2  C   UNL     1      50.190   8.218  15.683  0.00  0.00    +0.000 A 
ATOM      3  C   UNL     1      50.476   7.756  16.971  0.00  0.00    +0.000 A 
ATOM      4  C   UNL     1      49.543   7.912  18.009  0.00  0.00    +0.000 A 
ATOM      5  C   UNL     1      48.392   8.672  17.766  0.00  0.00    +0.000 A 
ATOM      6  C   UNL     1      48.115   9.148  16.477  0.00  0.00    +0.000 A 
ENDROOT
BRANCH   1   7
ATOM      7  C   UNL     1      48.626   9.237  13.991  0.00  0.00    +0.000 C 
BRANCH   7  10
ATOM      8  O   UNL     1      48.608   6.837  12.500  0.00  0.00    +0.000 OA
ATOM      9  C   UNL     1      47.534   7.330  12.832  0.00  0.00    +0.000 C 
ATOM     10  N   UNL     1      47.459   8.509  13.538  0.00  0.00    +0.000 N 
ATOM     11  H   UNL     1      46.562   8.814  13.898  0.00  0.00    +0.000 HD
BRANCH   9  12
ATOM     12  C   UNL     1      46.259   6.705  12.441  0.00  0.00    +0.000 A 
ATOM     13  C   UNL     1      45.275   7.478  11.832  0.00  0.00    +0.000 A 
ATOM     14  S   UNL     1      43.864   6.610  11.427  0.00  0.00    +0.000 S 
ATOM     15  C   UNL     1      44.527   5.156  12.011  0.00  0.00    +0.000 A 
ATOM     16  N   UNL     1      43.832   3.990  11.918  0.00  0.00    +0.000 NA
ATOM     17  C   UNL     1      44.469   2.954  12.356  0.00  0.00    +0.000 A 
ATOM     18  N   UNL     1      45.725   2.986  12.899  0.00  0.00    +0.000 N 
ATOM     19  C   UNL     1      46.430   4.150  13.083  0.00  0.00    +0.000 A 
ATOM     20  O   UNL     1      47.496   4.159  13.696  0.00  0.00    +0.000 OA
ATOM     21  C   UNL     1      45.791   5.338  12.547  0.00  0.00    +0.000 A 
ATOM     22  H   UNL     1      46.147   2.145  13.267  0.00  0.00    +0.000 HD
ENDBRANCH   9  12
ENDBRANCH   7  10
ENDBRANCH   1   7
BRANCH   4  23
ATOM     23  C   UNL     1      49.653   7.034  19.241  0.00  0.00    +0.000 C 
BRANCH  23  24
ATOM     24  N   UNL     1      50.188   5.683  19.049  0.00  0.00    +0.000 N 
ATOM     25  C   UNL     1      49.294   4.789  18.406  0.00  0.00    +0.000 A 
ATOM     26  C   UNL     1      47.909   5.009  18.344  0.00  0.00    +0.000 A 
ATOM     27  C   UNL     1      47.084   4.148  17.620  0.00  0.00    +0.000 A 
ATOM     28  C   UNL     1      47.641   3.062  16.980  0.00  0.00    +0.000 A 
ATOM     29  C   UNL     1      49.005   2.868  17.123  0.00  0.00    +0.000 A 
ATOM     30  N   UNL     1      49.821   3.691  17.824  0.00  0.00    +0.000 NA
BRANCH  24  31
ATOM     31  C   UNL     1      50.765   5.028  20.249  0.00  0.00    +0.000 C 
BRANCH  31  32
ATOM     32  C   UNL     1      52.258   4.695  20.107  0.00  0.00    +0.000 C 
BRANCH  32  33
ATOM     33  O   UNL     1      52.471   3.419  19.505  0.00  0.00    +0.000 OA
ATOM     34  H   UNL     1      52.824   2.852  20.215  0.00  0.00    +0.000 HD
ENDBRANCH  32  33
ENDBRANCH  31  32
ENDBRANCH  24  31
ENDBRANCH  23  24
ENDBRANCH   4  23
TORSDOF 8
ENDMDL
MODEL 9
REMARK VINA RESULT:    -6.039      3.613      9.738
REMARK INTER + INTRA:          -9.831
REMARK INTER:                  -8.799
REMARK INTRA:                  -1.032
REMARK UNBOUND:                -1.143
REMARK  Name = 
REMARK  8 active torsions:
REMARK  status: ('A' for Active; 'I' for Inactive)
REMARK    1  A    between atoms: C_2  and  C_22
REMARK    2  A    between atoms: N_3  and  C_4
REMARK    3  A    between atoms: C_4  and  C_5
REMARK    4  A    between atoms: C_8  and  C_9
REMARK    5  A    between atoms: C_9  and  N_10
REMARK    6  A    between atoms: N_10  and  C_11
REMARK    7  A    between atoms: C_11  and  C_12
REMARK    8  A    between atoms: C_12  and  O_13
REMARK                            x       y       z     vdW  Elec       q    Type
REMARK                         _______ _______ _______ _____ _____    ______ ____
ROOT
ATOM      1  C   UNL     1      49.369   6.705  15.936  0.00  0.00    +0.000 A 
ATOM      2  C   UNL     1      48.445   5.848  16.544  0.00  0.00    +0.000 A 
ATOM      3  C   UNL     1      48.853   4.941  17.528  0.00  0.00    +0.000 A 
ATOM      4  C   UNL     1      50.189   4.905  17.956  0.00  0.00    +0.000 A 
ATOM      5  C   UNL     1      51.132   5.684  17.273  0.00  0.00    +0.000 A 
ATOM      6  C   UNL     1      50.724   6.581  16.276  0.00  0.00    +0.000 A 
ENDROOT
BRANCH   1   7
ATOM      7  C   UNL     1      48.891   7.782  14.992  0.00  0.00    +0.000 C 
BRANCH   7  10
ATOM      8  O   UNL     1      48.652   6.053  12.770  0.00  0.00    +0.000 OA
ATOM      9  C   UNL     1      47.631   6.532  13.253  0.00  0.00    +0.000 C 
ATOM     10  N   UNL     1      47.666   7.400  14.321  0.00  0.00    +0.000 N 
ATOM     11  H   UNL     1      46.797   7.673  14.766  0.00  0.00    +0.000 HD
BRANCH   9  12
ATOM     12  C   UNL     1      46.308   6.240  12.675  0.00  0.00    +0.000 A 
ATOM     13  C   UNL     1      45.573   7.267  12.092  0.00  0.00    +0.000 A 
ATOM     14  S   UNL     1      44.071   6.769  11.456  0.00  0.00    +0.000 S 
ATOM     15  C   UNL     1      44.360   5.152  11.898  0.00  0.00    +0.000 A 
ATOM     16  N   UNL     1      43.460   4.177  11.592  0.00  0.00    +0.000 NA
ATOM     17  C   UNL     1      43.824   2.987  11.943  0.00  0.00    +0.000 A 
ATOM     18  N   UNL     1      44.993   2.691  12.592  0.00  0.00    +0.000 N 
ATOM     19  C   UNL     1      45.891   3.651  12.987  0.00  0.00    +0.000 A 
ATOM     20  O   UNL     1      46.863   3.366  13.685  0.00  0.00    +0.000 OA
ATOM     21  C   UNL     1      45.567   5.001  12.559  0.00  0.00    +0.000 A 
ATOM     22  H   UNL     1      45.194   1.745  12.881  0.00  0.00    +0.000 HD
ENDBRANCH   9  12
ENDBRANCH   7  10
ENDBRANCH   1   7
BRANCH   4  23
ATOM     23  C   UNL     1      50.521   4.274  19.294  0.00  0.00    +0.000 C 
BRANCH  23  24
ATOM     24  N   UNL     1      50.786   5.184  20.411  0.00  0.00    +0.000 N 
ATOM     25  C   UNL     1      52.132   5.177  20.860  0.00  0.00    +0.000 A 
ATOM     26  C   UNL     1      53.022   4.127  20.585  0.00  0.00    +0.000 A 
ATOM     27  C   UNL     1      54.361   4.211  20.969  0.00  0.00    +0.000 A 
ATOM     28  C   UNL     1      54.799   5.331  21.643  0.00  0.00    +0.000 A 
ATOM     29  C   UNL     1      53.861   6.309  21.932  0.00  0.00    +0.000 A 
ATOM     30  N   UNL     1      52.557   6.244  21.570  0.00  0.00    +0.000 NA
BRANCH  24  31
ATOM     31  C   UNL     1      49.875   5.076  21.578  0.00  0.00    +0.000 C 
BRANCH  31  32
ATOM     32  C   UNL     1      48.413   5.415  21.247  0.00  0.00    +0.000 C 
BRANCH  32  33
ATOM     33  O   UNL     1      47.493   4.611  21.983  0.00  0.00    +0.000 OA
ATOM     34  H   UNL     1      46.925   5.241  22.463  0.00  0.00    +0.000 HD
ENDBRANCH  32  33
ENDBRANCH  31  32
ENDBRANCH  24  31
ENDBRANCH  23  24
ENDBRANCH   4  23
TORSDOF 8
ENDMDL
