MODEL 1
REMARK VINA RESULT:    -8.951      0.000      0.000
REMARK INTER + INTRA:         -15.031
REMARK INTER:                 -13.398
REMARK INTRA:                  -1.633
REMARK UNBOUND:                -1.633
REMARK  Name = 
REMARK  10 active torsions:
REMARK  status: ('A' for Active; 'I' for Inactive)
REMARK    1  A    between atoms: C_1  and  C_2
REMARK    2  A    between atoms: C_2  and  C_3
REMARK    3  A    between atoms: C_2  and  N_10
REMARK    4  A    between atoms: C_3  and  C_4
REMARK    5  A    between atoms: N_10  and  C_11
REMARK    6  A    between atoms: C_14  and  C_15
REMARK    7  A    between atoms: C_15  and  N_16
REMARK    8  A    between atoms: C_17  and  C_19
REMARK    9  A    between atoms: C_30  and  C_31
REMARK   10  A    between atoms: C_31  and  O_33
REMARK                            x       y       z     vdW  Elec       q    Type
REMARK                         _______ _______ _______ _____ _____    ______ ____
ROOT
ATOM      1  C   UNL     1      44.915   5.506  10.849  0.00  0.00    +0.000 A 
ATOM      2  C   UNL     1      46.182   5.994  10.491  0.00  0.00    +0.000 A 
ATOM      3  C   UNL     1      46.891   6.878  11.311  0.00  0.00    +0.000 A 
ATOM      4  C   UNL     1      46.338   7.346  12.504  0.00  0.00    +0.000 A 
ATOM      5  C   UNL     1      45.033   6.962  12.823  0.00  0.00    +0.000 A 
ATOM      6  C   UNL     1      44.323   6.052  12.014  0.00  0.00    +0.000 A 
ENDROOT
BRANCH   1   7
ATOM      7  N   UNL     1      44.181   4.624  10.018  0.00  0.00    +0.000 N 
ATOM      8  H   UNL     1      44.520   4.746   9.057  0.00  0.00    +0.000 HD
BRANCH   7  10
ATOM      9  C   UNL     1      45.127   2.836  11.446  0.00  0.00    +0.000 C 
ATOM     10  C   UNL     1      44.103   3.179  10.363  0.00  0.00    +0.000 C 
BRANCH  10  11
ATOM     11  C   UNL     1      44.220   2.300   9.094  0.00  0.00    +0.000 C 
BRANCH  11  12
ATOM     12  C   UNL     1      45.478   2.421   8.267  0.00  0.00    +0.000 A 
ATOM     13  C   UNL     1      45.887   3.647   7.721  0.00  0.00    +0.000 A 
ATOM     14  C   UNL     1      47.046   3.741   6.949  0.00  0.00    +0.000 A 
ATOM     15  C   UNL     1      47.839   2.616   6.747  0.00  0.00    +0.000 A 
ATOM     16  C   UNL     1      47.469   1.399   7.319  0.00  0.00    +0.000 A 
ATOM     17  C   UNL     1      46.297   1.301   8.071  0.00  0.00    +0.000 A 
ENDBRANCH  11  12
ENDBRANCH  10  11
ENDBRANCH   7  10
ENDBRANCH   1   7
BRANCH   6  18
ATOM     18  C   UNL     1      42.955   5.699  12.489  0.00  0.00    +0.000 C 
ATOM     19  O   UNL     1      42.755   4.962  13.442  0.00  0.00    +0.000 OA
BRANCH  18  20
ATOM     20  O   UNL     1      41.957   6.202  11.733  0.00  0.00    +0.000 OA
ATOM     21  H   UNL     1      41.501   6.953  12.180  0.00  0.00    +0.000 HD
ENDBRANCH  18  20
ENDBRANCH   6  18
BRANCH   4  22
ATOM     22  C   UNL     1      47.109   8.276  13.398  0.00  0.00    +0.000 C 
BRANCH  22  23
ATOM     23  N   UNL     1      47.520   7.610  14.607  0.00  0.00    +0.000 N 
ATOM     24  C   UNL     1      48.728   6.967  14.682  0.00  0.00    +0.000 C 
ATOM     25  O   UNL     1      49.535   6.992  13.756  0.00  0.00    +0.000 OA
ATOM     26  H   UNL     1      46.794   7.387  15.282  0.00  0.00    +0.000 HD
BRANCH  24  27
ATOM     27  C   UNL     1      49.038   6.293  15.949  0.00  0.00    +0.000 A 
ATOM     28  C   UNL     1      50.070   6.773  16.745  0.00  0.00    +0.000 A 
ATOM     29  S   UNL     1      50.272   5.908  18.200  0.00  0.00    +0.000 S 
ATOM     30  C   UNL     1      49.024   4.826  17.793  0.00  0.00    +0.000 A 
ATOM     31  N   UNL     1      48.699   3.793  18.618  0.00  0.00    +0.000 NA
ATOM     32  C   UNL     1      47.761   3.028  18.169  0.00  0.00    +0.000 A 
ATOM     33  N   UNL     1      47.109   3.208  16.976  0.00  0.00    +0.000 N 
ATOM     34  C   UNL     1      47.369   4.265  16.135  0.00  0.00    +0.000 A 
ATOM     35  O   UNL     1      46.712   4.443  15.115  0.00  0.00    +0.000 OA
ATOM     36  C   UNL     1      48.440   5.138  16.578  0.00  0.00    +0.000 A 
ATOM     37  H   UNL     1      46.372   2.580  16.690  0.00  0.00    +0.000 HD
ENDBRANCH  24  27
ENDBRANCH  22  23
ENDBRANCH   4  22
TORSDOF 9
ENDMDL
MODEL 2
REMARK VINA RESULT:    -8.341      2.506      3.259
REMARK INTER + INTRA:         -14.119
REMARK INTER:                 -12.250
REMARK INTRA:                  -1.868
REMARK UNBOUND:                -1.633
REMARK  Name = 
REMARK  10 active torsions:
REMARK  status: ('A' for Active; 'I' for Inactive)
REMARK    1  A    between atoms: C_1  and  C_2
REMARK    2  A    between atoms: C_2  and  C_3
REMARK    3  A    between atoms: C_2  and  N_10
REMARK    4  A    between atoms: C_3  and  C_4
REMARK    5  A    between atoms: N_10  and  C_11
REMARK    6  A    between atoms: C_14  and  C_15
REMARK    7  A    between atoms: C_15  and  N_16
REMARK    8  A    between atoms: C_17  and  C_19
REMARK    9  A    between atoms: C_30  and  C_31
REMARK   10  A    between atoms: C_31  and  O_33
REMARK                            x       y       z     vdW  Elec       q    Type
REMARK                         _______ _______ _______ _____ _____    ______ ____
ROOT
ATOM      1  C   UNL     1      45.974   5.232  12.223  0.00  0.00    +0.000 A 
ATOM      2  C   UNL     1      45.774   6.443  11.540  0.00  0.00    +0.000 A 
ATOM      3  C   UNL     1      46.321   7.646  11.996  0.00  0.00    +0.000 A 
ATOM      4  C   UNL     1      47.053   7.693  13.183  0.00  0.00    +0.000 A 
ATOM      5  C   UNL     1      47.167   6.522  13.937  0.00  0.00    +0.000 A 
ATOM      6  C   UNL     1      46.640   5.301  13.470  0.00  0.00    +0.000 A 
ENDROOT
BRANCH   1   7
ATOM      7  N   UNL     1      45.410   4.010  11.778  0.00  0.00    +0.000 N 
ATOM      8  H   UNL     1      45.138   3.471  12.609  0.00  0.00    +0.000 HD
BRANCH   7  10
ATOM      9  C   UNL     1      42.962   4.249  11.488  0.00  0.00    +0.000 C 
ATOM     10  C   UNL     1      44.303   4.027  10.785  0.00  0.00    +0.000 C 
BRANCH  10  11
ATOM     11  C   UNL     1      44.338   2.761   9.895  0.00  0.00    +0.000 C 
BRANCH  11  12
ATOM     12  C   UNL     1      45.373   2.700   8.795  0.00  0.00    +0.000 A 
ATOM     13  C   UNL     1      45.984   1.494   8.423  0.00  0.00    +0.000 A 
ATOM     14  C   UNL     1      46.947   1.456   7.414  0.00  0.00    +0.000 A 
ATOM     15  C   UNL     1      47.282   2.620   6.729  0.00  0.00    +0.000 A 
ATOM     16  C   UNL     1      46.652   3.819   7.059  0.00  0.00    +0.000 A 
ATOM     17  C   UNL     1      45.706   3.861   8.085  0.00  0.00    +0.000 A 
ENDBRANCH  11  12
ENDBRANCH  10  11
ENDBRANCH   7  10
ENDBRANCH   1   7
BRANCH   6  18
ATOM     18  C   UNL     1      46.864   4.123  14.354  0.00  0.00    +0.000 C 
ATOM     19  O   UNL     1      47.220   3.034  13.930  0.00  0.00    +0.000 OA
BRANCH  18  20
ATOM     20  O   UNL     1      46.569   4.338  15.653  0.00  0.00    +0.000 OA
ATOM     21  H   UNL     1      47.320   4.099  16.245  0.00  0.00    +0.000 HD
ENDBRANCH  18  20
ENDBRANCH   6  18
BRANCH   4  22
ATOM     22  C   UNL     1      47.662   8.981  13.663  0.00  0.00    +0.000 C 
BRANCH  22  23
ATOM     23  N   UNL     1      47.423   9.175  15.070  0.00  0.00    +0.000 N 
ATOM     24  C   UNL     1      48.439   9.053  15.981  0.00  0.00    +0.000 C 
ATOM     25  O   UNL     1      49.600   8.846  15.635  0.00  0.00    +0.000 OA
ATOM     26  H   UNL     1      46.460   9.117  15.387  0.00  0.00    +0.000 HD
BRANCH  24  27
ATOM     27  C   UNL     1      48.083   9.238  17.394  0.00  0.00    +0.000 A 
ATOM     28  C   UNL     1      47.865  10.520  17.881  0.00  0.00    +0.000 A 
ATOM     29  S   UNL     1      47.418  10.561  19.527  0.00  0.00    +0.000 S 
ATOM     30  C   UNL     1      47.555   8.870  19.661  0.00  0.00    +0.000 A 
ATOM     31  N   UNL     1      47.332   8.244  20.848  0.00  0.00    +0.000 NA
ATOM     32  C   UNL     1      47.508   6.965  20.818  0.00  0.00    +0.000 A 
ATOM     33  N   UNL     1      47.874   6.253  19.704  0.00  0.00    +0.000 N 
ATOM     34  C   UNL     1      48.060   6.836  18.473  0.00  0.00    +0.000 A 
ATOM     35  O   UNL     1      48.307   6.161  17.479  0.00  0.00    +0.000 OA
ATOM     36  C   UNL     1      47.907   8.279  18.460  0.00  0.00    +0.000 A 
ATOM     37  H   UNL     1      47.980   5.250  19.744  0.00  0.00    +0.000 HD
ENDBRANCH  24  27
ENDBRANCH  22  23
ENDBRANCH   4  22
TORSDOF 9
ENDMDL
MODEL 3
REMARK VINA RESULT:    -8.187      2.329      3.066
REMARK INTER + INTRA:         -13.889
REMARK INTER:                 -11.897
REMARK INTRA:                  -1.991
REMARK UNBOUND:                -1.633
REMARK  Name = 
REMARK  10 active torsions:
REMARK  status: ('A' for Active; 'I' for Inactive)
REMARK    1  A    between atoms: C_1  and  C_2
REMARK    2  A    between atoms: C_2  and  C_3
REMARK    3  A    between atoms: C_2  and  N_10
REMARK    4  A    between atoms: C_3  and  C_4
REMARK    5  A    between atoms: N_10  and  C_11
REMARK    6  A    between atoms: C_14  and  C_15
REMARK    7  A    between atoms: C_15  and  N_16
REMARK    8  A    between atoms: C_17  and  C_19
REMARK    9  A    between atoms: C_30  and  C_31
REMARK   10  A    between atoms: C_31  and  O_33
REMARK                            x       y       z     vdW  Elec       q    Type
REMARK                         _______ _______ _______ _____ _____    ______ ____
ROOT
ATOM      1  C   UNL     1      46.136   5.413  12.279  0.00  0.00    +0.000 A 
ATOM      2  C   UNL     1      46.316   6.558  11.486  0.00  0.00    +0.000 A 
ATOM      3  C   UNL     1      47.401   7.420  11.670  0.00  0.00    +0.000 A 
ATOM      4  C   UNL     1      48.328   7.194  12.689  0.00  0.00    +0.000 A 
ATOM      5  C   UNL     1      48.105   6.125  13.561  0.00  0.00    +0.000 A 
ATOM      6  C   UNL     1      47.027   5.238  13.365  0.00  0.00    +0.000 A 
ENDROOT
BRANCH   1   7
ATOM      7  N   UNL     1      45.030   4.543  12.112  0.00  0.00    +0.000 N 
ATOM      8  H   UNL     1      44.489   4.554  12.985  0.00  0.00    +0.000 HD
BRANCH   7  10
ATOM      9  C   UNL     1      42.779   5.276  11.386  0.00  0.00    +0.000 C 
ATOM     10  C   UNL     1      44.129   4.711  10.940  0.00  0.00    +0.000 C 
BRANCH  10  11
ATOM     11  C   UNL     1      44.018   3.394  10.133  0.00  0.00    +0.000 C 
BRANCH  11  12
ATOM     12  C   UNL     1      45.062   3.127   9.074  0.00  0.00    +0.000 A 
ATOM     13  C   UNL     1      45.652   4.166   8.340  0.00  0.00    +0.000 A 
ATOM     14  C   UNL     1      46.606   3.903   7.357  0.00  0.00    +0.000 A 
ATOM     15  C   UNL     1      47.018   2.595   7.122  0.00  0.00    +0.000 A 
ATOM     16  C   UNL     1      46.473   1.555   7.873  0.00  0.00    +0.000 A 
ATOM     17  C   UNL     1      45.500   1.817   8.840  0.00  0.00    +0.000 A 
ENDBRANCH  11  12
ENDBRANCH  10  11
ENDBRANCH   7  10
ENDBRANCH   1   7
BRANCH   6  18
ATOM     18  C   UNL     1      46.927   4.120  14.345  0.00  0.00    +0.000 C 
ATOM     19  O   UNL     1      47.036   2.946  14.024  0.00  0.00    +0.000 OA
BRANCH  18  20
ATOM     20  O   UNL     1      46.631   4.508  15.603  0.00  0.00    +0.000 OA
ATOM     21  H   UNL     1      46.762   5.477  15.728  0.00  0.00    +0.000 HD
ENDBRANCH  18  20
ENDBRANCH   6  18
BRANCH   4  22
ATOM     22  C   UNL     1      49.509   8.105  12.873  0.00  0.00    +0.000 C 
BRANCH  22  23
ATOM     23  N   UNL     1      50.502   7.501  13.725  0.00  0.00    +0.000 N 
ATOM     24  C   UNL     1      50.600   7.846  15.048  0.00  0.00    +0.000 C 
ATOM     25  O   UNL     1      49.809   8.623  15.576  0.00  0.00    +0.000 OA
ATOM     26  H   UNL     1      51.287   7.047  13.269  0.00  0.00    +0.000 HD
BRANCH  24  27
ATOM     27  C   UNL     1      51.666   7.195  15.821  0.00  0.00    +0.000 A 
ATOM     28  C   UNL     1      52.960   7.694  15.754  0.00  0.00    +0.000 A 
ATOM     29  S   UNL     1      54.069   6.855  16.742  0.00  0.00    +0.000 S 
ATOM     30  C   UNL     1      52.869   5.762  17.252  0.00  0.00    +0.000 A 
ATOM     31  N   UNL     1      53.169   4.743  18.103  0.00  0.00    +0.000 NA
ATOM     32  C   UNL     1      52.175   3.967  18.377  0.00  0.00    +0.000 A 
ATOM     33  N   UNL     1      50.903   4.124  17.888  0.00  0.00    +0.000 N 
ATOM     34  C   UNL     1      50.542   5.166  17.067  0.00  0.00    +0.000 A 
ATOM     35  O   UNL     1      49.379   5.323  16.713  0.00  0.00    +0.000 OA
ATOM     36  C   UNL     1      51.633   6.050  16.700  0.00  0.00    +0.000 A 
ATOM     37  H   UNL     1      50.166   3.488  18.155  0.00  0.00    +0.000 HD
ENDBRANCH  24  27
ENDBRANCH  22  23
ENDBRANCH   4  22
TORSDOF 9
ENDMDL
MODEL 4
REMARK VINA RESULT:    -7.730      3.155      4.347
REMARK INTER + INTRA:         -13.204
REMARK INTER:                 -11.517
REMARK INTRA:                  -1.687
REMARK UNBOUND:                -1.633
REMARK  Name = 
REMARK  10 active torsions:
REMARK  status: ('A' for Active; 'I' for Inactive)
REMARK    1  A    between atoms: C_1  and  C_2
REMARK    2  A    between atoms: C_2  and  C_3
REMARK    3  A    between atoms: C_2  and  N_10
REMARK    4  A    between atoms: C_3  and  C_4
REMARK    5  A    between atoms: N_10  and  C_11
REMARK    6  A    between atoms: C_14  and  C_15
REMARK    7  A    between atoms: C_15  and  N_16
REMARK    8  A    between atoms: C_17  and  C_19
REMARK    9  A    between atoms: C_30  and  C_31
REMARK   10  A    between atoms: C_31  and  O_33
REMARK                            x       y       z     vdW  Elec       q    Type
REMARK                         _______ _______ _______ _____ _____    ______ ____
ROOT
ATOM      1  C   UNL     1      45.491   4.923  11.556  0.00  0.00    +0.000 A 
ATOM      2  C   UNL     1      44.811   5.956  10.890  0.00  0.00    +0.000 A 
ATOM      3  C   UNL     1      44.868   7.282  11.332  0.00  0.00    +0.000 A 
ATOM      4  C   UNL     1      45.573   7.619  12.489  0.00  0.00    +0.000 A 
ATOM      5  C   UNL     1      46.161   6.591  13.229  0.00  0.00    +0.000 A 
ATOM      6  C   UNL     1      46.129   5.257  12.775  0.00  0.00    +0.000 A 
ENDROOT
BRANCH   1   7
ATOM      7  N   UNL     1      45.426   3.575  11.126  0.00  0.00    +0.000 N 
ATOM      8  H   UNL     1      45.735   2.983  11.907  0.00  0.00    +0.000 HD
BRANCH   7  10
ATOM      9  C   UNL     1      43.205   2.614  11.653  0.00  0.00    +0.000 C 
ATOM     10  C   UNL     1      44.164   3.047  10.542  0.00  0.00    +0.000 C 
BRANCH  10  11
ATOM     11  C   UNL     1      44.456   1.936   9.504  0.00  0.00    +0.000 C 
BRANCH  11  12
ATOM     12  C   UNL     1      45.522   2.203   8.467  0.00  0.00    +0.000 A 
ATOM     13  C   UNL     1      46.427   1.209   8.066  0.00  0.00    +0.000 A 
ATOM     14  C   UNL     1      47.414   1.474   7.116  0.00  0.00    +0.000 A 
ATOM     15  C   UNL     1      47.484   2.729   6.519  0.00  0.00    +0.000 A 
ATOM     16  C   UNL     1      46.565   3.714   6.876  0.00  0.00    +0.000 A 
ATOM     17  C   UNL     1      45.593   3.455   7.844  0.00  0.00    +0.000 A 
ENDBRANCH  11  12
ENDBRANCH  10  11
ENDBRANCH   7  10
ENDBRANCH   1   7
BRANCH   6  18
ATOM     18  C   UNL     1      46.828   4.265  13.641  0.00  0.00    +0.000 C 
ATOM     19  O   UNL     1      46.566   3.072  13.626  0.00  0.00    +0.000 OA
BRANCH  18  20
ATOM     20  O   UNL     1      47.720   4.806  14.497  0.00  0.00    +0.000 OA
ATOM     21  H   UNL     1      47.820   5.777  14.356  0.00  0.00    +0.000 HD
ENDBRANCH  18  20
ENDBRANCH   6  18
BRANCH   4  22
ATOM     22  C   UNL     1      45.655   9.047  12.952  0.00  0.00    +0.000 C 
BRANCH  22  23
ATOM     23  N   UNL     1      46.944   9.330  13.530  0.00  0.00    +0.000 N 
ATOM     24  C   UNL     1      47.974   9.803  12.759  0.00  0.00    +0.000 C 
ATOM     25  O   UNL     1      47.825  10.070  11.570  0.00  0.00    +0.000 OA
ATOM     26  H   UNL     1      47.148   8.909  14.432  0.00  0.00    +0.000 HD
BRANCH  24  27
ATOM     27  C   UNL     1      49.256  10.029  13.440  0.00  0.00    +0.000 A 
ATOM     28  C   UNL     1      49.347  11.011  14.417  0.00  0.00    +0.000 A 
ATOM     29  S   UNL     1      50.888  11.117  15.140  0.00  0.00    +0.000 S 
ATOM     30  C   UNL     1      51.504   9.891  14.133  0.00  0.00    +0.000 A 
ATOM     31  N   UNL     1      52.807   9.510  14.216  0.00  0.00    +0.000 NA
ATOM     32  C   UNL     1      53.150   8.598  13.368  0.00  0.00    +0.000 A 
ATOM     33  N   UNL     1      52.305   8.023  12.454  0.00  0.00    +0.000 N 
ATOM     34  C   UNL     1      50.970   8.341  12.369  0.00  0.00    +0.000 A 
ATOM     35  O   UNL     1      50.223   7.750  11.595  0.00  0.00    +0.000 OA
ATOM     36  C   UNL     1      50.540   9.387  13.278  0.00  0.00    +0.000 A 
ATOM     37  H   UNL     1      52.634   7.303  11.829  0.00  0.00    +0.000 HD
ENDBRANCH  24  27
ENDBRANCH  22  23
ENDBRANCH   4  22
TORSDOF 9
ENDMDL
MODEL 5
REMARK VINA RESULT:    -7.613      2.057      2.880
REMARK INTER + INTRA:         -13.028
REMARK INTER:                 -11.293
REMARK INTRA:                  -1.735
REMARK UNBOUND:                -1.633
REMARK  Name = 
REMARK  10 active torsions:
REMARK  status: ('A' for Active; 'I' for Inactive)
REMARK    1  A    between atoms: C_1  and  C_2
REMARK    2  A    between atoms: C_2  and  C_3
REMARK    3  A    between atoms: C_2  and  N_10
REMARK    4  A    between atoms: C_3  and  C_4
REMARK    5  A    between atoms: N_10  and  C_11
REMARK    6  A    between atoms: C_14  and  C_15
REMARK    7  A    between atoms: C_15  and  N_16
REMARK    8  A    between atoms: C_17  and  C_19
REMARK    9  A    between atoms: C_30  and  C_31
REMARK   10  A    between atoms: C_31  and  O_33
REMARK                            x       y       z     vdW  Elec       q    Type
REMARK                         _______ _______ _______ _____ _____    ______ ____
ROOT
ATOM      1  C   UNL     1      46.266   5.490  12.166  0.00  0.00    +0.000 A 
ATOM      2  C   UNL     1      46.386   6.850  11.837  0.00  0.00    +0.000 A 
ATOM      3  C   UNL     1      47.281   7.694  12.501  0.00  0.00    +0.000 A 
ATOM      4  C   UNL     1      48.062   7.219  13.556  0.00  0.00    +0.000 A 
ATOM      5  C   UNL     1      47.876   5.898  13.974  0.00  0.00    +0.000 A 
ATOM      6  C   UNL     1      46.994   5.036  13.292  0.00  0.00    +0.000 A 
ENDROOT
BRANCH   1   7
ATOM      7  N   UNL     1      45.350   4.631  11.510  0.00  0.00    +0.000 N 
ATOM      8  H   UNL     1      44.896   4.053  12.227  0.00  0.00    +0.000 HD
BRANCH   7  10
ATOM      9  C   UNL     1      43.161   5.781  11.377  0.00  0.00    +0.000 C 
ATOM     10  C   UNL     1      44.335   5.202  10.585  0.00  0.00    +0.000 C 
BRANCH  10  11
ATOM     11  C   UNL     1      43.914   4.165   9.515  0.00  0.00    +0.000 C 
BRANCH  11  12
ATOM     12  C   UNL     1      45.008   3.452   8.756  0.00  0.00    +0.000 A 
ATOM     13  C   UNL     1      45.204   2.068   8.870  0.00  0.00    +0.000 A 
ATOM     14  C   UNL     1      46.228   1.425   8.171  0.00  0.00    +0.000 A 
ATOM     15  C   UNL     1      47.044   2.152   7.311  0.00  0.00    +0.000 A 
ATOM     16  C   UNL     1      46.834   3.521   7.154  0.00  0.00    +0.000 A 
ATOM     17  C   UNL     1      45.826   4.168   7.872  0.00  0.00    +0.000 A 
ENDBRANCH  11  12
ENDBRANCH  10  11
ENDBRANCH   7  10
ENDBRANCH   1   7
BRANCH   6  18
ATOM     18  C   UNL     1      46.919   3.644  13.818  0.00  0.00    +0.000 C 
ATOM     19  O   UNL     1      46.182   2.795  13.343  0.00  0.00    +0.000 OA
BRANCH  18  20
ATOM     20  O   UNL     1      47.679   3.422  14.911  0.00  0.00    +0.000 OA
ATOM     21  H   UNL     1      48.580   3.100  14.672  0.00  0.00    +0.000 HD
ENDBRANCH  18  20
ENDBRANCH   6  18
BRANCH   4  22
ATOM     22  C   UNL     1      49.043   8.118  14.256  0.00  0.00    +0.000 C 
BRANCH  22  23
ATOM     23  N   UNL     1      49.254   7.695  15.616  0.00  0.00    +0.000 N 
ATOM     24  C   UNL     1      48.671   8.362  16.661  0.00  0.00    +0.000 C 
ATOM     25  O   UNL     1      47.894   9.296  16.482  0.00  0.00    +0.000 OA
ATOM     26  H   UNL     1      50.052   7.091  15.793  0.00  0.00    +0.000 HD
BRANCH  24  27
ATOM     27  C   UNL     1      48.977   7.868  18.010  0.00  0.00    +0.000 A 
ATOM     28  C   UNL     1      49.612   8.707  18.917  0.00  0.00    +0.000 A 
ATOM     29  S   UNL     1      49.855   7.999  20.450  0.00  0.00    +0.000 S 
ATOM     30  C   UNL     1      49.170   6.527  19.938  0.00  0.00    +0.000 A 
ATOM     31  N   UNL     1      49.099   5.461  20.781  0.00  0.00    +0.000 NA
ATOM     32  C   UNL     1      48.592   4.398  20.253  0.00  0.00    +0.000 A 
ATOM     33  N   UNL     1      48.137   4.307  18.961  0.00  0.00    +0.000 N 
ATOM     34  C   UNL     1      48.142   5.372  18.092  0.00  0.00    +0.000 A 
ATOM     35  O   UNL     1      47.653   5.280  16.971  0.00  0.00    +0.000 OA
ATOM     36  C   UNL     1      48.734   6.584  18.626  0.00  0.00    +0.000 A 
ATOM     37  H   UNL     1      47.736   3.448  18.615  0.00  0.00    +0.000 HD
ENDBRANCH  24  27
ENDBRANCH  22  23
ENDBRANCH   4  22
TORSDOF 9
ENDMDL
MODEL 6
REMARK VINA RESULT:    -7.531      3.275      8.952
REMARK INTER + INTRA:         -12.906
REMARK INTER:                 -10.736
REMARK INTRA:                  -2.170
REMARK UNBOUND:                -1.633
REMARK  Name = 
REMARK  10 active torsions:
REMARK  status: ('A' for Active; 'I' for Inactive)
REMARK    1  A    between atoms: C_1  and  C_2
REMARK    2  A    between atoms: C_2  and  C_3
REMARK    3  A    between atoms: C_2  and  N_10
REMARK    4  A    between atoms: C_3  and  C_4
REMARK    5  A    between atoms: N_10  and  C_11
REMARK    6  A    between atoms: C_14  and  C_15
REMARK    7  A    between atoms: C_15  and  N_16
REMARK    8  A    between atoms: C_17  and  C_19
REMARK    9  A    between atoms: C_30  and  C_31
REMARK   10  A    between atoms: C_31  and  O_33
REMARK                            x       y       z     vdW  Elec       q    Type
REMARK                         _______ _______ _______ _____ _____    ______ ____
ROOT
ATOM      1  C   UNL     1      49.420   5.554  17.277  0.00  0.00    +0.000 A 
ATOM      2  C   UNL     1      50.305   6.435  16.633  0.00  0.00    +0.000 A 
ATOM      3  C   UNL     1      50.002   7.014  15.397  0.00  0.00    +0.000 A 
ATOM      4  C   UNL     1      48.816   6.697  14.732  0.00  0.00    +0.000 A 
ATOM      5  C   UNL     1      47.974   5.738  15.301  0.00  0.00    +0.000 A 
ATOM      6  C   UNL     1      48.263   5.169  16.558  0.00  0.00    +0.000 A 
ENDROOT
BRANCH   1   7
ATOM      7  N   UNL     1      49.726   4.949  18.520  0.00  0.00    +0.000 N 
ATOM      8  H   UNL     1      50.529   4.326  18.375  0.00  0.00    +0.000 HD
BRANCH   7  10
ATOM      9  C   UNL     1      51.027   5.197  20.613  0.00  0.00    +0.000 C 
ATOM     10  C   UNL     1      49.939   5.800  19.722  0.00  0.00    +0.000 C 
BRANCH  10  11
ATOM     11  C   UNL     1      48.604   6.061  20.460  0.00  0.00    +0.000 C 
BRANCH  11  12
ATOM     12  C   UNL     1      47.974   7.427  20.314  0.00  0.00    +0.000 A 
ATOM     13  C   UNL     1      47.836   8.046  19.063  0.00  0.00    +0.000 A 
ATOM     14  C   UNL     1      47.263   9.313  18.946  0.00  0.00    +0.000 A 
ATOM     15  C   UNL     1      46.777   9.963  20.076  0.00  0.00    +0.000 A 
ATOM     16  C   UNL     1      46.867   9.342  21.320  0.00  0.00    +0.000 A 
ATOM     17  C   UNL     1      47.463   8.085  21.440  0.00  0.00    +0.000 A 
ENDBRANCH  11  12
ENDBRANCH  10  11
ENDBRANCH   7  10
ENDBRANCH   1   7
BRANCH   6  18
ATOM     18  C   UNL     1      47.264   4.187  17.065  0.00  0.00    +0.000 C 
ATOM     19  O   UNL     1      46.995   3.152  16.477  0.00  0.00    +0.000 OA
BRANCH  18  20
ATOM     20  O   UNL     1      46.626   4.574  18.189  0.00  0.00    +0.000 OA
ATOM     21  H   UNL     1      47.259   4.790  18.914  0.00  0.00    +0.000 HD
ENDBRANCH  18  20
ENDBRANCH   6  18
BRANCH   4  22
ATOM     22  C   UNL     1      48.476   7.337  13.415  0.00  0.00    +0.000 C 
BRANCH  22  23
ATOM     23  N   UNL     1      47.740   6.429  12.572  0.00  0.00    +0.000 N 
ATOM     24  C   UNL     1      46.504   6.764  12.086  0.00  0.00    +0.000 C 
ATOM     25  O   UNL     1      46.005   7.868  12.285  0.00  0.00    +0.000 OA
ATOM     26  H   UNL     1      48.023   5.454  12.587  0.00  0.00    +0.000 HD
BRANCH  24  27
ATOM     27  C   UNL     1      45.825   5.754  11.263  0.00  0.00    +0.000 A 
ATOM     28  C   UNL     1      45.949   5.804   9.880  0.00  0.00    +0.000 A 
ATOM     29  S   UNL     1      45.138   4.538   9.075  0.00  0.00    +0.000 S 
ATOM     30  C   UNL     1      44.547   3.911  10.542  0.00  0.00    +0.000 A 
ATOM     31  N   UNL     1      43.736   2.818  10.557  0.00  0.00    +0.000 NA
ATOM     32  C   UNL     1      43.330   2.472  11.732  0.00  0.00    +0.000 A 
ATOM     33  N   UNL     1      43.671   3.112  12.897  0.00  0.00    +0.000 N 
ATOM     34  C   UNL     1      44.527   4.188  12.934  0.00  0.00    +0.000 A 
ATOM     35  O   UNL     1      44.875   4.686  13.999  0.00  0.00    +0.000 OA
ATOM     36  C   UNL     1      44.986   4.638  11.634  0.00  0.00    +0.000 A 
ATOM     37  H   UNL     1      43.330   2.781  13.787  0.00  0.00    +0.000 HD
ENDBRANCH  24  27
ENDBRANCH  22  23
ENDBRANCH   4  22
TORSDOF 9
ENDMDL
MODEL 7
REMARK VINA RESULT:    -7.508      3.075      8.131
REMARK INTER + INTRA:         -12.872
REMARK INTER:                 -11.047
REMARK INTRA:                  -1.825
REMARK UNBOUND:                -1.633
REMARK  Name = 
REMARK  10 active torsions:
REMARK  status: ('A' for Active; 'I' for Inactive)
REMARK    1  A    between atoms: C_1  and  C_2
REMARK    2  A    between atoms: C_2  and  C_3
REMARK    3  A    between atoms: C_2  and  N_10
REMARK    4  A    between atoms: C_3  and  C_4
REMARK    5  A    between atoms: N_10  and  C_11
REMARK    6  A    between atoms: C_14  and  C_15
REMARK    7  A    between atoms: C_15  and  N_16
REMARK    8  A    between atoms: C_17  and  C_19
REMARK    9  A    between atoms: C_30  and  C_31
REMARK   10  A    between atoms: C_31  and  O_33
REMARK                            x       y       z     vdW  Elec       q    Type
REMARK                         _______ _______ _______ _____ _____    ______ ____
ROOT
ATOM      1  C   UNL     1      48.674   6.234  17.177  0.00  0.00    +0.000 A 
ATOM      2  C   UNL     1      49.259   7.434  16.742  0.00  0.00    +0.000 A 
ATOM      3  C   UNL     1      49.192   7.846  15.407  0.00  0.00    +0.000 A 
ATOM      4  C   UNL     1      48.575   7.047  14.444  0.00  0.00    +0.000 A 
ATOM      5  C   UNL     1      48.087   5.798  14.834  0.00  0.00    +0.000 A 
ATOM      6  C   UNL     1      48.129   5.388  16.182  0.00  0.00    +0.000 A 
ENDROOT
BRANCH   1   7
ATOM      7  N   UNL     1      48.751   5.799  18.524  0.00  0.00    +0.000 N 
ATOM      8  H   UNL     1      48.060   5.050  18.650  0.00  0.00    +0.000 HD
BRANCH   7  10
ATOM      9  C   UNL     1      50.562   6.457  20.079  0.00  0.00    +0.000 C 
ATOM     10  C   UNL     1      50.064   5.397  19.095  0.00  0.00    +0.000 C 
BRANCH  10  11
ATOM     11  C   UNL     1      51.078   5.063  17.974  0.00  0.00    +0.000 C 
BRANCH  11  12
ATOM     12  C   UNL     1      51.578   3.640  17.877  0.00  0.00    +0.000 A 
ATOM     13  C   UNL     1      50.761   2.601  17.407  0.00  0.00    +0.000 A 
ATOM     14  C   UNL     1      51.233   1.290  17.334  0.00  0.00    +0.000 A 
ATOM     15  C   UNL     1      52.547   1.004  17.690  0.00  0.00    +0.000 A 
ATOM     16  C   UNL     1      53.384   2.033  18.118  0.00  0.00    +0.000 A 
ATOM     17  C   UNL     1      52.904   3.341  18.214  0.00  0.00    +0.000 A 
ENDBRANCH  11  12
ENDBRANCH  10  11
ENDBRANCH   7  10
ENDBRANCH   1   7
BRANCH   6  18
ATOM     18  C   UNL     1      47.540   4.049  16.466  0.00  0.00    +0.000 C 
ATOM     19  O   UNL     1      47.659   3.098  15.709  0.00  0.00    +0.000 OA
BRANCH  18  20
ATOM     20  O   UNL     1      46.800   3.995  17.593  0.00  0.00    +0.000 OA
ATOM     21  H   UNL     1      46.882   4.822  18.125  0.00  0.00    +0.000 HD
ENDBRANCH  18  20
ENDBRANCH   6  18
BRANCH   4  22
ATOM     22  C   UNL     1      48.480   7.500  13.013  0.00  0.00    +0.000 C 
BRANCH  22  23
ATOM     23  N   UNL     1      47.748   6.549  12.216  0.00  0.00    +0.000 N 
ATOM     24  C   UNL     1      46.421   6.738  11.935  0.00  0.00    +0.000 C 
ATOM     25  O   UNL     1      45.821   7.752  12.285  0.00  0.00    +0.000 OA
ATOM     26  H   UNL     1      48.151   5.621  12.118  0.00  0.00    +0.000 HD
BRANCH  24  27
ATOM     27  C   UNL     1      45.760   5.694  11.142  0.00  0.00    +0.000 A 
ATOM     28  C   UNL     1      45.860   5.721   9.757  0.00  0.00    +0.000 A 
ATOM     29  S   UNL     1      45.075   4.416   8.988  0.00  0.00    +0.000 S 
ATOM     30  C   UNL     1      44.527   3.799  10.476  0.00  0.00    +0.000 A 
ATOM     31  N   UNL     1      43.750   2.683  10.525  0.00  0.00    +0.000 NA
ATOM     32  C   UNL     1      43.373   2.347  11.713  0.00  0.00    +0.000 A 
ATOM     33  N   UNL     1      43.713   3.020  12.860  0.00  0.00    +0.000 N 
ATOM     34  C   UNL     1      44.536   4.121  12.863  0.00  0.00    +0.000 A 
ATOM     35  O   UNL     1      44.887   4.650  13.913  0.00  0.00    +0.000 OA
ATOM     36  C   UNL     1      44.961   4.560  11.547  0.00  0.00    +0.000 A 
ATOM     37  H   UNL     1      43.396   2.695  13.761  0.00  0.00    +0.000 HD
ENDBRANCH  24  27
ENDBRANCH  22  23
ENDBRANCH   4  22
TORSDOF 9
ENDMDL
MODEL 8
REMARK VINA RESULT:    -7.430      3.054      3.959
REMARK INTER + INTRA:         -12.755
REMARK INTER:                 -11.189
REMARK INTRA:                  -1.566
REMARK UNBOUND:                -1.633
REMARK  Name = 
REMARK  10 active torsions:
REMARK  status: ('A' for Active; 'I' for Inactive)
REMARK    1  A    between atoms: C_1  and  C_2
REMARK    2  A    between atoms: C_2  and  C_3
REMARK    3  A    between atoms: C_2  and  N_10
REMARK    4  A    between atoms: C_3  and  C_4
REMARK    5  A    between atoms: N_10  and  C_11
REMARK    6  A    between atoms: C_14  and  C_15
REMARK    7  A    between atoms: C_15  and  N_16
REMARK    8  A    between atoms: C_17  and  C_19
REMARK    9  A    between atoms: C_30  and  C_31
REMARK   10  A    between atoms: C_31  and  O_33
REMARK                            x       y       z     vdW  Elec       q    Type
REMARK                         _______ _______ _______ _____ _____    ______ ____
ROOT
ATOM      1  C   UNL     1      46.364   5.791  12.240  0.00  0.00    +0.000 A 
ATOM      2  C   UNL     1      46.389   7.179  12.027  0.00  0.00    +0.000 A 
ATOM      3  C   UNL     1      47.082   8.044  12.880  0.00  0.00    +0.000 A 
ATOM      4  C   UNL     1      47.742   7.556  14.009  0.00  0.00    +0.000 A 
ATOM      5  C   UNL     1      47.635   6.194  14.301  0.00  0.00    +0.000 A 
ATOM      6  C   UNL     1      46.959   5.314  13.432  0.00  0.00    +0.000 A 
ENDROOT
BRANCH   1   7
ATOM      7  N   UNL     1      45.651   4.908  11.392  0.00  0.00    +0.000 N 
ATOM      8  H   UNL     1      45.772   3.957  11.758  0.00  0.00    +0.000 HD
BRANCH   7  10
ATOM      9  C   UNL     1      43.382   5.072  12.371  0.00  0.00    +0.000 C 
ATOM     10  C   UNL     1      44.217   5.170  11.092  0.00  0.00    +0.000 C 
BRANCH  10  11
ATOM     11  C   UNL     1      43.714   4.258   9.947  0.00  0.00    +0.000 C 
BRANCH  11  12
ATOM     12  C   UNL     1      44.749   3.590   9.072  0.00  0.00    +0.000 A 
ATOM     13  C   UNL     1      45.541   4.323   8.176  0.00  0.00    +0.000 A 
ATOM     14  C   UNL     1      46.485   3.690   7.366  0.00  0.00    +0.000 A 
ATOM     15  C   UNL     1      46.683   2.317   7.472  0.00  0.00    +0.000 A 
ATOM     16  C   UNL     1      45.933   1.581   8.388  0.00  0.00    +0.000 A 
ATOM     17  C   UNL     1      44.972   2.211   9.181  0.00  0.00    +0.000 A 
ENDBRANCH  11  12
ENDBRANCH  10  11
ENDBRANCH   7  10
ENDBRANCH   1   7
BRANCH   6  18
ATOM     18  C   UNL     1      46.953   3.882  13.844  0.00  0.00    +0.000 C 
ATOM     19  O   UNL     1      46.277   3.034  13.282  0.00  0.00    +0.000 OA
BRANCH  18  20
ATOM     20  O   UNL     1      47.697   3.615  14.937  0.00  0.00    +0.000 OA
ATOM     21  H   UNL     1      48.144   2.738  14.871  0.00  0.00    +0.000 HD
ENDBRANCH  18  20
ENDBRANCH   6  18
BRANCH   4  22
ATOM     22  C   UNL     1      48.508   8.481  14.913  0.00  0.00    +0.000 C 
BRANCH  22  23
ATOM     23  N   UNL     1      48.091   8.329  16.284  0.00  0.00    +0.000 N 
ATOM     24  C   UNL     1      48.965   7.886  17.242  0.00  0.00    +0.000 C 
ATOM     25  O   UNL     1      50.148   7.671  16.992  0.00  0.00    +0.000 OA
ATOM     26  H   UNL     1      47.091   8.279  16.459  0.00  0.00    +0.000 HD
BRANCH  24  27
ATOM     27  C   UNL     1      48.430   7.735  18.602  0.00  0.00    +0.000 A 
ATOM     28  C   UNL     1      48.536   6.509  19.245  0.00  0.00    +0.000 A 
ATOM     29  S   UNL     1      47.907   6.512  20.831  0.00  0.00    +0.000 S 
ATOM     30  C   UNL     1      47.422   8.137  20.693  0.00  0.00    +0.000 A 
ATOM     31  N   UNL     1      46.775   8.761  21.715  0.00  0.00    +0.000 NA
ATOM     32  C   UNL     1      46.430   9.979  21.462  0.00  0.00    +0.000 A 
ATOM     33  N   UNL     1      46.685  10.636  20.285  0.00  0.00    +0.000 N 
ATOM     34  C   UNL     1      47.380  10.062  19.246  0.00  0.00    +0.000 A 
ATOM     35  O   UNL     1      47.662  10.703  18.239  0.00  0.00    +0.000 OA
ATOM     36  C   UNL     1      47.761   8.680  19.466  0.00  0.00    +0.000 A 
ATOM     37  H   UNL     1      46.401  11.595  20.157  0.00  0.00    +0.000 HD
ENDBRANCH  24  27
ENDBRANCH  22  23
ENDBRANCH   4  22
TORSDOF 9
ENDMDL
MODEL 9
REMARK VINA RESULT:    -7.371      3.921      5.513
REMARK INTER + INTRA:         -12.667
REMARK INTER:                 -10.735
REMARK INTRA:                  -1.932
REMARK UNBOUND:                -1.633
REMARK  Name = 
REMARK  10 active torsions:
REMARK  status: ('A' for Active; 'I' for Inactive)
REMARK    1  A    between atoms: C_1  and  C_2
REMARK    2  A    between atoms: C_2  and  C_3
REMARK    3  A    between atoms: C_2  and  N_10
REMARK    4  A    between atoms: C_3  and  C_4
REMARK    5  A    between atoms: N_10  and  C_11
REMARK    6  A    between atoms: C_14  and  C_15
REMARK    7  A    between atoms: C_15  and  N_16
REMARK    8  A    between atoms: C_17  and  C_19
REMARK    9  A    between atoms: C_30  and  C_31
REMARK   10  A    between atoms: C_31  and  O_33
REMARK                            x       y       z     vdW  Elec       q    Type
REMARK                         _______ _______ _______ _____ _____    ______ ____
ROOT
ATOM      1  C   UNL     1      46.292   5.582  12.417  0.00  0.00    +0.000 A 
ATOM      2  C   UNL     1      46.277   6.830  11.774  0.00  0.00    +0.000 A 
ATOM      3  C   UNL     1      47.027   7.912  12.246  0.00  0.00    +0.000 A 
ATOM      4  C   UNL     1      47.788   7.800  13.410  0.00  0.00    +0.000 A 
ATOM      5  C   UNL     1      47.727   6.602  14.127  0.00  0.00    +0.000 A 
ATOM      6  C   UNL     1      46.993   5.500  13.644  0.00  0.00    +0.000 A 
ENDROOT
BRANCH   1   7
ATOM      7  N   UNL     1      45.522   4.485  11.957  0.00  0.00    +0.000 N 
ATOM      8  H   UNL     1      45.365   3.857  12.754  0.00  0.00    +0.000 HD
BRANCH   7  10
ATOM      9  C   UNL     1      43.119   5.021  12.223  0.00  0.00    +0.000 C 
ATOM     10  C   UNL     1      44.247   4.731  11.230  0.00  0.00    +0.000 C 
BRANCH  10  11
ATOM     11  C   UNL     1      43.934   3.572  10.252  0.00  0.00    +0.000 C 
BRANCH  11  12
ATOM     12  C   UNL     1      44.958   3.253   9.188  0.00  0.00    +0.000 A 
ATOM     13  C   UNL     1      45.564   4.259   8.422  0.00  0.00    +0.000 A 
ATOM     14  C   UNL     1      46.499   3.947   7.434  0.00  0.00    +0.000 A 
ATOM     15  C   UNL     1      46.877   2.624   7.227  0.00  0.00    +0.000 A 
ATOM     16  C   UNL     1      46.315   1.617   8.011  0.00  0.00    +0.000 A 
ATOM     17  C   UNL     1      45.361   1.927   8.982  0.00  0.00    +0.000 A 
ENDBRANCH  11  12
ENDBRANCH  10  11
ENDBRANCH   7  10
ENDBRANCH   1   7
BRANCH   6  18
ATOM     18  C   UNL     1      47.043   4.273  14.487  0.00  0.00    +0.000 C 
ATOM     19  O   UNL     1      47.334   3.174  14.041  0.00  0.00    +0.000 OA
BRANCH  18  20
ATOM     20  O   UNL     1      46.667   4.464  15.769  0.00  0.00    +0.000 OA
ATOM     21  H   UNL     1      46.851   3.672  16.327  0.00  0.00    +0.000 HD
ENDBRANCH  18  20
ENDBRANCH   6  18
BRANCH   4  22
ATOM     22  C   UNL     1      48.614   8.954  13.905  0.00  0.00    +0.000 C 
BRANCH  22  23
ATOM     23  N   UNL     1      49.848   9.062  13.169  0.00  0.00    +0.000 N 
ATOM     24  C   UNL     1      50.039  10.065  12.256  0.00  0.00    +0.000 C 
ATOM     25  O   UNL     1      49.204  10.949  12.079  0.00  0.00    +0.000 OA
ATOM     26  H   UNL     1      50.437   8.235  13.132  0.00  0.00    +0.000 HD
BRANCH  24  27
ATOM     27  C   UNL     1      51.319  10.066  11.536  0.00  0.00    +0.000 A 
ATOM     28  C   UNL     1      52.077  11.229  11.491  0.00  0.00    +0.000 A 
ATOM     29  S   UNL     1      53.553  11.052  10.656  0.00  0.00    +0.000 S 
ATOM     30  C   UNL     1      53.207   9.430  10.278  0.00  0.00    +0.000 A 
ATOM     31  N   UNL     1      54.070   8.688   9.533  0.00  0.00    +0.000 NA
ATOM     32  C   UNL     1      53.666   7.487   9.288  0.00  0.00    +0.000 A 
ATOM     33  N   UNL     1      52.482   6.954   9.732  0.00  0.00    +0.000 N 
ATOM     34  C   UNL     1      51.604   7.650  10.530  0.00  0.00    +0.000 A 
ATOM     35  O   UNL     1      50.594   7.118  10.977  0.00  0.00    +0.000 OA
ATOM     36  C   UNL     1      51.996   9.019  10.807  0.00  0.00    +0.000 A 
ATOM     37  H   UNL     1      52.232   6.001   9.518  0.00  0.00    +0.000 HD
ENDBRANCH  24  27
ENDBRANCH  22  23
ENDBRANCH   4  22
TORSDOF 9
ENDMDL
