MODEL 1
REMARK VINA RESULT:    -7.621      0.000      0.000
REMARK INTER + INTRA:         -10.540
REMARK INTER:                  -9.848
REMARK INTRA:                  -0.692
REMARK UNBOUND:                -0.692
REMARK  Name = 
REMARK  5 active torsions:
REMARK  status: ('A' for Active; 'I' for Inactive)
REMARK    1  A    between atoms: C_2  and  C_3
REMARK    2  A    between atoms: C_6  and  O_7
REMARK    3  A    between atoms: O_7  and  C_8
REMARK    4  A    between atoms: C_8  and  C_9
REMARK    5  A    between atoms: N_12  and  C_13
REMARK                            x       y       z     vdW  Elec       q    Type
REMARK                         _______ _______ _______ _____ _____    ______ ____
ROOT
ATOM      1  C   UNL     1      43.593   4.748  12.220  0.00  0.00    +0.000 C 
ATOM      2  C   UNL     1      44.080   6.058  12.871  0.00  0.00    +0.000 C 
ATOM      3  C   UNL     1      45.595   6.244  12.794  0.00  0.00    +0.000 C 
ATOM      4  N   UNL     1      46.280   5.046  13.286  0.00  0.00    +0.000 N 
ATOM      5  C   UNL     1      45.937   3.792  12.617  0.00  0.00    +0.000 C 
ATOM      6  C   UNL     1      44.427   3.559  12.732  0.00  0.00    +0.000 C 
ENDROOT
BRANCH   4   7
ATOM      7  C   UNL     1      47.075   5.054  14.421  0.00  0.00    +0.000 A 
ATOM      8  C   UNL     1      48.075   6.016  14.641  0.00  0.00    +0.000 A 
ATOM      9  N   UNL     1      48.893   6.093  15.727  0.00  0.00    +0.000 NA
ATOM     10  C   UNL     1      48.709   5.150  16.672  0.00  0.00    +0.000 A 
ATOM     11  C   UNL     1      47.757   4.157  16.569  0.00  0.00    +0.000 A 
ATOM     12  F   UNL     1      47.625   3.239  17.536  0.00  0.00    +0.000 F 
ATOM     13  C   UNL     1      46.937   4.110  15.445  0.00  0.00    +0.000 A 
ENDBRANCH   4   7
BRANCH   1  14
ATOM     14  C   UNL     1      43.589   4.789  10.681  0.00  0.00    +0.000 C 
BRANCH  14  15
ATOM     15  O   UNL     1      43.611   3.459  10.153  0.00  0.00    +0.000 OA
BRANCH  15  19
ATOM     16  C   UNL     1      46.547   2.282   7.513  0.00  0.00    +0.000 A 
ATOM     17  C   UNL     1      46.203   3.627   7.504  0.00  0.00    +0.000 A 
ATOM     18  C   UNL     1      45.216   4.074   8.387  0.00  0.00    +0.000 A 
ATOM     19  C   UNL     1      44.599   3.173   9.252  0.00  0.00    +0.000 A 
ATOM     20  C   UNL     1      45.023   1.849   9.192  0.00  0.00    +0.000 A 
ATOM     21  N   UNL     1      45.976   1.379   8.346  0.00  0.00    +0.000 NA
BRANCH  16  23
ATOM     22  N   UNL     1      48.332   1.397   5.842  0.00  0.00    +0.000 NA
ATOM     23  C   UNL     1      47.545   1.775   6.608  0.00  0.00    +0.000 C 
ENDBRANCH  16  23
ENDBRANCH  15  19
ENDBRANCH  14  15
ENDBRANCH   1  14
TORSDOF 5
ENDMDL
MODEL 2
REMARK VINA RESULT:    -6.994      1.342      1.753
REMARK INTER + INTRA:          -9.729
REMARK INTER:                  -9.037
REMARK INTRA:                  -0.692
REMARK UNBOUND:                -0.692
REMARK  Name = 
REMARK  5 active torsions:
REMARK  status: ('A' for Active; 'I' for Inactive)
REMARK    1  A    between atoms: C_2  and  C_3
REMARK    2  A    between atoms: C_6  and  O_7
REMARK    3  A    between atoms: O_7  and  C_8
REMARK    4  A    between atoms: C_8  and  C_9
REMARK    5  A    between atoms: N_12  and  C_13
REMARK                            x       y       z     vdW  Elec       q    Type
REMARK                         _______ _______ _______ _____ _____    ______ ____
ROOT
ATOM      1  C   UNL     1      44.166   5.675  12.175  0.00  0.00    +0.000 C 
ATOM      2  C   UNL     1      45.052   6.800  12.742  0.00  0.00    +0.000 C 
ATOM      3  C   UNL     1      46.530   6.420  12.828  0.00  0.00    +0.000 C 
ATOM      4  N   UNL     1      46.685   5.137  13.518  0.00  0.00    +0.000 N 
ATOM      5  C   UNL     1      45.954   4.009  12.944  0.00  0.00    +0.000 C 
ATOM      6  C   UNL     1      44.460   4.350  12.901  0.00  0.00    +0.000 C 
ENDROOT
BRANCH   4   7
ATOM      7  C   UNL     1      47.341   5.017  14.732  0.00  0.00    +0.000 A 
ATOM      8  C   UNL     1      47.262   3.862  15.528  0.00  0.00    +0.000 A 
ATOM      9  N   UNL     1      47.877   3.666  16.727  0.00  0.00    +0.000 NA
ATOM     10  C   UNL     1      48.632   4.688  17.177  0.00  0.00    +0.000 A 
ATOM     11  C   UNL     1      48.787   5.871  16.483  0.00  0.00    +0.000 A 
ATOM     12  F   UNL     1      49.542   6.859  16.984  0.00  0.00    +0.000 F 
ATOM     13  C   UNL     1      48.145   6.035  15.259  0.00  0.00    +0.000 A 
ENDBRANCH   4   7
BRANCH   1  14
ATOM     14  C   UNL     1      44.290   5.501  10.650  0.00  0.00    +0.000 C 
BRANCH  14  15
ATOM     15  O   UNL     1      43.912   4.173  10.274  0.00  0.00    +0.000 OA
BRANCH  15  19
ATOM     16  C   UNL     1      46.504   2.508   7.538  0.00  0.00    +0.000 A 
ATOM     17  C   UNL     1      45.869   1.632   8.408  0.00  0.00    +0.000 A 
ATOM     18  C   UNL     1      44.975   2.151   9.349  0.00  0.00    +0.000 A 
ATOM     19  C   UNL     1      44.740   3.523   9.401  0.00  0.00    +0.000 A 
ATOM     20  C   UNL     1      45.417   4.315   8.478  0.00  0.00    +0.000 A 
ATOM     21  N   UNL     1      46.293   3.846   7.552  0.00  0.00    +0.000 NA
BRANCH  16  23
ATOM     22  N   UNL     1      48.169   1.594   5.762  0.00  0.00    +0.000 NA
ATOM     23  C   UNL     1      47.446   2.020   6.564  0.00  0.00    +0.000 C 
ENDBRANCH  16  23
ENDBRANCH  15  19
ENDBRANCH  14  15
ENDBRANCH   1  14
TORSDOF 5
ENDMDL
MODEL 3
REMARK VINA RESULT:    -6.913      2.566      3.078
REMARK INTER + INTRA:          -9.626
REMARK INTER:                  -8.886
REMARK INTRA:                  -0.740
REMARK UNBOUND:                -0.692
REMARK  Name = 
REMARK  5 active torsions:
REMARK  status: ('A' for Active; 'I' for Inactive)
REMARK    1  A    between atoms: C_2  and  C_3
REMARK    2  A    between atoms: C_6  and  O_7
REMARK    3  A    between atoms: O_7  and  C_8
REMARK    4  A    between atoms: C_8  and  C_9
REMARK    5  A    between atoms: N_12  and  C_13
REMARK                            x       y       z     vdW  Elec       q    Type
REMARK                         _______ _______ _______ _____ _____    ______ ____
ROOT
ATOM      1  C   UNL     1      44.350   4.769  12.310  0.00  0.00    +0.000 C 
ATOM      2  C   UNL     1      44.656   6.003  11.439  0.00  0.00    +0.000 C 
ATOM      3  C   UNL     1      46.146   6.187  11.154  0.00  0.00    +0.000 C 
ATOM      4  N   UNL     1      46.912   6.136  12.401  0.00  0.00    +0.000 N 
ATOM      5  C   UNL     1      46.745   4.927  13.206  0.00  0.00    +0.000 C 
ATOM      6  C   UNL     1      45.262   4.755  13.551  0.00  0.00    +0.000 C 
ENDROOT
BRANCH   4   7
ATOM      7  C   UNL     1      47.622   7.222  12.886  0.00  0.00    +0.000 A 
ATOM      8  C   UNL     1      48.215   7.236  14.159  0.00  0.00    +0.000 A 
ATOM      9  N   UNL     1      48.928   8.260  14.705  0.00  0.00    +0.000 NA
ATOM     10  C   UNL     1      49.071   9.356  13.934  0.00  0.00    +0.000 A 
ATOM     11  C   UNL     1      48.536   9.459  12.666  0.00  0.00    +0.000 A 
ATOM     12  F   UNL     1      48.701  10.578  11.948  0.00  0.00    +0.000 F 
ATOM     13  C   UNL     1      47.815   8.391  12.140  0.00  0.00    +0.000 A 
ENDBRANCH   4   7
BRANCH   1  14
ATOM     14  C   UNL     1      44.449   3.435  11.546  0.00  0.00    +0.000 C 
BRANCH  14  15
ATOM     15  O   UNL     1      43.994   3.604  10.200  0.00  0.00    +0.000 OA
BRANCH  15  19
ATOM     16  C   UNL     1      46.596   2.232   7.314  0.00  0.00    +0.000 A 
ATOM     17  C   UNL     1      46.248   3.576   7.253  0.00  0.00    +0.000 A 
ATOM     18  C   UNL     1      45.374   4.088   8.215  0.00  0.00    +0.000 A 
ATOM     19  C   UNL     1      44.867   3.251   9.208  0.00  0.00    +0.000 A 
ATOM     20  C   UNL     1      45.286   1.925   9.190  0.00  0.00    +0.000 A 
ATOM     21  N   UNL     1      46.132   1.392   8.270  0.00  0.00    +0.000 NA
BRANCH  16  23
ATOM     22  N   UNL     1      48.187   1.238   5.514  0.00  0.00    +0.000 NA
ATOM     23  C   UNL     1      47.479   1.658   6.333  0.00  0.00    +0.000 C 
ENDBRANCH  16  23
ENDBRANCH  15  19
ENDBRANCH  14  15
ENDBRANCH   1  14
TORSDOF 5
ENDMDL
MODEL 4
REMARK VINA RESULT:    -6.774      3.037      4.024
REMARK INTER + INTRA:          -9.445
REMARK INTER:                  -9.147
REMARK INTRA:                  -0.298
REMARK UNBOUND:                -0.692
REMARK  Name = 
REMARK  5 active torsions:
REMARK  status: ('A' for Active; 'I' for Inactive)
REMARK    1  A    between atoms: C_2  and  C_3
REMARK    2  A    between atoms: C_6  and  O_7
REMARK    3  A    between atoms: O_7  and  C_8
REMARK    4  A    between atoms: C_8  and  C_9
REMARK    5  A    between atoms: N_12  and  C_13
REMARK                            x       y       z     vdW  Elec       q    Type
REMARK                         _______ _______ _______ _____ _____    ______ ____
ROOT
ATOM      1  C   UNL     1      43.568   4.191  12.621  0.00  0.00    +0.000 C 
ATOM      2  C   UNL     1      42.672   5.357  12.161  0.00  0.00    +0.000 C 
ATOM      3  C   UNL     1      43.293   6.192  11.042  0.00  0.00    +0.000 C 
ATOM      4  N   UNL     1      44.654   6.596  11.405  0.00  0.00    +0.000 N 
ATOM      5  C   UNL     1      45.577   5.511  11.735  0.00  0.00    +0.000 C 
ATOM      6  C   UNL     1      44.997   4.695  12.895  0.00  0.00    +0.000 C 
ENDROOT
BRANCH   4   7
ATOM      7  C   UNL     1      45.014   7.920  11.593  0.00  0.00    +0.000 A 
ATOM      8  C   UNL     1      44.210   8.993  11.173  0.00  0.00    +0.000 A 
ATOM      9  N   UNL     1      44.492  10.317  11.324  0.00  0.00    +0.000 NA
ATOM     10  C   UNL     1      45.656  10.607  11.939  0.00  0.00    +0.000 A 
ATOM     11  C   UNL     1      46.526   9.639  12.396  0.00  0.00    +0.000 A 
ATOM     12  F   UNL     1      47.676   9.985  12.991  0.00  0.00    +0.000 F 
ATOM     13  C   UNL     1      46.204   8.295  12.227  0.00  0.00    +0.000 A 
ENDBRANCH   4   7
BRANCH   1  14
ATOM     14  C   UNL     1      43.587   3.004  11.640  0.00  0.00    +0.000 C 
BRANCH  14  15
ATOM     15  O   UNL     1      43.450   3.474  10.295  0.00  0.00    +0.000 OA
BRANCH  15  19
ATOM     16  C   UNL     1      46.353   2.572   7.514  0.00  0.00    +0.000 A 
ATOM     17  C   UNL     1      45.947   1.539   8.349  0.00  0.00    +0.000 A 
ATOM     18  C   UNL     1      44.959   1.796   9.304  0.00  0.00    +0.000 A 
ATOM     19  C   UNL     1      44.406   3.071   9.404  0.00  0.00    +0.000 A 
ATOM     20  C   UNL     1      44.871   4.033   8.513  0.00  0.00    +0.000 A 
ATOM     21  N   UNL     1      45.830   3.820   7.575  0.00  0.00    +0.000 NA
BRANCH  16  23
ATOM     22  N   UNL     1      48.211   2.233   5.727  0.00  0.00    +0.000 NA
ATOM     23  C   UNL     1      47.379   2.356   6.528  0.00  0.00    +0.000 C 
ENDBRANCH  16  23
ENDBRANCH  15  19
ENDBRANCH  14  15
ENDBRANCH   1  14
TORSDOF 5
ENDMDL
MODEL 5
REMARK VINA RESULT:    -6.310      1.903      2.338
REMARK INTER + INTRA:          -8.846
REMARK INTER:                  -8.183
REMARK INTRA:                  -0.663
REMARK UNBOUND:                -0.692
REMARK  Name = 
REMARK  5 active torsions:
REMARK  status: ('A' for Active; 'I' for Inactive)
REMARK    1  A    between atoms: C_2  and  C_3
REMARK    2  A    between atoms: C_6  and  O_7
REMARK    3  A    between atoms: O_7  and  C_8
REMARK    4  A    between atoms: C_8  and  C_9
REMARK    5  A    between atoms: N_12  and  C_13
REMARK                            x       y       z     vdW  Elec       q    Type
REMARK                         _______ _______ _______ _____ _____    ______ ____
ROOT
ATOM      1  C   UNL     1      44.729   6.452  12.725  0.00  0.00    +0.000 C 
ATOM      2  C   UNL     1      45.456   7.806  12.834  0.00  0.00    +0.000 C 
ATOM      3  C   UNL     1      46.933   7.731  12.447  0.00  0.00    +0.000 C 
ATOM      4  N   UNL     1      47.594   6.643  13.172  0.00  0.00    +0.000 N 
ATOM      5  C   UNL     1      47.007   5.314  13.004  0.00  0.00    +0.000 C 
ATOM      6  C   UNL     1      45.539   5.355  13.440  0.00  0.00    +0.000 C 
ENDROOT
BRANCH   4   7
ATOM      7  C   UNL     1      48.603   6.864  14.094  0.00  0.00    +0.000 A 
ATOM      8  C   UNL     1      49.773   7.579  13.783  0.00  0.00    +0.000 A 
ATOM      9  N   UNL     1      50.805   7.841  14.631  0.00  0.00    +0.000 NA
ATOM     10  C   UNL     1      50.676   7.364  15.884  0.00  0.00    +0.000 A 
ATOM     11  C   UNL     1      49.573   6.650  16.307  0.00  0.00    +0.000 A 
ATOM     12  F   UNL     1      49.502   6.190  17.564  0.00  0.00    +0.000 F 
ATOM     13  C   UNL     1      48.535   6.403  15.414  0.00  0.00    +0.000 A 
ENDBRANCH   4   7
BRANCH   1  14
ATOM     14  C   UNL     1      44.409   6.038  11.277  0.00  0.00    +0.000 C 
BRANCH  14  15
ATOM     15  O   UNL     1      44.372   4.612  11.169  0.00  0.00    +0.000 OA
BRANCH  15  19
ATOM     16  C   UNL     1      46.031   3.272   7.644  0.00  0.00    +0.000 A 
ATOM     17  C   UNL     1      45.458   2.312   8.468  0.00  0.00    +0.000 A 
ATOM     18  C   UNL     1      44.876   2.720   9.672  0.00  0.00    +0.000 A 
ATOM     19  C   UNL     1      44.883   4.069  10.024  0.00  0.00    +0.000 A 
ATOM     20  C   UNL     1      45.471   4.953   9.124  0.00  0.00    +0.000 A 
ATOM     21  N   UNL     1      46.047   4.591   7.948  0.00  0.00    +0.000 NA
BRANCH  16  23
ATOM     22  N   UNL     1      47.126   2.616   5.379  0.00  0.00    +0.000 NA
ATOM     23  C   UNL     1      46.657   2.893   6.405  0.00  0.00    +0.000 C 
ENDBRANCH  16  23
ENDBRANCH  15  19
ENDBRANCH  14  15
ENDBRANCH   1  14
TORSDOF 5
ENDMDL
MODEL 6
REMARK VINA RESULT:    -5.784      1.809      2.393
REMARK INTER + INTRA:          -8.167
REMARK INTER:                  -8.227
REMARK INTRA:                   0.061
REMARK UNBOUND:                -0.692
REMARK  Name = 
REMARK  5 active torsions:
REMARK  status: ('A' for Active; 'I' for Inactive)
REMARK    1  A    between atoms: C_2  and  C_3
REMARK    2  A    between atoms: C_6  and  O_7
REMARK    3  A    between atoms: O_7  and  C_8
REMARK    4  A    between atoms: C_8  and  C_9
REMARK    5  A    between atoms: N_12  and  C_13
REMARK                            x       y       z     vdW  Elec       q    Type
REMARK                         _______ _______ _______ _____ _____    ______ ____
ROOT
ATOM      1  C   UNL     1      45.242   5.251  11.008  0.00  0.00    +0.000 C 
ATOM      2  C   UNL     1      46.176   4.557  12.018  0.00  0.00    +0.000 C 
ATOM      3  C   UNL     1      46.104   5.161  13.420  0.00  0.00    +0.000 C 
ATOM      4  N   UNL     1      46.274   6.614  13.357  0.00  0.00    +0.000 N 
ATOM      5  C   UNL     1      45.332   7.332  12.499  0.00  0.00    +0.000 C 
ATOM      6  C   UNL     1      45.429   6.778  11.074  0.00  0.00    +0.000 C 
ENDROOT
BRANCH   4   7
ATOM      7  C   UNL     1      47.354   7.265  13.929  0.00  0.00    +0.000 A 
ATOM      8  C   UNL     1      47.507   8.662  13.892  0.00  0.00    +0.000 A 
ATOM      9  N   UNL     1      48.534   9.374  14.431  0.00  0.00    +0.000 NA
ATOM     10  C   UNL     1      49.485   8.655  15.059  0.00  0.00    +0.000 A 
ATOM     11  C   UNL     1      49.444   7.279  15.162  0.00  0.00    +0.000 A 
ATOM     12  F   UNL     1      50.423   6.614  15.790  0.00  0.00    +0.000 F 
ATOM     13  C   UNL     1      48.376   6.584  14.601  0.00  0.00    +0.000 A 
ENDBRANCH   4   7
BRANCH   1  14
ATOM     14  C   UNL     1      43.758   4.874  11.179  0.00  0.00    +0.000 C 
BRANCH  14  15
ATOM     15  O   UNL     1      43.414   3.811  10.285  0.00  0.00    +0.000 OA
BRANCH  15  19
ATOM     16  C   UNL     1      46.294   2.327   7.740  0.00  0.00    +0.000 A 
ATOM     17  C   UNL     1      45.891   3.640   7.529  0.00  0.00    +0.000 A 
ATOM     18  C   UNL     1      44.921   4.189   8.372  0.00  0.00    +0.000 A 
ATOM     19  C   UNL     1      44.377   3.419   9.398  0.00  0.00    +0.000 A 
ATOM     20  C   UNL     1      44.856   2.120   9.535  0.00  0.00    +0.000 A 
ATOM     21  N   UNL     1      45.796   1.553   8.733  0.00  0.00    +0.000 NA
BRANCH  16  23
ATOM     22  N   UNL     1      48.068   1.264   6.164  0.00  0.00    +0.000 NA
ATOM     23  C   UNL     1      47.277   1.717   6.885  0.00  0.00    +0.000 C 
ENDBRANCH  16  23
ENDBRANCH  15  19
ENDBRANCH  14  15
ENDBRANCH   1  14
TORSDOF 5
ENDMDL
MODEL 7
REMARK VINA RESULT:    -5.548      3.611      8.172
REMARK INTER + INTRA:          -7.861
REMARK INTER:                  -7.144
REMARK INTRA:                  -0.717
REMARK UNBOUND:                -0.692
REMARK  Name = 
REMARK  5 active torsions:
REMARK  status: ('A' for Active; 'I' for Inactive)
REMARK    1  A    between atoms: C_2  and  C_3
REMARK    2  A    between atoms: C_6  and  O_7
REMARK    3  A    between atoms: O_7  and  C_8
REMARK    4  A    between atoms: C_8  and  C_9
REMARK    5  A    between atoms: N_12  and  C_13
REMARK                            x       y       z     vdW  Elec       q    Type
REMARK                         _______ _______ _______ _____ _____    ______ ____
ROOT
ATOM      1  C   UNL     1      46.650   8.399  12.154  0.00  0.00    +0.000 C 
ATOM      2  C   UNL     1      45.186   8.186  11.724  0.00  0.00    +0.000 C 
ATOM      3  C   UNL     1      44.617   6.838  12.166  0.00  0.00    +0.000 C 
ATOM      4  N   UNL     1      45.516   5.752  11.769  0.00  0.00    +0.000 N 
ATOM      5  C   UNL     1      46.892   5.851  12.254  0.00  0.00    +0.000 C 
ATOM      6  C   UNL     1      47.500   7.173  11.773  0.00  0.00    +0.000 C 
ENDROOT
BRANCH   4   7
ATOM      7  C   UNL     1      45.151   4.777  10.855  0.00  0.00    +0.000 A 
ATOM      8  C   UNL     1      44.356   3.671  11.201  0.00  0.00    +0.000 A 
ATOM      9  N   UNL     1      43.954   2.676  10.363  0.00  0.00    +0.000 NA
ATOM     10  C   UNL     1      44.364   2.779   9.084  0.00  0.00    +0.000 A 
ATOM     11  C   UNL     1      45.146   3.820   8.626  0.00  0.00    +0.000 A 
ATOM     12  F   UNL     1      45.534   3.865   7.344  0.00  0.00    +0.000 F 
ATOM     13  C   UNL     1      45.537   4.821   9.510  0.00  0.00    +0.000 A 
ENDBRANCH   4   7
BRANCH   1  14
ATOM     14  C   UNL     1      46.812   8.733  13.649  0.00  0.00    +0.000 C 
BRANCH  14  15
ATOM     15  O   UNL     1      48.200   8.795  13.992  0.00  0.00    +0.000 OA
BRANCH  15  19
ATOM     16  C   UNL     1      49.434   6.734  17.339  0.00  0.00    +0.000 A 
ATOM     17  C   UNL     1      48.930   8.012  17.544  0.00  0.00    +0.000 A 
ATOM     18  C   UNL     1      48.493   8.747  16.438  0.00  0.00    +0.000 A 
ATOM     19  C   UNL     1      48.571   8.193  15.162  0.00  0.00    +0.000 A 
ATOM     20  C   UNL     1      49.079   6.902  15.064  0.00  0.00    +0.000 A 
ATOM     21  N   UNL     1      49.515   6.160  16.115  0.00  0.00    +0.000 NA
BRANCH  16  23
ATOM     22  N   UNL     1      50.249   5.312  19.357  0.00  0.00    +0.000 NA
ATOM     23  C   UNL     1      49.912   5.949  18.447  0.00  0.00    +0.000 C 
ENDBRANCH  16  23
ENDBRANCH  15  19
ENDBRANCH  14  15
ENDBRANCH   1  14
TORSDOF 5
ENDMDL
MODEL 8
REMARK VINA RESULT:    -5.443      3.916      8.559
REMARK INTER + INTRA:          -7.726
REMARK INTER:                  -7.049
REMARK INTRA:                  -0.677
REMARK UNBOUND:                -0.692
REMARK  Name = 
REMARK  5 active torsions:
REMARK  status: ('A' for Active; 'I' for Inactive)
REMARK    1  A    between atoms: C_2  and  C_3
REMARK    2  A    between atoms: C_6  and  O_7
REMARK    3  A    between atoms: O_7  and  C_8
REMARK    4  A    between atoms: C_8  and  C_9
REMARK    5  A    between atoms: N_12  and  C_13
REMARK                            x       y       z     vdW  Elec       q    Type
REMARK                         _______ _______ _______ _____ _____    ______ ____
ROOT
ATOM      1  C   UNL     1      48.224   7.780  12.905  0.00  0.00    +0.000 C 
ATOM      2  C   UNL     1      46.924   8.162  12.171  0.00  0.00    +0.000 C 
ATOM      3  C   UNL     1      45.679   7.501  12.764  0.00  0.00    +0.000 C 
ATOM      4  N   UNL     1      45.884   6.057  12.895  0.00  0.00    +0.000 N 
ATOM      5  C   UNL     1      47.043   5.644  13.686  0.00  0.00    +0.000 C 
ATOM      6  C   UNL     1      48.310   6.252  13.073  0.00  0.00    +0.000 C 
ENDROOT
BRANCH   4   7
ATOM      7  C   UNL     1      45.140   5.130  12.185  0.00  0.00    +0.000 A 
ATOM      8  C   UNL     1      44.513   4.031  12.796  0.00  0.00    +0.000 A 
ATOM      9  N   UNL     1      43.764   3.081  12.170  0.00  0.00    +0.000 NA
ATOM     10  C   UNL     1      43.619   3.226  10.838  0.00  0.00    +0.000 A 
ATOM     11  C   UNL     1      44.185   4.266  10.129  0.00  0.00    +0.000 A 
ATOM     12  F   UNL     1      44.017   4.355   8.803  0.00  0.00    +0.000 F 
ATOM     13  C   UNL     1      44.943   5.220  10.802  0.00  0.00    +0.000 A 
ENDBRANCH   4   7
BRANCH   1  14
ATOM     14  C   UNL     1      48.397   8.489  14.262  0.00  0.00    +0.000 C 
BRANCH  14  15
ATOM     15  O   UNL     1      49.258   7.724  15.111  0.00  0.00    +0.000 OA
BRANCH  15  19
ATOM     16  C   UNL     1      48.034   6.756  18.924  0.00  0.00    +0.000 A 
ATOM     17  C   UNL     1      48.010   8.103  18.584  0.00  0.00    +0.000 A 
ATOM     18  C   UNL     1      48.410   8.478  17.298  0.00  0.00    +0.000 A 
ATOM     19  C   UNL     1      48.825   7.507  16.389  0.00  0.00    +0.000 A 
ATOM     20  C   UNL     1      48.801   6.185  16.823  0.00  0.00    +0.000 A 
ATOM     21  N   UNL     1      48.421   5.784  18.063  0.00  0.00    +0.000 NA
BRANCH  16  23
ATOM     22  N   UNL     1      47.371   5.943  21.303  0.00  0.00    +0.000 NA
ATOM     23  C   UNL     1      47.647   6.326  20.242  0.00  0.00    +0.000 C 
ENDBRANCH  16  23
ENDBRANCH  15  19
ENDBRANCH  14  15
ENDBRANCH   1  14
TORSDOF 5
ENDMDL
MODEL 9
REMARK VINA RESULT:    -5.310      4.911      7.031
REMARK INTER + INTRA:          -7.554
REMARK INTER:                  -6.864
REMARK INTRA:                  -0.690
REMARK UNBOUND:                -0.692
REMARK  Name = 
REMARK  5 active torsions:
REMARK  status: ('A' for Active; 'I' for Inactive)
REMARK    1  A    between atoms: C_2  and  C_3
REMARK    2  A    between atoms: C_6  and  O_7
REMARK    3  A    between atoms: O_7  and  C_8
REMARK    4  A    between atoms: C_8  and  C_9
REMARK    5  A    between atoms: N_12  and  C_13
REMARK                            x       y       z     vdW  Elec       q    Type
REMARK                         _______ _______ _______ _____ _____    ______ ____
ROOT
ATOM      1  C   UNL     1      46.851   8.608  13.328  0.00  0.00    +0.000 C 
ATOM      2  C   UNL     1      47.410   7.202  13.624  0.00  0.00    +0.000 C 
ATOM      3  C   UNL     1      47.315   6.252  12.430  0.00  0.00    +0.000 C 
ATOM      4  N   UNL     1      45.954   6.248  11.890  0.00  0.00    +0.000 N 
ATOM      5  C   UNL     1      45.423   7.548  11.484  0.00  0.00    +0.000 C 
ATOM      6  C   UNL     1      45.457   8.500  12.684  0.00  0.00    +0.000 C 
ENDROOT
BRANCH   4   7
ATOM      7  C   UNL     1      45.145   5.123  11.912  0.00  0.00    +0.000 A 
ATOM      8  C   UNL     1      44.470   4.695  13.067  0.00  0.00    +0.000 A 
ATOM      9  N   UNL     1      43.658   3.607  13.168  0.00  0.00    +0.000 NA
ATOM     10  C   UNL     1      43.495   2.885  12.042  0.00  0.00    +0.000 A 
ATOM     11  C   UNL     1      44.105   3.208  10.847  0.00  0.00    +0.000 A 
ATOM     12  F   UNL     1      43.916   2.447   9.760  0.00  0.00    +0.000 F 
ATOM     13  C   UNL     1      44.927   4.329  10.780  0.00  0.00    +0.000 A 
ENDBRANCH   4   7
BRANCH   1  14
ATOM     14  C   UNL     1      47.786   9.474  12.464  0.00  0.00    +0.000 C 
BRANCH  14  15
ATOM     15  O   UNL     1      49.127   9.393  12.957  0.00  0.00    +0.000 OA
BRANCH  15  19
ATOM     16  C   UNL     1      52.144   8.818  10.211  0.00  0.00    +0.000 A 
ATOM     17  C   UNL     1      51.484   7.681  10.660  0.00  0.00    +0.000 A 
ATOM     18  C   UNL     1      50.449   7.828  11.588  0.00  0.00    +0.000 A 
ATOM     19  C   UNL     1      50.100   9.098  12.044  0.00  0.00    +0.000 A 
ATOM     20  C   UNL     1      50.813  10.173  11.524  0.00  0.00    +0.000 A 
ATOM     21  N   UNL     1      51.826  10.068  10.624  0.00  0.00    +0.000 NA
BRANCH  16  23
ATOM     22  N   UNL     1      54.112   8.676   8.518  0.00  0.00    +0.000 NA
ATOM     23  C   UNL     1      53.228   8.712   9.270  0.00  0.00    +0.000 C 
ENDBRANCH  16  23
ENDBRANCH  15  19
ENDBRANCH  14  15
ENDBRANCH   1  14
TORSDOF 5
ENDMDL
