MODEL 1
REMARK VINA RESULT:    -7.059      0.000      0.000
REMARK INTER + INTRA:         -11.140
REMARK INTER:                  -9.947
REMARK INTRA:                  -1.192
REMARK UNBOUND:                -1.192
REMARK  Name = 
REMARK  8 active torsions:
REMARK  status: ('A' for Active; 'I' for Inactive)
REMARK    1  A    between atoms: C_1  and  O_2
REMARK    2  A    between atoms: O_2  and  C_3
REMARK    3  A    between atoms: C_8  and  C_9
REMARK    4  A    between atoms: N_11  and  C_12
REMARK    5  A    between atoms: C_12  and  C_13
REMARK    6  A    between atoms: C_16  and  C_17
REMARK    7  A    between atoms: C_17  and  N_18
REMARK    8  A    between atoms: C_19  and  C_21
REMARK                            x       y       z     vdW  Elec       q    Type
REMARK                         _______ _______ _______ _____ _____    ______ ____
ROOT
ATOM      1  C   UNL     1      50.367   7.419  15.334  0.00  0.00    +0.000 A 
ATOM      2  C   UNL     1      50.775   8.054  14.153  0.00  0.00    +0.000 A 
ATOM      3  C   UNL     1      49.904   8.175  13.063  0.00  0.00    +0.000 A 
ATOM      4  C   UNL     1      48.594   7.682  13.136  0.00  0.00    +0.000 A 
ATOM      5  C   UNL     1      48.185   7.047  14.317  0.00  0.00    +0.000 A 
ATOM      6  C   UNL     1      49.056   6.926  15.406  0.00  0.00    +0.000 A 
ENDROOT
BRANCH   1   7
ATOM      7  C   UNL     1      51.329   7.230  16.480  0.00  0.00    +0.000 C 
BRANCH   7  10
ATOM      8  C   UNL     1      51.194   5.118  17.740  0.00  0.00    +0.000 C 
ATOM      9  O   UNL     1      50.392   5.603  18.531  0.00  0.00    +0.000 OA
ATOM     10  N   UNL     1      51.721   5.858  16.690  0.00  0.00    +0.000 N 
ATOM     11  H   UNL     1      52.387   5.395  16.079  0.00  0.00    +0.000 HD
BRANCH   8  17
ATOM     12  C   UNL     1      50.962   2.601  17.310  0.00  0.00    +0.000 A 
ATOM     13  C   UNL     1      51.538   1.333  17.438  0.00  0.00    +0.000 A 
ATOM     14  C   UNL     1      52.767   1.180  18.073  0.00  0.00    +0.000 A 
ATOM     15  C   UNL     1      53.400   2.308  18.564  0.00  0.00    +0.000 A 
ATOM     16  N   UNL     1      52.900   3.556  18.455  0.00  0.00    +0.000 NA
ATOM     17  C   UNL     1      51.688   3.688  17.823  0.00  0.00    +0.000 A 
BRANCH  12  19
ATOM     18  C   UNL     1      48.593   2.724  17.469  0.00  0.00    +0.000 C 
ATOM     19  O   UNL     1      49.771   2.812  16.673  0.00  0.00    +0.000 OA
ENDBRANCH  12  19
ENDBRANCH   8  17
ENDBRANCH   7  10
ENDBRANCH   1   7
BRANCH   4  20
ATOM     20  C   UNL     1      47.654   7.793  11.961  0.00  0.00    +0.000 C 
BRANCH  20  21
ATOM     21  N   UNL     1      46.958   6.553  11.718  0.00  0.00    +0.000 N 
ATOM     22  C   UNL     1      45.595   6.462  11.860  0.00  0.00    +0.000 C 
ATOM     23  O   UNL     1      44.908   7.434  12.165  0.00  0.00    +0.000 OA
ATOM     24  H   UNL     1      47.517   5.706  11.697  0.00  0.00    +0.000 HD
BRANCH  22  25
ATOM     25  C   UNL     1      44.983   5.158  11.568  0.00  0.00    +0.000 A 
ATOM     26  C   UNL     1      44.282   4.486  12.561  0.00  0.00    +0.000 A 
ATOM     27  S   UNL     1      43.588   3.019  12.035  0.00  0.00    +0.000 S 
ATOM     28  C   UNL     1      44.248   3.202  10.476  0.00  0.00    +0.000 A 
ATOM     29  N   UNL     1      44.047   2.258   9.518  0.00  0.00    +0.000 NA
ATOM     30  C   UNL     1      44.629   2.508   8.393  0.00  0.00    +0.000 A 
ATOM     31  N   UNL     1      45.390   3.620   8.138  0.00  0.00    +0.000 N 
ATOM     32  C   UNL     1      45.601   4.610   9.068  0.00  0.00    +0.000 A 
ATOM     33  O   UNL     1      46.262   5.607   8.798  0.00  0.00    +0.000 OA
ATOM     34  C   UNL     1      44.972   4.375  10.354  0.00  0.00    +0.000 A 
ATOM     35  H   UNL     1      45.815   3.760   7.234  0.00  0.00    +0.000 HD
ENDBRANCH  22  25
ENDBRANCH  20  21
ENDBRANCH   4  20
TORSDOF 7
ENDMDL
MODEL 2
REMARK VINA RESULT:    -7.019      2.937      9.678
REMARK INTER + INTRA:         -11.083
REMARK INTER:                 -10.046
REMARK INTRA:                  -1.038
REMARK UNBOUND:                -1.192
REMARK  Name = 
REMARK  8 active torsions:
REMARK  status: ('A' for Active; 'I' for Inactive)
REMARK    1  A    between atoms: C_1  and  O_2
REMARK    2  A    between atoms: O_2  and  C_3
REMARK    3  A    between atoms: C_8  and  C_9
REMARK    4  A    between atoms: N_11  and  C_12
REMARK    5  A    between atoms: C_12  and  C_13
REMARK    6  A    between atoms: C_16  and  C_17
REMARK    7  A    between atoms: C_17  and  N_18
REMARK    8  A    between atoms: C_19  and  C_21
REMARK                            x       y       z     vdW  Elec       q    Type
REMARK                         _______ _______ _______ _____ _____    ______ ____
ROOT
ATOM      1  C   UNL     1      47.212   6.204  13.919  0.00  0.00    +0.000 A 
ATOM      2  C   UNL     1      46.680   4.961  14.289  0.00  0.00    +0.000 A 
ATOM      3  C   UNL     1      47.128   4.302  15.441  0.00  0.00    +0.000 A 
ATOM      4  C   UNL     1      48.105   4.881  16.263  0.00  0.00    +0.000 A 
ATOM      5  C   UNL     1      48.636   6.124  15.894  0.00  0.00    +0.000 A 
ATOM      6  C   UNL     1      48.188   6.783  14.743  0.00  0.00    +0.000 A 
ENDROOT
BRANCH   1   7
ATOM      7  C   UNL     1      46.776   6.880  12.643  0.00  0.00    +0.000 C 
BRANCH   7  10
ATOM      8  C   UNL     1      45.348   5.953  10.863  0.00  0.00    +0.000 C 
ATOM      9  O   UNL     1      44.425   6.699  11.170  0.00  0.00    +0.000 OA
ATOM     10  N   UNL     1      46.556   5.968  11.548  0.00  0.00    +0.000 N 
ATOM     11  H   UNL     1      47.274   5.316  11.245  0.00  0.00    +0.000 HD
BRANCH   8  17
ATOM     12  C   UNL     1      44.321   3.921   9.686  0.00  0.00    +0.000 A 
ATOM     13  C   UNL     1      44.348   3.072   8.574  0.00  0.00    +0.000 A 
ATOM     14  C   UNL     1      45.305   3.251   7.578  0.00  0.00    +0.000 A 
ATOM     15  C   UNL     1      46.214   4.284   7.715  0.00  0.00    +0.000 A 
ATOM     16  N   UNL     1      46.225   5.142   8.757  0.00  0.00    +0.000 NA
ATOM     17  C   UNL     1      45.272   4.953   9.728  0.00  0.00    +0.000 A 
BRANCH  12  19
ATOM     18  C   UNL     1      43.564   2.741  11.607  0.00  0.00    +0.000 C 
ATOM     19  O   UNL     1      43.388   3.807  10.679  0.00  0.00    +0.000 OA
ENDBRANCH  12  19
ENDBRANCH   8  17
ENDBRANCH   7  10
ENDBRANCH   1   7
BRANCH   4  20
ATOM     20  C   UNL     1      48.605   4.170  17.496  0.00  0.00    +0.000 C 
BRANCH  20  21
ATOM     21  N   UNL     1      50.003   3.829  17.383  0.00  0.00    +0.000 N 
ATOM     22  C   UNL     1      50.887   4.107  18.396  0.00  0.00    +0.000 C 
ATOM     23  O   UNL     1      50.525   4.624  19.450  0.00  0.00    +0.000 OA
ATOM     24  H   UNL     1      50.355   3.623  16.453  0.00  0.00    +0.000 HD
BRANCH  22  25
ATOM     25  C   UNL     1      52.283   3.699  18.187  0.00  0.00    +0.000 A 
ATOM     26  C   UNL     1      53.304   4.628  18.343  0.00  0.00    +0.000 A 
ATOM     27  S   UNL     1      54.864   3.973  18.123  0.00  0.00    +0.000 S 
ATOM     28  C   UNL     1      54.228   2.438  17.756  0.00  0.00    +0.000 A 
ATOM     29  N   UNL     1      55.048   1.399  17.441  0.00  0.00    +0.000 NA
ATOM     30  C   UNL     1      54.431   0.301  17.156  0.00  0.00    +0.000 A 
ATOM     31  N   UNL     1      53.069   0.147  17.160  0.00  0.00    +0.000 N 
ATOM     32  C   UNL     1      52.203   1.161  17.493  0.00  0.00    +0.000 A 
ATOM     33  O   UNL     1      50.991   0.982  17.516  0.00  0.00    +0.000 OA
ATOM     34  C   UNL     1      52.845   2.420  17.818  0.00  0.00    +0.000 A 
ATOM     35  H   UNL     1      52.648  -0.741  16.931  0.00  0.00    +0.000 HD
ENDBRANCH  22  25
ENDBRANCH  20  21
ENDBRANCH   4  20
TORSDOF 7
ENDMDL
MODEL 3
REMARK VINA RESULT:    -6.881      2.787      9.568
REMARK INTER + INTRA:         -10.889
REMARK INTER:                  -9.914
REMARK INTRA:                  -0.975
REMARK UNBOUND:                -1.192
REMARK  Name = 
REMARK  8 active torsions:
REMARK  status: ('A' for Active; 'I' for Inactive)
REMARK    1  A    between atoms: C_1  and  O_2
REMARK    2  A    between atoms: O_2  and  C_3
REMARK    3  A    between atoms: C_8  and  C_9
REMARK    4  A    between atoms: N_11  and  C_12
REMARK    5  A    between atoms: C_12  and  C_13
REMARK    6  A    between atoms: C_16  and  C_17
REMARK    7  A    between atoms: C_17  and  N_18
REMARK    8  A    between atoms: C_19  and  C_21
REMARK                            x       y       z     vdW  Elec       q    Type
REMARK                         _______ _______ _______ _____ _____    ______ ____
ROOT
ATOM      1  C   UNL     1      47.573   5.943  14.274  0.00  0.00    +0.000 A 
ATOM      2  C   UNL     1      46.967   4.699  14.496  0.00  0.00    +0.000 A 
ATOM      3  C   UNL     1      47.197   3.989  15.682  0.00  0.00    +0.000 A 
ATOM      4  C   UNL     1      48.022   4.517  16.684  0.00  0.00    +0.000 A 
ATOM      5  C   UNL     1      48.627   5.762  16.463  0.00  0.00    +0.000 A 
ATOM      6  C   UNL     1      48.398   6.471  15.278  0.00  0.00    +0.000 A 
ENDROOT
BRANCH   1   7
ATOM      7  C   UNL     1      47.378   6.674  12.969  0.00  0.00    +0.000 C 
BRANCH   7  10
ATOM      8  C   UNL     1      45.798   6.133  11.158  0.00  0.00    +0.000 C 
ATOM      9  O   UNL     1      45.118   7.121  11.412  0.00  0.00    +0.000 OA
ATOM     10  N   UNL     1      46.939   5.826  11.888  0.00  0.00    +0.000 N 
ATOM     11  H   UNL     1      47.450   4.987  11.628  0.00  0.00    +0.000 HD
BRANCH   8  17
ATOM     12  C   UNL     1      44.505   4.151  10.174  0.00  0.00    +0.000 A 
ATOM     13  C   UNL     1      44.291   3.325   9.065  0.00  0.00    +0.000 A 
ATOM     14  C   UNL     1      45.038   3.501   7.904  0.00  0.00    +0.000 A 
ATOM     15  C   UNL     1      45.985   4.510   7.876  0.00  0.00    +0.000 A 
ATOM     16  N   UNL     1      46.223   5.344   8.909  0.00  0.00    +0.000 NA
ATOM     17  C   UNL     1      45.474   5.159  10.045  0.00  0.00    +0.000 A 
BRANCH  12  19
ATOM     18  C   UNL     1      43.377   2.728  11.709  0.00  0.00    +0.000 C 
ATOM     19  O   UNL     1      43.782   4.039  11.329  0.00  0.00    +0.000 OA
ENDBRANCH  12  19
ENDBRANCH   8  17
ENDBRANCH   7  10
ENDBRANCH   1   7
BRANCH   4  20
ATOM     20  C   UNL     1      48.288   3.752  17.956  0.00  0.00    +0.000 C 
BRANCH  20  21
ATOM     21  N   UNL     1      49.685   3.416  18.094  0.00  0.00    +0.000 N 
ATOM     22  C   UNL     1      50.252   2.410  17.352  0.00  0.00    +0.000 C 
ATOM     23  O   UNL     1      49.608   1.777  16.518  0.00  0.00    +0.000 OA
ATOM     24  H   UNL     1      50.163   3.758  18.922  0.00  0.00    +0.000 HD
BRANCH  22  25
ATOM     25  C   UNL     1      51.686   2.164  17.554  0.00  0.00    +0.000 A 
ATOM     26  C   UNL     1      52.162   0.860  17.614  0.00  0.00    +0.000 A 
ATOM     27  S   UNL     1      53.855   0.756  17.793  0.00  0.00    +0.000 S 
ATOM     28  C   UNL     1      54.008   2.450  17.855  0.00  0.00    +0.000 A 
ATOM     29  N   UNL     1      55.223   3.037  18.024  0.00  0.00    +0.000 NA
ATOM     30  C   UNL     1      55.190   4.326  18.082  0.00  0.00    +0.000 A 
ATOM     31  N   UNL     1      54.051   5.083  17.985  0.00  0.00    +0.000 N 
ATOM     32  C   UNL     1      52.804   4.535  17.790  0.00  0.00    +0.000 A 
ATOM     33  O   UNL     1      51.809   5.242  17.677  0.00  0.00    +0.000 OA
ATOM     34  C   UNL     1      52.785   3.087  17.722  0.00  0.00    +0.000 A 
ATOM     35  H   UNL     1      54.092   6.090  18.034  0.00  0.00    +0.000 HD
ENDBRANCH  22  25
ENDBRANCH  20  21
ENDBRANCH   4  20
TORSDOF 7
ENDMDL
MODEL 4
REMARK VINA RESULT:    -6.824      5.093     10.698
REMARK INTER + INTRA:         -10.809
REMARK INTER:                  -9.587
REMARK INTRA:                  -1.222
REMARK UNBOUND:                -1.192
REMARK  Name = 
REMARK  8 active torsions:
REMARK  status: ('A' for Active; 'I' for Inactive)
REMARK    1  A    between atoms: C_1  and  O_2
REMARK    2  A    between atoms: O_2  and  C_3
REMARK    3  A    between atoms: C_8  and  C_9
REMARK    4  A    between atoms: N_11  and  C_12
REMARK    5  A    between atoms: C_12  and  C_13
REMARK    6  A    between atoms: C_16  and  C_17
REMARK    7  A    between atoms: C_17  and  N_18
REMARK    8  A    between atoms: C_19  and  C_21
REMARK                            x       y       z     vdW  Elec       q    Type
REMARK                         _______ _______ _______ _____ _____    ______ ____
ROOT
ATOM      1  C   UNL     1      44.276   8.609  11.421  0.00  0.00    +0.000 A 
ATOM      2  C   UNL     1      43.873   7.319  11.051  0.00  0.00    +0.000 A 
ATOM      3  C   UNL     1      44.537   6.189  11.545  0.00  0.00    +0.000 A 
ATOM      4  C   UNL     1      45.608   6.322  12.438  0.00  0.00    +0.000 A 
ATOM      5  C   UNL     1      46.012   7.613  12.809  0.00  0.00    +0.000 A 
ATOM      6  C   UNL     1      45.349   8.742  12.315  0.00  0.00    +0.000 A 
ENDROOT
BRANCH   1   7
ATOM      7  C   UNL     1      43.603   9.826  10.834  0.00  0.00    +0.000 C 
BRANCH   7  10
ATOM      8  C   UNL     1      42.109  11.466  11.904  0.00  0.00    +0.000 C 
ATOM      9  O   UNL     1      42.936  12.359  11.764  0.00  0.00    +0.000 OA
ATOM     10  N   UNL     1      42.358  10.168  11.477  0.00  0.00    +0.000 N 
ATOM     11  H   UNL     1      41.632   9.476  11.633  0.00  0.00    +0.000 HD
BRANCH   8  17
ATOM     12  C   UNL     1      39.555  11.253  11.948  0.00  0.00    +0.000 A 
ATOM     13  C   UNL     1      38.370  11.494  12.653  0.00  0.00    +0.000 A 
ATOM     14  C   UNL     1      38.405  12.149  13.881  0.00  0.00    +0.000 A 
ATOM     15  C   UNL     1      39.632  12.545  14.383  0.00  0.00    +0.000 A 
ATOM     16  N   UNL     1      40.806  12.326  13.755  0.00  0.00    +0.000 NA
ATOM     17  C   UNL     1      40.753  11.675  12.546  0.00  0.00    +0.000 A 
BRANCH  12  19
ATOM     18  C   UNL     1      38.372  10.578  10.000  0.00  0.00    +0.000 C 
ATOM     19  O   UNL     1      39.581  10.592  10.752  0.00  0.00    +0.000 OA
ENDBRANCH  12  19
ENDBRANCH   8  17
ENDBRANCH   7  10
ENDBRANCH   1   7
BRANCH   4  20
ATOM     20  C   UNL     1      46.340   5.111  12.962  0.00  0.00    +0.000 C 
BRANCH  20  21
ATOM     21  N   UNL     1      46.883   5.345  14.278  0.00  0.00    +0.000 N 
ATOM     22  C   UNL     1      47.349   4.310  15.050  0.00  0.00    +0.000 C 
ATOM     23  O   UNL     1      47.358   3.150  14.643  0.00  0.00    +0.000 OA
ATOM     24  H   UNL     1      46.672   6.238  14.713  0.00  0.00    +0.000 HD
BRANCH  22  25
ATOM     25  C   UNL     1      47.900   4.659  16.366  0.00  0.00    +0.000 A 
ATOM     26  C   UNL     1      47.446   4.000  17.502  0.00  0.00    +0.000 A 
ATOM     27  S   UNL     1      48.232   4.487  18.936  0.00  0.00    +0.000 S 
ATOM     28  C   UNL     1      49.167   5.637  18.098  0.00  0.00    +0.000 A 
ATOM     29  N   UNL     1      50.052   6.431  18.758  0.00  0.00    +0.000 NA
ATOM     30  C   UNL     1      50.672   7.278  18.005  0.00  0.00    +0.000 A 
ATOM     31  N   UNL     1      50.489   7.400  16.652  0.00  0.00    +0.000 N 
ATOM     32  C   UNL     1      49.623   6.603  15.940  0.00  0.00    +0.000 A 
ATOM     33  O   UNL     1      49.505   6.718  14.726  0.00  0.00    +0.000 OA
ATOM     34  C   UNL     1      48.896   5.636  16.740  0.00  0.00    +0.000 A 
ATOM     35  H   UNL     1      51.009   8.080  16.118  0.00  0.00    +0.000 HD
ENDBRANCH  22  25
ENDBRANCH  20  21
ENDBRANCH   4  20
TORSDOF 7
ENDMDL
MODEL 5
REMARK VINA RESULT:    -6.777      1.465      2.048
REMARK INTER + INTRA:         -10.743
REMARK INTER:                  -9.433
REMARK INTRA:                  -1.310
REMARK UNBOUND:                -1.192
REMARK  Name = 
REMARK  8 active torsions:
REMARK  status: ('A' for Active; 'I' for Inactive)
REMARK    1  A    between atoms: C_1  and  O_2
REMARK    2  A    between atoms: O_2  and  C_3
REMARK    3  A    between atoms: C_8  and  C_9
REMARK    4  A    between atoms: N_11  and  C_12
REMARK    5  A    between atoms: C_12  and  C_13
REMARK    6  A    between atoms: C_16  and  C_17
REMARK    7  A    between atoms: C_17  and  N_18
REMARK    8  A    between atoms: C_19  and  C_21
REMARK                            x       y       z     vdW  Elec       q    Type
REMARK                         _______ _______ _______ _____ _____    ______ ____
ROOT
ATOM      1  C   UNL     1      49.650   7.204  16.126  0.00  0.00    +0.000 A 
ATOM      2  C   UNL     1      50.189   8.277  15.403  0.00  0.00    +0.000 A 
ATOM      3  C   UNL     1      49.745   8.566  14.106  0.00  0.00    +0.000 A 
ATOM      4  C   UNL     1      48.735   7.800  13.509  0.00  0.00    +0.000 A 
ATOM      5  C   UNL     1      48.195   6.727  14.232  0.00  0.00    +0.000 A 
ATOM      6  C   UNL     1      48.639   6.438  15.528  0.00  0.00    +0.000 A 
ENDROOT
BRANCH   1   7
ATOM      7  C   UNL     1      50.178   6.854  17.495  0.00  0.00    +0.000 C 
BRANCH   7  10
ATOM      8  C   UNL     1      51.837   5.037  17.383  0.00  0.00    +0.000 C 
ATOM      9  O   UNL     1      52.710   5.813  17.009  0.00  0.00    +0.000 OA
ATOM     10  N   UNL     1      50.542   5.466  17.642  0.00  0.00    +0.000 N 
ATOM     11  H   UNL     1      49.868   4.767  17.939  0.00  0.00    +0.000 HD
BRANCH   8  17
ATOM     12  C   UNL     1      51.134   2.577  17.230  0.00  0.00    +0.000 A 
ATOM     13  C   UNL     1      51.480   1.242  17.468  0.00  0.00    +0.000 A 
ATOM     14  C   UNL     1      52.696   0.928  18.066  0.00  0.00    +0.000 A 
ATOM     15  C   UNL     1      53.549   1.962  18.410  0.00  0.00    +0.000 A 
ATOM     16  N   UNL     1      53.275   3.265  18.190  0.00  0.00    +0.000 NA
ATOM     17  C   UNL     1      52.072   3.556  17.596  0.00  0.00    +0.000 A 
BRANCH  12  19
ATOM     18  C   UNL     1      48.776   2.310  17.088  0.00  0.00    +0.000 C 
ATOM     19  O   UNL     1      49.965   2.940  16.623  0.00  0.00    +0.000 OA
ENDBRANCH  12  19
ENDBRANCH   8  17
ENDBRANCH   7  10
ENDBRANCH   1   7
BRANCH   4  20
ATOM     20  C   UNL     1      48.263   8.093  12.107  0.00  0.00    +0.000 C 
BRANCH  20  21
ATOM     21  N   UNL     1      47.576   6.963  11.529  0.00  0.00    +0.000 N 
ATOM     22  C   UNL     1      46.208   6.941  11.421  0.00  0.00    +0.000 C 
ATOM     23  O   UNL     1      45.513   7.890  11.777  0.00  0.00    +0.000 OA
ATOM     24  H   UNL     1      48.099   6.096  11.449  0.00  0.00    +0.000 HD
BRANCH  22  25
ATOM     25  C   UNL     1      45.610   5.751  10.799  0.00  0.00    +0.000 A 
ATOM     26  C   UNL     1      45.770   5.530   9.437  0.00  0.00    +0.000 A 
ATOM     27  S   UNL     1      45.065   4.074   8.893  0.00  0.00    +0.000 S 
ATOM     28  C   UNL     1      44.471   3.716  10.447  0.00  0.00    +0.000 A 
ATOM     29  N   UNL     1      43.739   2.593  10.674  0.00  0.00    +0.000 NA
ATOM     30  C   UNL     1      43.328   2.461  11.891  0.00  0.00    +0.000 A 
ATOM     31  N   UNL     1      43.585   3.350  12.902  0.00  0.00    +0.000 N 
ATOM     32  C   UNL     1      44.339   4.486  12.726  0.00  0.00    +0.000 A 
ATOM     33  O   UNL     1      44.575   5.245  13.658  0.00  0.00    +0.000 OA
ATOM     34  C   UNL     1      44.823   4.685  11.373  0.00  0.00    +0.000 A 
ATOM     35  H   UNL     1      43.238   3.187  13.836  0.00  0.00    +0.000 HD
ENDBRANCH  22  25
ENDBRANCH  20  21
ENDBRANCH   4  20
TORSDOF 7
ENDMDL
MODEL 6
REMARK VINA RESULT:    -6.770      5.138      8.131
REMARK INTER + INTRA:         -10.733
REMARK INTER:                  -9.413
REMARK INTRA:                  -1.320
REMARK UNBOUND:                -1.192
REMARK  Name = 
REMARK  8 active torsions:
REMARK  status: ('A' for Active; 'I' for Inactive)
REMARK    1  A    between atoms: C_1  and  O_2
REMARK    2  A    between atoms: O_2  and  C_3
REMARK    3  A    between atoms: C_8  and  C_9
REMARK    4  A    between atoms: N_11  and  C_12
REMARK    5  A    between atoms: C_12  and  C_13
REMARK    6  A    between atoms: C_16  and  C_17
REMARK    7  A    between atoms: C_17  and  N_18
REMARK    8  A    between atoms: C_19  and  C_21
REMARK                            x       y       z     vdW  Elec       q    Type
REMARK                         _______ _______ _______ _____ _____    ______ ____
ROOT
ATOM      1  C   UNL     1      48.981   6.991  14.044  0.00  0.00    +0.000 A 
ATOM      2  C   UNL     1      50.066   7.554  14.730  0.00  0.00    +0.000 A 
ATOM      3  C   UNL     1      51.088   8.216  14.038  0.00  0.00    +0.000 A 
ATOM      4  C   UNL     1      51.038   8.350  12.644  0.00  0.00    +0.000 A 
ATOM      5  C   UNL     1      49.953   7.788  11.958  0.00  0.00    +0.000 A 
ATOM      6  C   UNL     1      48.932   7.126  12.650  0.00  0.00    +0.000 A 
ENDROOT
BRANCH   1   7
ATOM      7  C   UNL     1      47.917   6.220  14.786  0.00  0.00    +0.000 C 
BRANCH   7  10
ATOM      8  C   UNL     1      46.644   4.575  13.467  0.00  0.00    +0.000 C 
ATOM      9  O   UNL     1      47.480   3.706  13.683  0.00  0.00    +0.000 OA
ATOM     10  N   UNL     1      46.783   5.862  13.970  0.00  0.00    +0.000 N 
ATOM     11  H   UNL     1      46.056   6.535  13.744  0.00  0.00    +0.000 HD
BRANCH   8  17
ATOM     12  C   UNL     1      44.967   5.237  11.644  0.00  0.00    +0.000 A 
ATOM     13  C   UNL     1      43.803   4.902  10.944  0.00  0.00    +0.000 A 
ATOM     14  C   UNL     1      43.104   3.741  11.261  0.00  0.00    +0.000 A 
ATOM     15  C   UNL     1      43.591   2.932  12.273  0.00  0.00    +0.000 A 
ATOM     16  N   UNL     1      44.715   3.198  12.970  0.00  0.00    +0.000 NA
ATOM     17  C   UNL     1      45.394   4.347  12.642  0.00  0.00    +0.000 A 
BRANCH  12  19
ATOM     18  C   UNL     1      45.049   7.608  11.484  0.00  0.00    +0.000 C 
ATOM     19  O   UNL     1      45.706   6.351  11.358  0.00  0.00    +0.000 OA
ENDBRANCH  12  19
ENDBRANCH   8  17
ENDBRANCH   7  10
ENDBRANCH   1   7
BRANCH   4  20
ATOM     20  C   UNL     1      52.143   9.046  11.889  0.00  0.00    +0.000 C 
BRANCH  20  21
ATOM     21  N   UNL     1      52.264   8.547  10.540  0.00  0.00    +0.000 N 
ATOM     22  C   UNL     1      53.336   8.881   9.751  0.00  0.00    +0.000 C 
ATOM     23  O   UNL     1      54.252   9.587  10.165  0.00  0.00    +0.000 OA
ATOM     24  H   UNL     1      51.425   8.167  10.112  0.00  0.00    +0.000 HD
BRANCH  22  25
ATOM     25  C   UNL     1      53.371   8.302   8.401  0.00  0.00    +0.000 A 
ATOM     26  C   UNL     1      53.281   9.133   7.291  0.00  0.00    +0.000 A 
ATOM     27  S   UNL     1      53.399   8.303   5.804  0.00  0.00    +0.000 S 
ATOM     28  C   UNL     1      53.517   6.798   6.590  0.00  0.00    +0.000 A 
ATOM     29  N   UNL     1      53.621   5.644   5.879  0.00  0.00    +0.000 NA
ATOM     30  C   UNL     1      53.672   4.575   6.600  0.00  0.00    +0.000 A 
ATOM     31  N   UNL     1      53.633   4.555   7.970  0.00  0.00    +0.000 N 
ATOM     32  C   UNL     1      53.552   5.697   8.732  0.00  0.00    +0.000 A 
ATOM     33  O   UNL     1      53.548   5.647   9.957  0.00  0.00    +0.000 OA
ATOM     34  C   UNL     1      53.486   6.928   7.969  0.00  0.00    +0.000 A 
ATOM     35  H   UNL     1      53.682   3.684   8.478  0.00  0.00    +0.000 HD
ENDBRANCH  22  25
ENDBRANCH  20  21
ENDBRANCH   4  20
TORSDOF 7
ENDMDL
MODEL 7
REMARK VINA RESULT:    -6.694      2.689      8.974
REMARK INTER + INTRA:         -10.626
REMARK INTER:                  -9.426
REMARK INTRA:                  -1.200
REMARK UNBOUND:                -1.192
REMARK  Name = 
REMARK  8 active torsions:
REMARK  status: ('A' for Active; 'I' for Inactive)
REMARK    1  A    between atoms: C_1  and  O_2
REMARK    2  A    between atoms: O_2  and  C_3
REMARK    3  A    between atoms: C_8  and  C_9
REMARK    4  A    between atoms: N_11  and  C_12
REMARK    5  A    between atoms: C_12  and  C_13
REMARK    6  A    between atoms: C_16  and  C_17
REMARK    7  A    between atoms: C_17  and  N_18
REMARK    8  A    between atoms: C_19  and  C_21
REMARK                            x       y       z     vdW  Elec       q    Type
REMARK                         _______ _______ _______ _____ _____    ______ ____
ROOT
ATOM      1  C   UNL     1      47.835   7.855  13.385  0.00  0.00    +0.000 A 
ATOM      2  C   UNL     1      48.118   6.606  13.954  0.00  0.00    +0.000 A 
ATOM      3  C   UNL     1      48.596   6.506  15.267  0.00  0.00    +0.000 A 
ATOM      4  C   UNL     1      48.781   7.653  16.050  0.00  0.00    +0.000 A 
ATOM      5  C   UNL     1      48.497   8.903  15.481  0.00  0.00    +0.000 A 
ATOM      6  C   UNL     1      48.020   9.002  14.169  0.00  0.00    +0.000 A 
ENDROOT
BRANCH   1   7
ATOM      7  C   UNL     1      47.385   7.963  11.948  0.00  0.00    +0.000 C 
BRANCH   7  10
ATOM      8  C   UNL     1      45.594   6.534  11.047  0.00  0.00    +0.000 C 
ATOM      9  O   UNL     1      44.758   7.413  11.224  0.00  0.00    +0.000 OA
ATOM     10  N   UNL     1      46.928   6.716  11.386  0.00  0.00    +0.000 N 
ATOM     11  H   UNL     1      47.564   5.942  11.220  0.00  0.00    +0.000 HD
BRANCH   8  17
ATOM     12  C   UNL     1      44.747   4.120  11.212  0.00  0.00    +0.000 A 
ATOM     13  C   UNL     1      44.476   2.924  10.539  0.00  0.00    +0.000 A 
ATOM     14  C   UNL     1      44.746   2.807   9.179  0.00  0.00    +0.000 A 
ATOM     15  C   UNL     1      45.278   3.899   8.516  0.00  0.00    +0.000 A 
ATOM     16  N   UNL     1      45.545   5.081   9.111  0.00  0.00    +0.000 NA
ATOM     17  C   UNL     1      45.269   5.179  10.453  0.00  0.00    +0.000 A 
BRANCH  12  19
ATOM     18  C   UNL     1      43.137   4.634  12.885  0.00  0.00    +0.000 C 
ATOM     19  O   UNL     1      44.477   4.297  12.541  0.00  0.00    +0.000 OA
ENDBRANCH  12  19
ENDBRANCH   8  17
ENDBRANCH   7  10
ENDBRANCH   1   7
BRANCH   4  20
ATOM     20  C   UNL     1      49.311   7.556  17.459  0.00  0.00    +0.000 C 
BRANCH  20  21
ATOM     21  N   UNL     1      50.273   6.489  17.594  0.00  0.00    +0.000 N 
ATOM     22  C   UNL     1      50.568   5.947  18.820  0.00  0.00    +0.000 C 
ATOM     23  O   UNL     1      50.005   6.320  19.847  0.00  0.00    +0.000 OA
ATOM     24  H   UNL     1      50.904   6.334  16.813  0.00  0.00    +0.000 HD
BRANCH  22  25
ATOM     25  C   UNL     1      51.546   4.851  18.844  0.00  0.00    +0.000 A 
ATOM     26  C   UNL     1      52.750   5.014  19.518  0.00  0.00    +0.000 A 
ATOM     27  S   UNL     1      53.740   3.625  19.495  0.00  0.00    +0.000 S 
ATOM     28  C   UNL     1      52.622   2.776  18.534  0.00  0.00    +0.000 A 
ATOM     29  N   UNL     1      52.875   1.503  18.126  0.00  0.00    +0.000 NA
ATOM     30  C   UNL     1      51.957   0.990  17.379  0.00  0.00    +0.000 A 
ATOM     31  N   UNL     1      50.805   1.632  17.004  0.00  0.00    +0.000 N 
ATOM     32  C   UNL     1      50.496   2.909  17.411  0.00  0.00    +0.000 A 
ATOM     33  O   UNL     1      49.443   3.444  17.083  0.00  0.00    +0.000 OA
ATOM     34  C   UNL     1      51.499   3.535  18.250  0.00  0.00    +0.000 A 
ATOM     35  H   UNL     1      50.122   1.173  16.420  0.00  0.00    +0.000 HD
ENDBRANCH  22  25
ENDBRANCH  20  21
ENDBRANCH   4  20
TORSDOF 7
ENDMDL
MODEL 8
REMARK VINA RESULT:    -6.484      1.897      2.369
REMARK INTER + INTRA:         -10.329
REMARK INTER:                  -9.022
REMARK INTRA:                  -1.308
REMARK UNBOUND:                -1.192
REMARK  Name = 
REMARK  8 active torsions:
REMARK  status: ('A' for Active; 'I' for Inactive)
REMARK    1  A    between atoms: C_1  and  O_2
REMARK    2  A    between atoms: O_2  and  C_3
REMARK    3  A    between atoms: C_8  and  C_9
REMARK    4  A    between atoms: N_11  and  C_12
REMARK    5  A    between atoms: C_12  and  C_13
REMARK    6  A    between atoms: C_16  and  C_17
REMARK    7  A    between atoms: C_17  and  N_18
REMARK    8  A    between atoms: C_19  and  C_21
REMARK                            x       y       z     vdW  Elec       q    Type
REMARK                         _______ _______ _______ _____ _____    ______ ____
ROOT
ATOM      1  C   UNL     1      50.452   7.690  14.952  0.00  0.00    +0.000 A 
ATOM      2  C   UNL     1      49.128   7.269  15.133  0.00  0.00    +0.000 A 
ATOM      3  C   UNL     1      48.207   7.318  14.078  0.00  0.00    +0.000 A 
ATOM      4  C   UNL     1      48.597   7.768  12.809  0.00  0.00    +0.000 A 
ATOM      5  C   UNL     1      49.922   8.188  12.627  0.00  0.00    +0.000 A 
ATOM      6  C   UNL     1      50.841   8.140  13.682  0.00  0.00    +0.000 A 
ENDROOT
BRANCH   1   7
ATOM      7  C   UNL     1      51.423   7.700  16.107  0.00  0.00    +0.000 C 
BRANCH   7  10
ATOM      8  C   UNL     1      50.883   5.898  17.697  0.00  0.00    +0.000 C 
ATOM      9  O   UNL     1      51.379   5.054  16.959  0.00  0.00    +0.000 OA
ATOM     10  N   UNL     1      50.852   7.242  17.350  0.00  0.00    +0.000 N 
ATOM     11  H   UNL     1      50.417   7.886  18.005  0.00  0.00    +0.000 HD
BRANCH   8  17
ATOM     12  C   UNL     1      48.872   5.574  19.254  0.00  0.00    +0.000 A 
ATOM     13  C   UNL     1      48.424   5.241  20.536  0.00  0.00    +0.000 A 
ATOM     14  C   UNL     1      49.338   4.950  21.545  0.00  0.00    +0.000 A 
ATOM     15  C   UNL     1      50.688   4.992  21.245  0.00  0.00    +0.000 A 
ATOM     16  N   UNL     1      51.176   5.291  20.022  0.00  0.00    +0.000 NA
ATOM     17  C   UNL     1      50.259   5.573  19.038  0.00  0.00    +0.000 A 
BRANCH  12  19
ATOM     18  C   UNL     1      47.333   4.734  17.648  0.00  0.00    +0.000 C 
ATOM     19  O   UNL     1      48.018   5.843  18.220  0.00  0.00    +0.000 OA
ENDBRANCH  12  19
ENDBRANCH   8  17
ENDBRANCH   7  10
ENDBRANCH   1   7
BRANCH   4  20
ATOM     20  C   UNL     1      47.608   7.840  11.672  0.00  0.00    +0.000 C 
BRANCH  20  21
ATOM     21  N   UNL     1      46.910   6.590  11.493  0.00  0.00    +0.000 N 
ATOM     22  C   UNL     1      45.548   6.508  11.641  0.00  0.00    +0.000 C 
ATOM     23  O   UNL     1      44.862   7.495  11.896  0.00  0.00    +0.000 OA
ATOM     24  H   UNL     1      47.468   5.742  11.516  0.00  0.00    +0.000 HD
BRANCH  22  25
ATOM     25  C   UNL     1      44.934   5.191  11.418  0.00  0.00    +0.000 A 
ATOM     26  C   UNL     1      44.211   4.585  12.437  0.00  0.00    +0.000 A 
ATOM     27  S   UNL     1      43.518   3.091  11.989  0.00  0.00    +0.000 S 
ATOM     28  C   UNL     1      44.208   3.175  10.435  0.00  0.00    +0.000 A 
ATOM     29  N   UNL     1      44.021   2.175   9.533  0.00  0.00    +0.000 NA
ATOM     30  C   UNL     1      44.624   2.353   8.406  0.00  0.00    +0.000 A 
ATOM     31  N   UNL     1      45.397   3.443   8.098  0.00  0.00    +0.000 N 
ATOM     32  C   UNL     1      45.595   4.488   8.969  0.00  0.00    +0.000 A 
ATOM     33  O   UNL     1      46.268   5.463   8.651  0.00  0.00    +0.000 OA
ATOM     34  C   UNL     1      44.941   4.335  10.254  0.00  0.00    +0.000 A 
ATOM     35  H   UNL     1      45.839   3.526   7.195  0.00  0.00    +0.000 HD
ENDBRANCH  22  25
ENDBRANCH  20  21
ENDBRANCH   4  20
TORSDOF 7
ENDMDL
MODEL 9
REMARK VINA RESULT:    -6.330      3.387      5.225
REMARK INTER + INTRA:         -10.113
REMARK INTER:                  -8.805
REMARK INTRA:                  -1.308
REMARK UNBOUND:                -1.192
REMARK  Name = 
REMARK  8 active torsions:
REMARK  status: ('A' for Active; 'I' for Inactive)
REMARK    1  A    between atoms: C_1  and  O_2
REMARK    2  A    between atoms: O_2  and  C_3
REMARK    3  A    between atoms: C_8  and  C_9
REMARK    4  A    between atoms: N_11  and  C_12
REMARK    5  A    between atoms: C_12  and  C_13
REMARK    6  A    between atoms: C_16  and  C_17
REMARK    7  A    between atoms: C_17  and  N_18
REMARK    8  A    between atoms: C_19  and  C_21
REMARK                            x       y       z     vdW  Elec       q    Type
REMARK                         _______ _______ _______ _____ _____    ______ ____
ROOT
ATOM      1  C   UNL     1      51.460   4.162  17.691  0.00  0.00    +0.000 A 
ATOM      2  C   UNL     1      50.547   5.217  17.563  0.00  0.00    +0.000 A 
ATOM      3  C   UNL     1      49.203   4.972  17.251  0.00  0.00    +0.000 A 
ATOM      4  C   UNL     1      48.737   3.662  17.080  0.00  0.00    +0.000 A 
ATOM      5  C   UNL     1      49.649   2.606  17.208  0.00  0.00    +0.000 A 
ATOM      6  C   UNL     1      50.992   2.851  17.519  0.00  0.00    +0.000 A 
ENDROOT
BRANCH   1   7
ATOM      7  C   UNL     1      52.920   4.433  17.959  0.00  0.00    +0.000 C 
BRANCH   7  10
ATOM      8  C   UNL     1      53.364   5.657  20.050  0.00  0.00    +0.000 C 
ATOM      9  O   UNL     1      53.333   4.619  20.702  0.00  0.00    +0.000 OA
ATOM     10  N   UNL     1      53.160   5.661  18.677  0.00  0.00    +0.000 N 
ATOM     11  H   UNL     1      53.191   6.558  18.201  0.00  0.00    +0.000 HD
BRANCH   8  17
ATOM     12  C   UNL     1      52.666   8.049  20.651  0.00  0.00    +0.000 A 
ATOM     13  C   UNL     1      53.023   9.256  21.261  0.00  0.00    +0.000 A 
ATOM     14  C   UNL     1      54.288   9.412  21.822  0.00  0.00    +0.000 A 
ATOM     15  C   UNL     1      55.170   8.348  21.766  0.00  0.00    +0.000 A 
ATOM     16  N   UNL     1      54.874   7.157  21.205  0.00  0.00    +0.000 NA
ATOM     17  C   UNL     1      53.620   7.020  20.659  0.00  0.00    +0.000 A 
BRANCH  12  19
ATOM     18  C   UNL     1      50.992   8.761  19.120  0.00  0.00    +0.000 C 
ATOM     19  O   UNL     1      51.430   7.833  20.108  0.00  0.00    +0.000 OA
ENDBRANCH  12  19
ENDBRANCH   8  17
ENDBRANCH   7  10
ENDBRANCH   1   7
BRANCH   4  20
ATOM     20  C   UNL     1      47.295   3.389  16.727  0.00  0.00    +0.000 C 
BRANCH  20  21
ATOM     21  N   UNL     1      46.783   4.362  15.793  0.00  0.00    +0.000 N 
ATOM     22  C   UNL     1      46.792   4.124  14.441  0.00  0.00    +0.000 C 
ATOM     23  O   UNL     1      47.202   3.066  13.971  0.00  0.00    +0.000 OA
ATOM     24  H   UNL     1      46.662   5.311  16.134  0.00  0.00    +0.000 HD
BRANCH  22  25
ATOM     25  C   UNL     1      46.228   5.173  13.579  0.00  0.00    +0.000 A 
ATOM     26  C   UNL     1      46.947   6.338  13.348  0.00  0.00    +0.000 A 
ATOM     27  S   UNL     1      46.173   7.419  12.279  0.00  0.00    +0.000 S 
ATOM     28  C   UNL     1      44.822   6.394  12.132  0.00  0.00    +0.000 A 
ATOM     29  N   UNL     1      43.759   6.746  11.362  0.00  0.00    +0.000 NA
ATOM     30  C   UNL     1      42.792   5.890  11.364  0.00  0.00    +0.000 A 
ATOM     31  N   UNL     1      42.794   4.712  12.065  0.00  0.00    +0.000 N 
ATOM     32  C   UNL     1      43.856   4.305  12.838  0.00  0.00    +0.000 A 
ATOM     33  O   UNL     1      43.838   3.231  13.429  0.00  0.00    +0.000 OA
ATOM     34  C   UNL     1      44.969   5.234  12.874  0.00  0.00    +0.000 A 
ATOM     35  H   UNL     1      42.007   4.082  12.022  0.00  0.00    +0.000 HD
ENDBRANCH  22  25
ENDBRANCH  20  21
ENDBRANCH   4  20
TORSDOF 7
ENDMDL
