MODEL 1
REMARK VINA RESULT:    -7.888      0.000      0.000
REMARK INTER + INTRA:         -12.477
REMARK INTER:                 -11.116
REMARK INTRA:                  -1.361
REMARK UNBOUND:                -1.361
REMARK  Name = 
REMARK  8 active torsions:
REMARK  status: ('A' for Active; 'I' for Inactive)
REMARK    1  A    between atoms: C_1  and  O_2
REMARK    2  A    between atoms: O_2  and  C_3
REMARK    3  A    between atoms: C_5  and  O_6
REMARK    4  A    between atoms: O_6  and  C_7
REMARK    5  A    between atoms: C_7  and  C_8
REMARK    6  A    between atoms: C_8  and  C_9
REMARK    7  A    between atoms: C_13  and  C_14
REMARK    8  A    between atoms: C_24  and  C_25
REMARK                            x       y       z     vdW  Elec       q    Type
REMARK                         _______ _______ _______ _____ _____    ______ ____
ROOT
ATOM      1  C   UNL     1      45.563   7.347  12.453  0.00  0.00    +0.000 C 
ENDROOT
BRANCH   1   2
ATOM      2  O   UNL     1      46.871   6.774  12.504  0.00  0.00    +0.000 OA
BRANCH   2   5
ATOM      3  C   UNL     1      48.228   5.562  15.763  0.00  0.00    +0.000 A 
ATOM      4  C   UNL     1      47.995   6.403  14.665  0.00  0.00    +0.000 A 
ATOM      5  C   UNL     1      47.151   6.020  13.618  0.00  0.00    +0.000 A 
ATOM      6  C   UNL     1      46.531   4.773  13.667  0.00  0.00    +0.000 A 
ATOM      7  C   UNL     1      46.743   3.927  14.755  0.00  0.00    +0.000 A 
ATOM      8  C   UNL     1      47.586   4.308  15.814  0.00  0.00    +0.000 A 
BRANCH   8   9
ATOM      9  C   UNL     1      47.717   3.338  16.946  0.00  0.00    +0.000 C 
ATOM     10  N   UNL     1      48.968   2.998  17.369  0.00  0.00    +0.000 N 
ATOM     11  O   UNL     1      46.734   2.855  17.496  0.00  0.00    +0.000 OA
ATOM     12  H   UNL     1      49.792   3.319  16.876  0.00  0.00    +0.000 HD
ATOM     13  H   UNL     1      49.061   2.313  18.103  0.00  0.00    +0.000 HD
ENDBRANCH   8   9
BRANCH   3  15
ATOM     14  C   UNL     1      48.677   6.835  17.742  0.00  0.00    +0.000 C 
ATOM     15  O   UNL     1      49.103   5.886  16.770  0.00  0.00    +0.000 OA
ENDBRANCH   3  15
ENDBRANCH   2   5
ENDBRANCH   1   2
BRANCH   1  16
ATOM     16  C   UNL     1      44.932   7.135  11.077  0.00  0.00    +0.000 C 
BRANCH  16  17
ATOM     17  C   UNL     1      44.648   5.669  10.859  0.00  0.00    +0.000 A 
ATOM     18  C   UNL     1      43.604   5.035  11.534  0.00  0.00    +0.000 A 
ATOM     19  C   UNL     1      43.306   3.704  11.257  0.00  0.00    +0.000 A 
ATOM     20  C   UNL     1      44.031   3.005  10.284  0.00  0.00    +0.000 A 
ATOM     21  C   UNL     1      45.057   3.622   9.544  0.00  0.00    +0.000 A 
ATOM     22  C   UNL     1      45.358   4.956   9.879  0.00  0.00    +0.000 A 
ATOM     23  F   UNL     1      46.313   5.620   9.204  0.00  0.00    +0.000 F 
BRANCH  21  24
ATOM     24  C   UNL     1      45.710   2.929   8.404  0.00  0.00    +0.000 A 
ATOM     25  C   UNL     1      46.052   3.632   7.231  0.00  0.00    +0.000 A 
ATOM     26  C   UNL     1      46.760   3.025   6.189  0.00  0.00    +0.000 A 
ATOM     27  C   UNL     1      47.148   1.696   6.294  0.00  0.00    +0.000 A 
ATOM     28  C   UNL     1      46.803   0.967   7.428  0.00  0.00    +0.000 A 
ATOM     29  C   UNL     1      46.081   1.574   8.462  0.00  0.00    +0.000 A 
ENDBRANCH  21  24
ENDBRANCH  16  17
ENDBRANCH   1  16
TORSDOF 7
ENDMDL
MODEL 2
REMARK VINA RESULT:    -7.878      3.854      7.726
REMARK INTER + INTRA:         -12.464
REMARK INTER:                 -11.105
REMARK INTRA:                  -1.359
REMARK UNBOUND:                -1.361
REMARK  Name = 
REMARK  8 active torsions:
REMARK  status: ('A' for Active; 'I' for Inactive)
REMARK    1  A    between atoms: C_1  and  O_2
REMARK    2  A    between atoms: O_2  and  C_3
REMARK    3  A    between atoms: C_5  and  O_6
REMARK    4  A    between atoms: O_6  and  C_7
REMARK    5  A    between atoms: C_7  and  C_8
REMARK    6  A    between atoms: C_8  and  C_9
REMARK    7  A    between atoms: C_13  and  C_14
REMARK    8  A    between atoms: C_24  and  C_25
REMARK                            x       y       z     vdW  Elec       q    Type
REMARK                         _______ _______ _______ _____ _____    ______ ____
ROOT
ATOM      1  C   UNL     1      44.058   3.354  11.526  0.00  0.00    +0.000 C 
ENDROOT
BRANCH   1   2
ATOM      2  O   UNL     1      43.573   3.015  10.225  0.00  0.00    +0.000 OA
BRANCH   2   5
ATOM      3  C   UNL     1      46.280   1.556   8.110  0.00  0.00    +0.000 A 
ATOM      4  C   UNL     1      45.317   1.668   9.124  0.00  0.00    +0.000 A 
ATOM      5  C   UNL     1      44.532   2.817   9.261  0.00  0.00    +0.000 A 
ATOM      6  C   UNL     1      44.714   3.875   8.373  0.00  0.00    +0.000 A 
ATOM      7  C   UNL     1      45.661   3.778   7.353  0.00  0.00    +0.000 A 
ATOM      8  C   UNL     1      46.450   2.624   7.205  0.00  0.00    +0.000 A 
BRANCH   8   9
ATOM      9  C   UNL     1      47.410   2.614   6.058  0.00  0.00    +0.000 C 
ATOM     10  N   UNL     1      48.744   2.518   6.327  0.00  0.00    +0.000 N 
ATOM     11  O   UNL     1      47.026   2.682   4.896  0.00  0.00    +0.000 OA
ATOM     12  H   UNL     1      49.088   2.544   7.279  0.00  0.00    +0.000 HD
ATOM     13  H   UNL     1      49.396   2.553   5.559  0.00  0.00    +0.000 HD
ENDBRANCH   8   9
BRANCH   3  15
ATOM     14  C   UNL     1      46.588  -0.701   7.370  0.00  0.00    +0.000 C 
ATOM     15  O   UNL     1      47.109   0.468   7.995  0.00  0.00    +0.000 OA
ENDBRANCH   3  15
ENDBRANCH   2   5
ENDBRANCH   1   2
BRANCH   1  16
ATOM     16  C   UNL     1      44.087   4.871  11.715  0.00  0.00    +0.000 C 
BRANCH  16  17
ATOM     17  C   UNL     1      45.307   5.270  12.508  0.00  0.00    +0.000 A 
ATOM     18  C   UNL     1      45.743   4.498  13.585  0.00  0.00    +0.000 A 
ATOM     19  C   UNL     1      46.917   4.837  14.251  0.00  0.00    +0.000 A 
ATOM     20  C   UNL     1      47.678   5.934  13.828  0.00  0.00    +0.000 A 
ATOM     21  C   UNL     1      47.301   6.708  12.714  0.00  0.00    +0.000 A 
ATOM     22  C   UNL     1      46.088   6.361  12.090  0.00  0.00    +0.000 A 
ATOM     23  F   UNL     1      45.670   7.041  11.009  0.00  0.00    +0.000 F 
BRANCH  21  24
ATOM     24  C   UNL     1      48.193   7.764  12.172  0.00  0.00    +0.000 A 
ATOM     25  C   UNL     1      47.785   9.113  12.150  0.00  0.00    +0.000 A 
ATOM     26  C   UNL     1      48.646  10.137  11.742  0.00  0.00    +0.000 A 
ATOM     27  C   UNL     1      49.943   9.837  11.345  0.00  0.00    +0.000 A 
ATOM     28  C   UNL     1      50.368   8.512  11.330  0.00  0.00    +0.000 A 
ATOM     29  C   UNL     1      49.498   7.489  11.725  0.00  0.00    +0.000 A 
ENDBRANCH  21  24
ENDBRANCH  16  17
ENDBRANCH   1  16
TORSDOF 7
ENDMDL
MODEL 3
REMARK VINA RESULT:    -7.511      3.612      8.127
REMARK INTER + INTRA:         -11.946
REMARK INTER:                 -10.612
REMARK INTRA:                  -1.333
REMARK UNBOUND:                -1.361
REMARK  Name = 
REMARK  8 active torsions:
REMARK  status: ('A' for Active; 'I' for Inactive)
REMARK    1  A    between atoms: C_1  and  O_2
REMARK    2  A    between atoms: O_2  and  C_3
REMARK    3  A    between atoms: C_5  and  O_6
REMARK    4  A    between atoms: O_6  and  C_7
REMARK    5  A    between atoms: C_7  and  C_8
REMARK    6  A    between atoms: C_8  and  C_9
REMARK    7  A    between atoms: C_13  and  C_14
REMARK    8  A    between atoms: C_24  and  C_25
REMARK                            x       y       z     vdW  Elec       q    Type
REMARK                         _______ _______ _______ _____ _____    ______ ____
ROOT
ATOM      1  C   UNL     1      43.725   4.109  11.155  0.00  0.00    +0.000 C 
ENDROOT
BRANCH   1   2
ATOM      2  O   UNL     1      43.546   2.989  10.286  0.00  0.00    +0.000 OA
BRANCH   2   5
ATOM      3  C   UNL     1      46.250   1.583   8.132  0.00  0.00    +0.000 A 
ATOM      4  C   UNL     1      45.279   1.664   9.140  0.00  0.00    +0.000 A 
ATOM      5  C   UNL     1      44.512   2.819   9.323  0.00  0.00    +0.000 A 
ATOM      6  C   UNL     1      44.720   3.913   8.485  0.00  0.00    +0.000 A 
ATOM      7  C   UNL     1      45.675   3.846   7.471  0.00  0.00    +0.000 A 
ATOM      8  C   UNL     1      46.446   2.687   7.278  0.00  0.00    +0.000 A 
BRANCH   8   9
ATOM      9  C   UNL     1      47.418   2.712   6.140  0.00  0.00    +0.000 C 
ATOM     10  N   UNL     1      48.750   2.638   6.422  0.00  0.00    +0.000 N 
ATOM     11  O   UNL     1      47.044   2.791   4.976  0.00  0.00    +0.000 OA
ATOM     12  H   UNL     1      49.085   2.657   7.377  0.00  0.00    +0.000 HD
ATOM     13  H   UNL     1      49.410   2.698   5.661  0.00  0.00    +0.000 HD
ENDBRANCH   8   9
BRANCH   3  15
ATOM     14  C   UNL     1      46.534  -0.638   7.279  0.00  0.00    +0.000 C 
ATOM     15  O   UNL     1      47.062   0.486   7.975  0.00  0.00    +0.000 OA
ENDBRANCH   3  15
ENDBRANCH   2   5
ENDBRANCH   1   2
BRANCH   1  16
ATOM     16  C   UNL     1      44.955   3.916  12.042  0.00  0.00    +0.000 C 
BRANCH  16  17
ATOM     17  C   UNL     1      45.658   5.235  12.246  0.00  0.00    +0.000 A 
ATOM     18  C   UNL     1      45.138   6.413  11.708  0.00  0.00    +0.000 A 
ATOM     19  C   UNL     1      45.756   7.630  11.977  0.00  0.00    +0.000 A 
ATOM     20  C   UNL     1      46.882   7.683  12.809  0.00  0.00    +0.000 A 
ATOM     21  C   UNL     1      47.407   6.525  13.413  0.00  0.00    +0.000 A 
ATOM     22  C   UNL     1      46.781   5.307  13.086  0.00  0.00    +0.000 A 
ATOM     23  F   UNL     1      47.214   4.160  13.639  0.00  0.00    +0.000 F 
BRANCH  21  24
ATOM     24  C   UNL     1      48.495   6.607  14.420  0.00  0.00    +0.000 A 
ATOM     25  C   UNL     1      49.670   7.340  14.156  0.00  0.00    +0.000 A 
ATOM     26  C   UNL     1      50.661   7.519  15.127  0.00  0.00    +0.000 A 
ATOM     27  C   UNL     1      50.501   6.968  16.393  0.00  0.00    +0.000 A 
ATOM     28  C   UNL     1      49.365   6.217  16.676  0.00  0.00    +0.000 A 
ATOM     29  C   UNL     1      48.383   6.028  15.697  0.00  0.00    +0.000 A 
ENDBRANCH  21  24
ENDBRANCH  16  17
ENDBRANCH   1  16
TORSDOF 7
ENDMDL
MODEL 4
REMARK VINA RESULT:    -7.273      1.885      2.905
REMARK INTER + INTRA:         -11.610
REMARK INTER:                 -10.814
REMARK INTRA:                  -0.796
REMARK UNBOUND:                -1.361
REMARK  Name = 
REMARK  8 active torsions:
REMARK  status: ('A' for Active; 'I' for Inactive)
REMARK    1  A    between atoms: C_1  and  O_2
REMARK    2  A    between atoms: O_2  and  C_3
REMARK    3  A    between atoms: C_5  and  O_6
REMARK    4  A    between atoms: O_6  and  C_7
REMARK    5  A    between atoms: C_7  and  C_8
REMARK    6  A    between atoms: C_8  and  C_9
REMARK    7  A    between atoms: C_13  and  C_14
REMARK    8  A    between atoms: C_24  and  C_25
REMARK                            x       y       z     vdW  Elec       q    Type
REMARK                         _______ _______ _______ _____ _____    ______ ____
ROOT
ATOM      1  C   UNL     1      44.193   3.788  12.962  0.00  0.00    +0.000 C 
ENDROOT
BRANCH   1   2
ATOM      2  O   UNL     1      45.561   3.395  13.082  0.00  0.00    +0.000 OA
BRANCH   2   5
ATOM      3  C   UNL     1      47.719   5.105  15.602  0.00  0.00    +0.000 A 
ATOM      4  C   UNL     1      46.887   4.136  15.022  0.00  0.00    +0.000 A 
ATOM      5  C   UNL     1      46.386   4.287  13.726  0.00  0.00    +0.000 A 
ATOM      6  C   UNL     1      46.719   5.426  12.996  0.00  0.00    +0.000 A 
ATOM      7  C   UNL     1      47.553   6.395  13.553  0.00  0.00    +0.000 A 
ATOM      8  C   UNL     1      48.065   6.248  14.854  0.00  0.00    +0.000 A 
BRANCH   8   9
ATOM      9  C   UNL     1      48.976   7.332  15.340  0.00  0.00    +0.000 C 
ATOM     10  N   UNL     1      48.587   8.074  16.416  0.00  0.00    +0.000 N 
ATOM     11  O   UNL     1      50.053   7.557  14.800  0.00  0.00    +0.000 OA
ATOM     12  H   UNL     1      47.667   7.962  16.824  0.00  0.00    +0.000 HD
ATOM     13  H   UNL     1      49.178   8.832  16.720  0.00  0.00    +0.000 HD
ENDBRANCH   8   9
BRANCH   3  15
ATOM     14  C   UNL     1      47.306   4.416  17.859  0.00  0.00    +0.000 C 
ATOM     15  O   UNL     1      48.169   5.013  16.896  0.00  0.00    +0.000 OA
ENDBRANCH   3  15
ENDBRANCH   2   5
ENDBRANCH   1   2
BRANCH   1  16
ATOM     16  C   UNL     1      43.618   3.346  11.615  0.00  0.00    +0.000 C 
BRANCH  16  17
ATOM     17  C   UNL     1      44.433   3.932  10.489  0.00  0.00    +0.000 A 
ATOM     18  C   UNL     1      44.890   5.249  10.547  0.00  0.00    +0.000 A 
ATOM     19  C   UNL     1      45.709   5.744   9.536  0.00  0.00    +0.000 A 
ATOM     20  C   UNL     1      46.101   4.918   8.476  0.00  0.00    +0.000 A 
ATOM     21  C   UNL     1      45.705   3.569   8.406  0.00  0.00    +0.000 A 
ATOM     22  C   UNL     1      44.844   3.114   9.423  0.00  0.00    +0.000 A 
ATOM     23  F   UNL     1      44.437   1.832   9.436  0.00  0.00    +0.000 F 
BRANCH  21  24
ATOM     24  C   UNL     1      46.254   2.657   7.371  0.00  0.00    +0.000 A 
ATOM     25  C   UNL     1      46.477   3.108   6.054  0.00  0.00    +0.000 A 
ATOM     26  C   UNL     1      47.090   2.299   5.092  0.00  0.00    +0.000 A 
ATOM     27  C   UNL     1      47.500   1.014   5.424  0.00  0.00    +0.000 A 
ATOM     28  C   UNL     1      47.271   0.529   6.708  0.00  0.00    +0.000 A 
ATOM     29  C   UNL     1      46.643   1.337   7.663  0.00  0.00    +0.000 A 
ENDBRANCH  21  24
ENDBRANCH  16  17
ENDBRANCH   1  16
TORSDOF 7
ENDMDL
MODEL 5
REMARK VINA RESULT:    -7.062      3.193      4.190
REMARK INTER + INTRA:         -11.313
REMARK INTER:                 -10.208
REMARK INTRA:                  -1.105
REMARK UNBOUND:                -1.361
REMARK  Name = 
REMARK  8 active torsions:
REMARK  status: ('A' for Active; 'I' for Inactive)
REMARK    1  A    between atoms: C_1  and  O_2
REMARK    2  A    between atoms: O_2  and  C_3
REMARK    3  A    between atoms: C_5  and  O_6
REMARK    4  A    between atoms: O_6  and  C_7
REMARK    5  A    between atoms: C_7  and  C_8
REMARK    6  A    between atoms: C_8  and  C_9
REMARK    7  A    between atoms: C_13  and  C_14
REMARK    8  A    between atoms: C_24  and  C_25
REMARK                            x       y       z     vdW  Elec       q    Type
REMARK                         _______ _______ _______ _____ _____    ______ ____
ROOT
ATOM      1  C   UNL     1      45.127   6.654  12.696  0.00  0.00    +0.000 C 
ENDROOT
BRANCH   1   2
ATOM      2  O   UNL     1      45.673   7.956  12.919  0.00  0.00    +0.000 OA
BRANCH   2   5
ATOM      3  C   UNL     1      48.862   9.393  11.616  0.00  0.00    +0.000 A 
ATOM      4  C   UNL     1      47.513   9.308  11.993  0.00  0.00    +0.000 A 
ATOM      5  C   UNL     1      46.979   8.132  12.529  0.00  0.00    +0.000 A 
ATOM      6  C   UNL     1      47.805   7.021  12.689  0.00  0.00    +0.000 A 
ATOM      7  C   UNL     1      49.151   7.091  12.328  0.00  0.00    +0.000 A 
ATOM      8  C   UNL     1      49.696   8.271  11.793  0.00  0.00    +0.000 A 
BRANCH   8   9
ATOM      9  C   UNL     1      51.157   8.246  11.472  0.00  0.00    +0.000 C 
ATOM     10  N   UNL     1      51.981   9.115  12.124  0.00  0.00    +0.000 N 
ATOM     11  O   UNL     1      51.622   7.465  10.649  0.00  0.00    +0.000 OA
ATOM     12  H   UNL     1      51.609   9.824  12.744  0.00  0.00    +0.000 HD
ATOM     13  H   UNL     1      52.959   9.130  11.879  0.00  0.00    +0.000 HD
ENDBRANCH   8   9
BRANCH   3  15
ATOM     14  C   UNL     1      49.404  11.721  11.780  0.00  0.00    +0.000 C 
ATOM     15  O   UNL     1      49.394  10.513  11.026  0.00  0.00    +0.000 OA
ENDBRANCH   3  15
ENDBRANCH   2   5
ENDBRANCH   1   2
BRANCH   1  16
ATOM     16  C   UNL     1      44.664   6.501  11.247  0.00  0.00    +0.000 C 
BRANCH  16  17
ATOM     17  C   UNL     1      44.555   5.039  10.892  0.00  0.00    +0.000 A 
ATOM     18  C   UNL     1      43.627   4.215  11.530  0.00  0.00    +0.000 A 
ATOM     19  C   UNL     1      43.485   2.890  11.129  0.00  0.00    +0.000 A 
ATOM     20  C   UNL     1      44.250   2.386  10.069  0.00  0.00    +0.000 A 
ATOM     21  C   UNL     1      45.160   3.197   9.365  0.00  0.00    +0.000 A 
ATOM     22  C   UNL     1      45.307   4.521   9.824  0.00  0.00    +0.000 A 
ATOM     23  F   UNL     1      46.143   5.362   9.191  0.00  0.00    +0.000 F 
BRANCH  21  24
ATOM     24  C   UNL     1      45.845   2.706   8.143  0.00  0.00    +0.000 A 
ATOM     25  C   UNL     1      46.000   3.541   7.017  0.00  0.00    +0.000 A 
ATOM     26  C   UNL     1      46.732   3.136   5.896  0.00  0.00    +0.000 A 
ATOM     27  C   UNL     1      47.331   1.883   5.872  0.00  0.00    +0.000 A 
ATOM     28  C   UNL     1      47.174   1.026   6.956  0.00  0.00    +0.000 A 
ATOM     29  C   UNL     1      46.428   1.429   8.070  0.00  0.00    +0.000 A 
ENDBRANCH  21  24
ENDBRANCH  16  17
ENDBRANCH   1  16
TORSDOF 7
ENDMDL
MODEL 6
REMARK VINA RESULT:    -6.845      2.757      4.143
REMARK INTER + INTRA:         -11.008
REMARK INTER:                 -10.006
REMARK INTRA:                  -1.002
REMARK UNBOUND:                -1.361
REMARK  Name = 
REMARK  8 active torsions:
REMARK  status: ('A' for Active; 'I' for Inactive)
REMARK    1  A    between atoms: C_1  and  O_2
REMARK    2  A    between atoms: O_2  and  C_3
REMARK    3  A    between atoms: C_5  and  O_6
REMARK    4  A    between atoms: O_6  and  C_7
REMARK    5  A    between atoms: C_7  and  C_8
REMARK    6  A    between atoms: C_8  and  C_9
REMARK    7  A    between atoms: C_13  and  C_14
REMARK    8  A    between atoms: C_24  and  C_25
REMARK                            x       y       z     vdW  Elec       q    Type
REMARK                         _______ _______ _______ _____ _____    ______ ____
ROOT
ATOM      1  C   UNL     1      44.984   3.125  12.610  0.00  0.00    +0.000 C 
ENDROOT
BRANCH   1   2
ATOM      2  O   UNL     1      44.694   4.178  13.531  0.00  0.00    +0.000 OA
BRANCH   2   5
ATOM      3  C   UNL     1      45.747   7.699  12.882  0.00  0.00    +0.000 A 
ATOM      4  C   UNL     1      44.915   6.579  13.024  0.00  0.00    +0.000 A 
ATOM      5  C   UNL     1      45.431   5.328  13.377  0.00  0.00    +0.000 A 
ATOM      6  C   UNL     1      46.802   5.193  13.589  0.00  0.00    +0.000 A 
ATOM      7  C   UNL     1      47.643   6.298  13.461  0.00  0.00    +0.000 A 
ATOM      8  C   UNL     1      47.131   7.560  13.112  0.00  0.00    +0.000 A 
BRANCH   8   9
ATOM      9  C   UNL     1      48.117   8.683  13.035  0.00  0.00    +0.000 C 
ATOM     10  N   UNL     1      47.748   9.906  13.511  0.00  0.00    +0.000 N 
ATOM     11  O   UNL     1      49.238   8.524  12.564  0.00  0.00    +0.000 OA
ATOM     12  H   UNL     1      46.801  10.081  13.826  0.00  0.00    +0.000 HD
ATOM     13  H   UNL     1      48.394  10.675  13.422  0.00  0.00    +0.000 HD
ENDBRANCH   8   9
BRANCH   3  15
ATOM     14  C   UNL     1      44.497   8.968  11.280  0.00  0.00    +0.000 C 
ATOM     15  O   UNL     1      45.276   8.922  12.472  0.00  0.00    +0.000 OA
ENDBRANCH   3  15
ENDBRANCH   2   5
ENDBRANCH   1   2
BRANCH   1  16
ATOM     16  C   UNL     1      44.039   3.181  11.409  0.00  0.00    +0.000 C 
BRANCH  16  17
ATOM     17  C   UNL     1      44.756   3.756  10.213  0.00  0.00    +0.000 A 
ATOM     18  C   UNL     1      45.193   5.081  10.211  0.00  0.00    +0.000 A 
ATOM     19  C   UNL     1      45.926   5.568   9.132  0.00  0.00    +0.000 A 
ATOM     20  C   UNL     1      46.251   4.727   8.062  0.00  0.00    +0.000 A 
ATOM     21  C   UNL     1      45.875   3.371   8.048  0.00  0.00    +0.000 A 
ATOM     22  C   UNL     1      45.100   2.923   9.136  0.00  0.00    +0.000 A 
ATOM     23  F   UNL     1      44.718   1.636   9.204  0.00  0.00    +0.000 F 
BRANCH  21  24
ATOM     24  C   UNL     1      46.361   2.446   6.993  0.00  0.00    +0.000 A 
ATOM     25  C   UNL     1      46.519   2.886   5.663  0.00  0.00    +0.000 A 
ATOM     26  C   UNL     1      47.073   2.065   4.676  0.00  0.00    +0.000 A 
ATOM     27  C   UNL     1      47.487   0.777   4.995  0.00  0.00    +0.000 A 
ATOM     28  C   UNL     1      47.320   0.304   6.293  0.00  0.00    +0.000 A 
ATOM     29  C   UNL     1      46.751   1.124   7.274  0.00  0.00    +0.000 A 
ENDBRANCH  21  24
ENDBRANCH  16  17
ENDBRANCH   1  16
TORSDOF 7
ENDMDL
MODEL 7
REMARK VINA RESULT:    -6.658      4.129      8.177
REMARK INTER + INTRA:         -10.744
REMARK INTER:                  -9.674
REMARK INTRA:                  -1.071
REMARK UNBOUND:                -1.361
REMARK  Name = 
REMARK  8 active torsions:
REMARK  status: ('A' for Active; 'I' for Inactive)
REMARK    1  A    between atoms: C_1  and  O_2
REMARK    2  A    between atoms: O_2  and  C_3
REMARK    3  A    between atoms: C_5  and  O_6
REMARK    4  A    between atoms: O_6  and  C_7
REMARK    5  A    between atoms: C_7  and  C_8
REMARK    6  A    between atoms: C_8  and  C_9
REMARK    7  A    between atoms: C_13  and  C_14
REMARK    8  A    between atoms: C_24  and  C_25
REMARK                            x       y       z     vdW  Elec       q    Type
REMARK                         _______ _______ _______ _____ _____    ______ ____
ROOT
ATOM      1  C   UNL     1      48.786   6.813  14.720  0.00  0.00    +0.000 C 
ENDROOT
BRANCH   1   2
ATOM      2  O   UNL     1      48.226   5.603  14.208  0.00  0.00    +0.000 OA
BRANCH   2   5
ATOM      3  C   UNL     1      45.332   6.981  12.296  0.00  0.00    +0.000 A 
ATOM      4  C   UNL     1      46.544   6.939  13.001  0.00  0.00    +0.000 A 
ATOM      5  C   UNL     1      47.054   5.737  13.502  0.00  0.00    +0.000 A 
ATOM      6  C   UNL     1      46.341   4.558  13.297  0.00  0.00    +0.000 A 
ATOM      7  C   UNL     1      45.139   4.580  12.590  0.00  0.00    +0.000 A 
ATOM      8  C   UNL     1      44.622   5.783  12.079  0.00  0.00    +0.000 A 
BRANCH   8   9
ATOM      9  C   UNL     1      43.343   5.687  11.309  0.00  0.00    +0.000 C 
ATOM     10  N   UNL     1      42.284   6.446  11.710  0.00  0.00    +0.000 N 
ATOM     11  O   UNL     1      43.234   4.954  10.333  0.00  0.00    +0.000 OA
ATOM     12  H   UNL     1      42.325   6.993  12.561  0.00  0.00    +0.000 HD
ATOM     13  H   UNL     1      41.408   6.352  11.220  0.00  0.00    +0.000 HD
ENDBRANCH   8   9
BRANCH   3  15
ATOM     14  C   UNL     1      45.503   9.361  12.076  0.00  0.00    +0.000 C 
ATOM     15  O   UNL     1      44.776   8.156  11.853  0.00  0.00    +0.000 OA
ENDBRANCH   3  15
ENDBRANCH   2   5
ENDBRANCH   1   2
BRANCH   1  16
ATOM     16  C   UNL     1      48.574   6.912  16.231  0.00  0.00    +0.000 C 
BRANCH  16  17
ATOM     17  C   UNL     1      48.591   5.534  16.846  0.00  0.00    +0.000 A 
ATOM     18  C   UNL     1      47.405   4.825  17.042  0.00  0.00    +0.000 A 
ATOM     19  C   UNL     1      47.450   3.523  17.534  0.00  0.00    +0.000 A 
ATOM     20  C   UNL     1      48.680   2.912  17.807  0.00  0.00    +0.000 A 
ATOM     21  C   UNL     1      49.900   3.574  17.574  0.00  0.00    +0.000 A 
ATOM     22  C   UNL     1      49.816   4.903  17.115  0.00  0.00    +0.000 A 
ATOM     23  F   UNL     1      50.939   5.594  16.851  0.00  0.00    +0.000 F 
BRANCH  21  24
ATOM     24  C   UNL     1      51.199   2.866  17.708  0.00  0.00    +0.000 A 
ATOM     25  C   UNL     1      52.289   3.476  18.361  0.00  0.00    +0.000 A 
ATOM     26  C   UNL     1      53.486   2.790  18.591  0.00  0.00    +0.000 A 
ATOM     27  C   UNL     1      53.624   1.472  18.175  0.00  0.00    +0.000 A 
ATOM     28  C   UNL     1      52.575   0.851  17.504  0.00  0.00    +0.000 A 
ATOM     29  C   UNL     1      51.384   1.545  17.262  0.00  0.00    +0.000 A 
ENDBRANCH  21  24
ENDBRANCH  16  17
ENDBRANCH   1  16
TORSDOF 7
ENDMDL
MODEL 8
REMARK VINA RESULT:    -6.637      2.988      7.443
REMARK INTER + INTRA:         -10.714
REMARK INTER:                  -8.897
REMARK INTRA:                  -1.817
REMARK UNBOUND:                -1.361
REMARK  Name = 
REMARK  8 active torsions:
REMARK  status: ('A' for Active; 'I' for Inactive)
REMARK    1  A    between atoms: C_1  and  O_2
REMARK    2  A    between atoms: O_2  and  C_3
REMARK    3  A    between atoms: C_5  and  O_6
REMARK    4  A    between atoms: O_6  and  C_7
REMARK    5  A    between atoms: C_7  and  C_8
REMARK    6  A    between atoms: C_8  and  C_9
REMARK    7  A    between atoms: C_13  and  C_14
REMARK    8  A    between atoms: C_24  and  C_25
REMARK                            x       y       z     vdW  Elec       q    Type
REMARK                         _______ _______ _______ _____ _____    ______ ____
ROOT
ATOM      1  C   UNL     1      47.518   8.681  12.348  0.00  0.00    +0.000 C 
ENDROOT
BRANCH   1   2
ATOM      2  O   UNL     1      47.658   7.535  11.505  0.00  0.00    +0.000 OA
BRANCH   2   5
ATOM      3  C   UNL     1      44.975   5.021  10.867  0.00  0.00    +0.000 A 
ATOM      4  C   UNL     1      45.939   6.008  10.619  0.00  0.00    +0.000 A 
ATOM      5  C   UNL     1      46.699   6.562  11.654  0.00  0.00    +0.000 A 
ATOM      6  C   UNL     1      46.490   6.123  12.960  0.00  0.00    +0.000 A 
ATOM      7  C   UNL     1      45.541   5.136  13.224  0.00  0.00    +0.000 A 
ATOM      8  C   UNL     1      44.777   4.571  12.188  0.00  0.00    +0.000 A 
BRANCH   8   9
ATOM      9  C   UNL     1      43.812   3.496  12.579  0.00  0.00    +0.000 C 
ATOM     10  N   UNL     1      43.603   2.464  11.712  0.00  0.00    +0.000 N 
ATOM     11  O   UNL     1      43.220   3.522  13.651  0.00  0.00    +0.000 OA
ATOM     12  H   UNL     1      44.016   2.465  10.788  0.00  0.00    +0.000 HD
ATOM     13  H   UNL     1      42.922   1.761  11.953  0.00  0.00    +0.000 HD
ENDBRANCH   8   9
BRANCH   3  15
ATOM     14  C   UNL     1      44.791   4.073   8.674  0.00  0.00    +0.000 C 
ATOM     15  O   UNL     1      44.169   4.511   9.878  0.00  0.00    +0.000 OA
ENDBRANCH   3  15
ENDBRANCH   2   5
ENDBRANCH   1   2
BRANCH   1  16
ATOM     16  C   UNL     1      48.850   9.031  13.012  0.00  0.00    +0.000 C 
BRANCH  16  17
ATOM     17  C   UNL     1      48.808   8.671  14.476  0.00  0.00    +0.000 A 
ATOM     18  C   UNL     1      48.423   9.610  15.433  0.00  0.00    +0.000 A 
ATOM     19  C   UNL     1      48.310   9.234  16.769  0.00  0.00    +0.000 A 
ATOM     20  C   UNL     1      48.555   7.910  17.153  0.00  0.00    +0.000 A 
ATOM     21  C   UNL     1      48.895   6.919  16.212  0.00  0.00    +0.000 A 
ATOM     22  C   UNL     1      49.039   7.344  14.877  0.00  0.00    +0.000 A 
ATOM     23  F   UNL     1      49.344   6.453  13.918  0.00  0.00    +0.000 F 
BRANCH  21  24
ATOM     24  C   UNL     1      48.992   5.489  16.599  0.00  0.00    +0.000 A 
ATOM     25  C   UNL     1      50.124   5.001  17.283  0.00  0.00    +0.000 A 
ATOM     26  C   UNL     1      50.191   3.684  17.749  0.00  0.00    +0.000 A 
ATOM     27  C   UNL     1      49.124   2.819  17.544  0.00  0.00    +0.000 A 
ATOM     28  C   UNL     1      48.003   3.263  16.850  0.00  0.00    +0.000 A 
ATOM     29  C   UNL     1      47.946   4.577  16.372  0.00  0.00    +0.000 A 
ENDBRANCH  21  24
ENDBRANCH  16  17
ENDBRANCH   1  16
TORSDOF 7
ENDMDL
MODEL 9
REMARK VINA RESULT:    -6.483      3.597      9.532
REMARK INTER + INTRA:         -10.498
REMARK INTER:                  -9.130
REMARK INTRA:                  -1.368
REMARK UNBOUND:                -1.361
REMARK  Name = 
REMARK  8 active torsions:
REMARK  status: ('A' for Active; 'I' for Inactive)
REMARK    1  A    between atoms: C_1  and  O_2
REMARK    2  A    between atoms: O_2  and  C_3
REMARK    3  A    between atoms: C_5  and  O_6
REMARK    4  A    between atoms: O_6  and  C_7
REMARK    5  A    between atoms: C_7  and  C_8
REMARK    6  A    between atoms: C_8  and  C_9
REMARK    7  A    between atoms: C_13  and  C_14
REMARK    8  A    between atoms: C_24  and  C_25
REMARK                            x       y       z     vdW  Elec       q    Type
REMARK                         _______ _______ _______ _____ _____    ______ ____
ROOT
ATOM      1  C   UNL     1      47.840   3.269  15.881  0.00  0.00    +0.000 C 
ENDROOT
BRANCH   1   2
ATOM      2  O   UNL     1      47.829   4.575  15.302  0.00  0.00    +0.000 OA
BRANCH   2   5
ATOM      3  C   UNL     1      46.027   5.977  12.349  0.00  0.00    +0.000 A 
ATOM      4  C   UNL     1      46.821   5.926  13.504  0.00  0.00    +0.000 A 
ATOM      5  C   UNL     1      47.070   4.719  14.165  0.00  0.00    +0.000 A 
ATOM      6  C   UNL     1      46.513   3.543  13.665  0.00  0.00    +0.000 A 
ATOM      7  C   UNL     1      45.728   3.574  12.513  0.00  0.00    +0.000 A 
ATOM      8  C   UNL     1      45.478   4.783  11.840  0.00  0.00    +0.000 A 
BRANCH   8   9
ATOM      9  C   UNL     1      44.650   4.696  10.597  0.00  0.00    +0.000 C 
ATOM     10  N   UNL     1      43.530   5.469  10.507  0.00  0.00    +0.000 N 
ATOM     11  O   UNL     1      44.960   3.960   9.668  0.00  0.00    +0.000 OA
ATOM     12  H   UNL     1      43.210   6.020  11.293  0.00  0.00    +0.000 HD
ATOM     13  H   UNL     1      42.947   5.382   9.688  0.00  0.00    +0.000 HD
ENDBRANCH   8   9
BRANCH   3  15
ATOM     14  C   UNL     1      45.466   8.299  12.536  0.00  0.00    +0.000 C 
ATOM     15  O   UNL     1      45.712   7.157  11.721  0.00  0.00    +0.000 OA
ENDBRANCH   3  15
ENDBRANCH   2   5
ENDBRANCH   1   2
BRANCH   1  16
ATOM     16  C   UNL     1      47.325   3.310  17.320  0.00  0.00    +0.000 C 
BRANCH  16  17
ATOM     17  C   UNL     1      48.169   4.251  18.144  0.00  0.00    +0.000 A 
ATOM     18  C   UNL     1      49.557   4.110  18.192  0.00  0.00    +0.000 A 
ATOM     19  C   UNL     1      50.324   5.039  18.891  0.00  0.00    +0.000 A 
ATOM     20  C   UNL     1      49.713   6.128  19.523  0.00  0.00    +0.000 A 
ATOM     21  C   UNL     1      48.322   6.335  19.456  0.00  0.00    +0.000 A 
ATOM     22  C   UNL     1      47.573   5.355  18.776  0.00  0.00    +0.000 A 
ATOM     23  F   UNL     1      46.242   5.493  18.652  0.00  0.00    +0.000 F 
BRANCH  21  24
ATOM     24  C   UNL     1      47.700   7.575  19.986  0.00  0.00    +0.000 A 
ATOM     25  C   UNL     1      47.442   7.722  21.364  0.00  0.00    +0.000 A 
ATOM     26  C   UNL     1      46.955   8.919  21.899  0.00  0.00    +0.000 A 
ATOM     27  C   UNL     1      46.715  10.005  21.067  0.00  0.00    +0.000 A 
ATOM     28  C   UNL     1      46.935   9.884  19.698  0.00  0.00    +0.000 A 
ATOM     29  C   UNL     1      47.408   8.679  19.165  0.00  0.00    +0.000 A 
ENDBRANCH  21  24
ENDBRANCH  16  17
ENDBRANCH   1  16
TORSDOF 7
ENDMDL
