MODEL 1
REMARK VINA RESULT:    -6.494      0.000      0.000
REMARK INTER + INTRA:          -9.217
REMARK INTER:                  -8.012
REMARK INTRA:                  -1.205
REMARK UNBOUND:                -1.205
REMARK  Name = 
REMARK  6 active torsions:
REMARK  status: ('A' for Active; 'I' for Inactive)
REMARK    1  A    between atoms: C_1  and  C_2
REMARK    2  A    between atoms: C_10  and  C_11
REMARK    3  A    between atoms: C_11  and  C_12
REMARK    4  A    between atoms: C_12  and  C_13
REMARK    5  A    between atoms: C_16  and  S_17
REMARK    6  A    between atoms: S_17  and  C_18
REMARK                            x       y       z     vdW  Elec       q    Type
REMARK                         _______ _______ _______ _____ _____    ______ ____
ROOT
ATOM      1  C   UNL     1      45.970   4.730   8.648  0.00  0.00    +0.000 C 
ATOM      2  C   UNL     1      44.548   4.694   9.219  0.00  0.00    +0.000 C 
ATOM      3  C   UNL     1      44.505   5.278  10.654  0.00  0.00    +0.000 C 
ATOM      4  N   UNL     1      45.065   4.334  11.627  0.00  0.00    +0.000 N 
ATOM      5  C   UNL     1      45.945   4.786  12.579  0.00  0.00    +0.000 A 
ATOM      6  C   UNL     1      46.107   4.145  13.799  0.00  0.00    +0.000 A 
ATOM      7  C   UNL     1      47.017   4.637  14.728  0.00  0.00    +0.000 A 
ATOM      8  C   UNL     1      47.750   5.781  14.432  0.00  0.00    +0.000 A 
ATOM      9 CL   UNL     1      48.794   6.375  15.669  0.00  0.00    +0.000 Cl
ATOM     10  C   UNL     1      47.568   6.410  13.194  0.00  0.00    +0.000 A 
ATOM     11  N   UNL     1      46.668   5.894  12.301  0.00  0.00    +0.000 NA
ATOM     12  C   UNL     1      44.573   2.958  11.566  0.00  0.00    +0.000 C 
ATOM     13  C   UNL     1      44.589   2.435  10.110  0.00  0.00    +0.000 C 
ATOM     14  N   UNL     1      43.952   3.337   9.128  0.00  0.00    +0.000 NA
ATOM     15  H   UNL     1      42.968   3.419   9.384  0.00  0.00    +0.000 HD
ENDROOT
BRANCH  10  16
ATOM     16  C   UNL     1      48.243   7.737  12.774  0.00  0.00    +0.000 C 
ATOM     17  C   UNL     1      48.780   7.753  11.342  0.00  0.00    +0.000 C 
ATOM     18  C   UNL     1      49.746   7.743  12.481  0.00  0.00    +0.000 C 
BRANCH  16  19
ATOM     19  C   UNL     1      47.694   9.037  13.351  0.00  0.00    +0.000 C 
BRANCH  19  20
ATOM     20  C   UNL     1      46.691   9.773  12.484  0.00  0.00    +0.000 A 
ATOM     21  C   UNL     1      47.016  10.915  11.738  0.00  0.00    +0.000 A 
ATOM     22  C   UNL     1      46.075  11.515  10.897  0.00  0.00    +0.000 A 
ATOM     23  C   UNL     1      44.802  10.955  10.776  0.00  0.00    +0.000 A 
ATOM     24  C   UNL     1      44.454   9.817  11.506  0.00  0.00    +0.000 A 
ATOM     25  C   UNL     1      45.400   9.229  12.349  0.00  0.00    +0.000 A 
BRANCH  23  26
ATOM     26  S   UNL     1      43.595  11.733   9.730  0.00  0.00    +0.000 S 
ATOM     27  C   UNL     1      42.541  12.591  10.870  0.00  0.00    +0.000 C 
ATOM     28  O   UNL     1      44.286  12.729   8.930  0.00  0.00    +0.000 OA
ATOM     29  O   UNL     1      42.819  10.685   9.099  0.00  0.00    +0.000 OA
ENDBRANCH  23  26
ENDBRANCH  19  20
ENDBRANCH  16  19
ENDBRANCH  10  16
TORSDOF 4
ENDMDL
MODEL 2
REMARK VINA RESULT:    -6.341      4.390      6.475
REMARK INTER + INTRA:          -9.029
REMARK INTER:                  -8.601
REMARK INTRA:                  -0.428
REMARK UNBOUND:                -1.205
REMARK  Name = 
REMARK  6 active torsions:
REMARK  status: ('A' for Active; 'I' for Inactive)
REMARK    1  A    between atoms: C_1  and  C_2
REMARK    2  A    between atoms: C_10  and  C_11
REMARK    3  A    between atoms: C_11  and  C_12
REMARK    4  A    between atoms: C_12  and  C_13
REMARK    5  A    between atoms: C_16  and  S_17
REMARK    6  A    between atoms: S_17  and  C_18
REMARK                            x       y       z     vdW  Elec       q    Type
REMARK                         _______ _______ _______ _____ _____    ______ ____
ROOT
ATOM      1  C   UNL     1      47.320   3.563  16.308  0.00  0.00    +0.000 C 
ATOM      2  C   UNL     1      47.469   4.150  17.716  0.00  0.00    +0.000 C 
ATOM      3  C   UNL     1      48.159   5.536  17.676  0.00  0.00    +0.000 C 
ATOM      4  N   UNL     1      49.600   5.404  17.432  0.00  0.00    +0.000 N 
ATOM      5  C   UNL     1      50.208   6.223  16.512  0.00  0.00    +0.000 A 
ATOM      6  C   UNL     1      51.557   6.540  16.585  0.00  0.00    +0.000 A 
ATOM      7  C   UNL     1      52.129   7.368  15.626  0.00  0.00    +0.000 A 
ATOM      8  C   UNL     1      51.339   7.885  14.604  0.00  0.00    +0.000 A 
ATOM      9 CL   UNL     1      52.104   8.969  13.504  0.00  0.00    +0.000 Cl
ATOM     10  C   UNL     1      49.981   7.549  14.554  0.00  0.00    +0.000 A 
ATOM     11  N   UNL     1      49.452   6.727  15.512  0.00  0.00    +0.000 NA
ATOM     12  C   UNL     1      50.321   4.442  18.264  0.00  0.00    +0.000 C 
ATOM     13  C   UNL     1      49.571   3.090  18.313  0.00  0.00    +0.000 C 
ATOM     14  N   UNL     1      48.135   3.198  18.642  0.00  0.00    +0.000 NA
ATOM     15  H   UNL     1      48.066   3.590  19.581  0.00  0.00    +0.000 HD
ENDROOT
BRANCH  10  16
ATOM     16  C   UNL     1      48.970   8.126  13.535  0.00  0.00    +0.000 C 
ATOM     17  C   UNL     1      48.896   9.654  13.506  0.00  0.00    +0.000 C 
ATOM     18  C   UNL     1      47.743   8.881  14.055  0.00  0.00    +0.000 C 
BRANCH  16  19
ATOM     19  C   UNL     1      48.755   7.371  12.228  0.00  0.00    +0.000 C 
BRANCH  19  20
ATOM     20  C   UNL     1      47.514   6.502  12.163  0.00  0.00    +0.000 A 
ATOM     21  C   UNL     1      47.226   5.506  13.108  0.00  0.00    +0.000 A 
ATOM     22  C   UNL     1      46.033   4.781  13.045  0.00  0.00    +0.000 A 
ATOM     23  C   UNL     1      45.102   5.070  12.047  0.00  0.00    +0.000 A 
ATOM     24  C   UNL     1      45.363   6.058  11.096  0.00  0.00    +0.000 A 
ATOM     25  C   UNL     1      46.562   6.772  11.163  0.00  0.00    +0.000 A 
BRANCH  23  26
ATOM     26  S   UNL     1      43.598   4.131  11.948  0.00  0.00    +0.000 S 
ATOM     27  C   UNL     1      42.334   5.370  11.840  0.00  0.00    +0.000 C 
ATOM     28  O   UNL     1      43.617   3.406  10.689  0.00  0.00    +0.000 OA
ATOM     29  O   UNL     1      43.433   3.428  13.204  0.00  0.00    +0.000 OA
ENDBRANCH  23  26
ENDBRANCH  19  20
ENDBRANCH  16  19
ENDBRANCH  10  16
TORSDOF 4
ENDMDL
MODEL 3
REMARK VINA RESULT:    -6.282      4.489      6.409
REMARK INTER + INTRA:          -8.956
REMARK INTER:                  -8.802
REMARK INTRA:                  -0.154
REMARK UNBOUND:                -1.205
REMARK  Name = 
REMARK  6 active torsions:
REMARK  status: ('A' for Active; 'I' for Inactive)
REMARK    1  A    between atoms: C_1  and  C_2
REMARK    2  A    between atoms: C_10  and  C_11
REMARK    3  A    between atoms: C_11  and  C_12
REMARK    4  A    between atoms: C_12  and  C_13
REMARK    5  A    between atoms: C_16  and  S_17
REMARK    6  A    between atoms: S_17  and  C_18
REMARK                            x       y       z     vdW  Elec       q    Type
REMARK                         _______ _______ _______ _____ _____    ______ ____
ROOT
ATOM      1  C   UNL     1      45.516   3.528  12.626  0.00  0.00    +0.000 C 
ATOM      2  C   UNL     1      44.973   3.627  11.197  0.00  0.00    +0.000 C 
ATOM      3  C   UNL     1      45.346   4.984  10.548  0.00  0.00    +0.000 C 
ATOM      4  N   UNL     1      44.521   6.072  11.082  0.00  0.00    +0.000 N 
ATOM      5  C   UNL     1      45.114   7.256  11.445  0.00  0.00    +0.000 A 
ATOM      6  C   UNL     1      44.421   8.459  11.450  0.00  0.00    +0.000 A 
ATOM      7  C   UNL     1      45.064   9.630  11.833  0.00  0.00    +0.000 A 
ATOM      8  C   UNL     1      46.406   9.591  12.197  0.00  0.00    +0.000 A 
ATOM      9 CL   UNL     1      47.152  11.097  12.577  0.00  0.00    +0.000 Cl
ATOM     10  C   UNL     1      47.083   8.365  12.183  0.00  0.00    +0.000 A 
ATOM     11  N   UNL     1      46.416   7.230  11.806  0.00  0.00    +0.000 NA
ATOM     12  C   UNL     1      43.076   5.845  11.116  0.00  0.00    +0.000 C 
ATOM     13  C   UNL     1      42.754   4.461  11.727  0.00  0.00    +0.000 C 
ATOM     14  N   UNL     1      43.517   3.340  11.140  0.00  0.00    +0.000 NA
ATOM     15  H   UNL     1      43.257   3.278  10.155  0.00  0.00    +0.000 HD
ENDROOT
BRANCH  10  16
ATOM     16  C   UNL     1      48.593   8.191  12.468  0.00  0.00    +0.000 C 
ATOM     17  C   UNL     1      49.515   8.776  11.398  0.00  0.00    +0.000 C 
ATOM     18  C   UNL     1      49.423   7.293  11.546  0.00  0.00    +0.000 C 
BRANCH  16  19
ATOM     19  C   UNL     1      49.060   8.230  13.919  0.00  0.00    +0.000 C 
BRANCH  19  20
ATOM     20  C   UNL     1      48.707   7.019  14.760  0.00  0.00    +0.000 A 
ATOM     21  C   UNL     1      47.726   6.087  14.388  0.00  0.00    +0.000 A 
ATOM     22  C   UNL     1      47.488   4.948  15.161  0.00  0.00    +0.000 A 
ATOM     23  C   UNL     1      48.256   4.717  16.303  0.00  0.00    +0.000 A 
ATOM     24  C   UNL     1      49.240   5.627  16.694  0.00  0.00    +0.000 A 
ATOM     25  C   UNL     1      49.465   6.766  15.918  0.00  0.00    +0.000 A 
BRANCH  23  26
ATOM     26  S   UNL     1      47.936   3.284  17.303  0.00  0.00    +0.000 S 
ATOM     27  C   UNL     1      48.495   3.764  18.917  0.00  0.00    +0.000 C 
ATOM     28  O   UNL     1      46.495   3.109  17.368  0.00  0.00    +0.000 OA
ATOM     29  O   UNL     1      48.792   2.216  16.829  0.00  0.00    +0.000 OA
ENDBRANCH  23  26
ENDBRANCH  19  20
ENDBRANCH  16  19
ENDBRANCH  10  16
TORSDOF 4
ENDMDL
MODEL 4
REMARK VINA RESULT:    -6.213      4.520      6.850
REMARK INTER + INTRA:          -8.871
REMARK INTER:                  -7.761
REMARK INTRA:                  -1.109
REMARK UNBOUND:                -1.205
REMARK  Name = 
REMARK  6 active torsions:
REMARK  status: ('A' for Active; 'I' for Inactive)
REMARK    1  A    between atoms: C_1  and  C_2
REMARK    2  A    between atoms: C_10  and  C_11
REMARK    3  A    between atoms: C_11  and  C_12
REMARK    4  A    between atoms: C_12  and  C_13
REMARK    5  A    between atoms: C_16  and  S_17
REMARK    6  A    between atoms: S_17  and  C_18
REMARK                            x       y       z     vdW  Elec       q    Type
REMARK                         _______ _______ _______ _____ _____    ______ ____
ROOT
ATOM      1  C   UNL     1      50.322   4.078  18.069  0.00  0.00    +0.000 C 
ATOM      2  C   UNL     1      48.825   3.800  18.242  0.00  0.00    +0.000 C 
ATOM      3  C   UNL     1      47.969   4.963  17.680  0.00  0.00    +0.000 C 
ATOM      4  N   UNL     1      47.995   6.122  18.578  0.00  0.00    +0.000 N 
ATOM      5  C   UNL     1      48.185   7.378  18.056  0.00  0.00    +0.000 A 
ATOM      6  C   UNL     1      47.719   8.520  18.693  0.00  0.00    +0.000 A 
ATOM      7  C   UNL     1      47.943   9.770  18.129  0.00  0.00    +0.000 A 
ATOM      8  C   UNL     1      48.621   9.868  16.919  0.00  0.00    +0.000 A 
ATOM      9 CL   UNL     1      48.783  11.445  16.244  0.00  0.00    +0.000 Cl
ATOM     10  C   UNL     1      49.081   8.700  16.297  0.00  0.00    +0.000 A 
ATOM     11  N   UNL     1      48.848   7.486  16.884  0.00  0.00    +0.000 NA
ATOM     12  C   UNL     1      47.730   5.862  19.993  0.00  0.00    +0.000 C 
ATOM     13  C   UNL     1      48.569   4.665  20.496  0.00  0.00    +0.000 C 
ATOM     14  N   UNL     1      48.487   3.459  19.648  0.00  0.00    +0.000 NA
ATOM     15  H   UNL     1      47.516   3.144  19.659  0.00  0.00    +0.000 HD
ENDROOT
BRANCH  10  16
ATOM     16  C   UNL     1      49.762   8.653  14.908  0.00  0.00    +0.000 C 
ATOM     17  C   UNL     1      50.921   7.662  14.801  0.00  0.00    +0.000 C 
ATOM     18  C   UNL     1      51.212   9.126  14.778  0.00  0.00    +0.000 C 
BRANCH  16  19
ATOM     19  C   UNL     1      48.896   8.884  13.675  0.00  0.00    +0.000 C 
BRANCH  19  20
ATOM     20  C   UNL     1      47.746   7.915  13.484  0.00  0.00    +0.000 A 
ATOM     21  C   UNL     1      46.442   8.327  13.168  0.00  0.00    +0.000 A 
ATOM     22  C   UNL     1      45.432   7.391  12.930  0.00  0.00    +0.000 A 
ATOM     23  C   UNL     1      45.728   6.029  12.980  0.00  0.00    +0.000 A 
ATOM     24  C   UNL     1      47.018   5.593  13.289  0.00  0.00    +0.000 A 
ATOM     25  C   UNL     1      48.019   6.536  13.532  0.00  0.00    +0.000 A 
BRANCH  23  26
ATOM     26  S   UNL     1      44.439   4.838  12.706  0.00  0.00    +0.000 S 
ATOM     27  C   UNL     1      44.235   4.835  10.944  0.00  0.00    +0.000 C 
ATOM     28  O   UNL     1      44.957   3.536  13.094  0.00  0.00    +0.000 OA
ATOM     29  O   UNL     1      43.225   5.358  13.299  0.00  0.00    +0.000 OA
ENDBRANCH  23  26
ENDBRANCH  19  20
ENDBRANCH  16  19
ENDBRANCH  10  16
TORSDOF 4
ENDMDL
MODEL 5
REMARK VINA RESULT:    -4.706     11.746     13.559
REMARK INTER + INTRA:          -7.012
REMARK INTER:                  -5.849
REMARK INTRA:                  -1.163
REMARK UNBOUND:                -1.205
REMARK  Name = 
REMARK  6 active torsions:
REMARK  status: ('A' for Active; 'I' for Inactive)
REMARK    1  A    between atoms: C_1  and  C_2
REMARK    2  A    between atoms: C_10  and  C_11
REMARK    3  A    between atoms: C_11  and  C_12
REMARK    4  A    between atoms: C_12  and  C_13
REMARK    5  A    between atoms: C_16  and  S_17
REMARK    6  A    between atoms: S_17  and  C_18
REMARK                            x       y       z     vdW  Elec       q    Type
REMARK                         _______ _______ _______ _____ _____    ______ ____
ROOT
ATOM      1  C   UNL     1      35.084   0.506  16.164  0.00  0.00    +0.000 C 
ATOM      2  C   UNL     1      36.008   1.392  15.321  0.00  0.00    +0.000 C 
ATOM      3  C   UNL     1      37.438   1.436  15.914  0.00  0.00    +0.000 C 
ATOM      4  N   UNL     1      37.491   2.284  17.110  0.00  0.00    +0.000 N 
ATOM      5  C   UNL     1      38.154   1.839  18.227  0.00  0.00    +0.000 A 
ATOM      6  C   UNL     1      38.698   2.711  19.160  0.00  0.00    +0.000 A 
ATOM      7  C   UNL     1      39.353   2.212  20.279  0.00  0.00    +0.000 A 
ATOM      8  C   UNL     1      39.473   0.837  20.450  0.00  0.00    +0.000 A 
ATOM      9 CL   UNL     1      40.372   0.299  21.818  0.00  0.00    +0.000 Cl
ATOM     10  C   UNL     1      38.916  -0.022  19.494  0.00  0.00    +0.000 A 
ATOM     11  N   UNL     1      38.272   0.505  18.407  0.00  0.00    +0.000 NA
ATOM     12  C   UNL     1      36.888   3.612  17.000  0.00  0.00    +0.000 C 
ATOM     13  C   UNL     1      35.483   3.525  16.359  0.00  0.00    +0.000 C 
ATOM     14  N   UNL     1      35.429   2.744  15.107  0.00  0.00    +0.000 NA
ATOM     15  H   UNL     1      36.017   3.222  14.424  0.00  0.00    +0.000 HD
ENDROOT
BRANCH  10  16
ATOM     16  C   UNL     1      39.057  -1.563  19.507  0.00  0.00    +0.000 C 
ATOM     17  C   UNL     1      37.785  -2.322  19.126  0.00  0.00    +0.000 C 
ATOM     18  C   UNL     1      38.264  -2.370  20.539  0.00  0.00    +0.000 C 
BRANCH  16  19
ATOM     19  C   UNL     1      40.400  -2.165  19.112  0.00  0.00    +0.000 C 
BRANCH  19  20
ATOM     20  C   UNL     1      40.533  -2.588  17.662  0.00  0.00    +0.000 A 
ATOM     21  C   UNL     1      40.379  -1.700  16.587  0.00  0.00    +0.000 A 
ATOM     22  C   UNL     1      40.584  -2.123  15.271  0.00  0.00    +0.000 A 
ATOM     23  C   UNL     1      40.975  -3.439  15.023  0.00  0.00    +0.000 A 
ATOM     24  C   UNL     1      41.138  -4.342  16.075  0.00  0.00    +0.000 A 
ATOM     25  C   UNL     1      40.924  -3.912  17.386  0.00  0.00    +0.000 A 
BRANCH  23  26
ATOM     26  S   UNL     1      41.208  -3.987  13.349  0.00  0.00    +0.000 S 
ATOM     27  C   UNL     1      39.556  -4.218  12.748  0.00  0.00    +0.000 C 
ATOM     28  O   UNL     1      41.799  -2.886  12.607  0.00  0.00    +0.000 OA
ATOM     29  O   UNL     1      41.856  -5.281  13.395  0.00  0.00    +0.000 OA
ENDBRANCH  23  26
ENDBRANCH  19  20
ENDBRANCH  16  19
ENDBRANCH  10  16
TORSDOF 4
ENDMDL
MODEL 6
REMARK VINA RESULT:    -4.589      4.678      6.638
REMARK INTER + INTRA:          -6.867
REMARK INTER:                  -5.962
REMARK INTRA:                  -0.905
REMARK UNBOUND:                -1.205
REMARK  Name = 
REMARK  6 active torsions:
REMARK  status: ('A' for Active; 'I' for Inactive)
REMARK    1  A    between atoms: C_1  and  C_2
REMARK    2  A    between atoms: C_10  and  C_11
REMARK    3  A    between atoms: C_11  and  C_12
REMARK    4  A    between atoms: C_12  and  C_13
REMARK    5  A    between atoms: C_16  and  S_17
REMARK    6  A    between atoms: S_17  and  C_18
REMARK                            x       y       z     vdW  Elec       q    Type
REMARK                         _______ _______ _______ _____ _____    ______ ____
ROOT
ATOM      1  C   UNL     1      47.138   5.320  14.204  0.00  0.00    +0.000 C 
ATOM      2  C   UNL     1      46.583   4.949  12.824  0.00  0.00    +0.000 C 
ATOM      3  C   UNL     1      46.730   6.124  11.825  0.00  0.00    +0.000 C 
ATOM      4  N   UNL     1      45.740   7.173  12.091  0.00  0.00    +0.000 N 
ATOM      5  C   UNL     1      46.133   8.488  12.103  0.00  0.00    +0.000 A 
ATOM      6  C   UNL     1      45.254   9.525  11.823  0.00  0.00    +0.000 A 
ATOM      7  C   UNL     1      45.699  10.841  11.855  0.00  0.00    +0.000 A 
ATOM      8  C   UNL     1      47.030  11.111  12.156  0.00  0.00    +0.000 A 
ATOM      9 CL   UNL     1      47.521  12.761  12.093  0.00  0.00    +0.000 Cl
ATOM     10  C   UNL     1      47.896  10.047  12.434  0.00  0.00    +0.000 A 
ATOM     11  N   UNL     1      47.423   8.763  12.399  0.00  0.00    +0.000 NA
ATOM     12  C   UNL     1      44.351   6.740  12.248  0.00  0.00    +0.000 C 
ATOM     13  C   UNL     1      44.259   5.536  13.215  0.00  0.00    +0.000 C 
ATOM     14  N   UNL     1      45.193   4.433  12.910  0.00  0.00    +0.000 NA
ATOM     15  H   UNL     1      44.946   4.071  11.989  0.00  0.00    +0.000 HD
ENDROOT
BRANCH  10  16
ATOM     16  C   UNL     1      49.416  10.193  12.688  0.00  0.00    +0.000 C 
ATOM     17  C   UNL     1      50.185  10.885  11.562  0.00  0.00    +0.000 C 
ATOM     18  C   UNL     1      50.393   9.424  11.794  0.00  0.00    +0.000 C 
BRANCH  16  19
ATOM     19  C   UNL     1      49.888  10.411  14.121  0.00  0.00    +0.000 C 
BRANCH  19  20
ATOM     20  C   UNL     1      49.749   9.222  15.051  0.00  0.00    +0.000 A 
ATOM     21  C   UNL     1      48.678   9.069  15.944  0.00  0.00    +0.000 A 
ATOM     22  C   UNL     1      48.557   7.919  16.728  0.00  0.00    +0.000 A 
ATOM     23  C   UNL     1      49.497   6.896  16.602  0.00  0.00    +0.000 A 
ATOM     24  C   UNL     1      50.570   7.022  15.719  0.00  0.00    +0.000 A 
ATOM     25  C   UNL     1      50.687   8.178  14.945  0.00  0.00    +0.000 A 
BRANCH  23  26
ATOM     26  S   UNL     1      49.360   5.446  17.619  0.00  0.00    +0.000 S 
ATOM     27  C   UNL     1      50.746   5.571  18.719  0.00  0.00    +0.000 C 
ATOM     28  O   UNL     1      48.151   5.581  18.413  0.00  0.00    +0.000 OA
ATOM     29  O   UNL     1      49.563   4.290  16.769  0.00  0.00    +0.000 OA
ENDBRANCH  23  26
ENDBRANCH  19  20
ENDBRANCH  16  19
ENDBRANCH  10  16
TORSDOF 4
ENDMDL
MODEL 7
REMARK VINA RESULT:    -4.469      4.461      7.012
REMARK INTER + INTRA:          -6.719
REMARK INTER:                  -6.358
REMARK INTRA:                  -0.361
REMARK UNBOUND:                -1.205
REMARK  Name = 
REMARK  6 active torsions:
REMARK  status: ('A' for Active; 'I' for Inactive)
REMARK    1  A    between atoms: C_1  and  C_2
REMARK    2  A    between atoms: C_10  and  C_11
REMARK    3  A    between atoms: C_11  and  C_12
REMARK    4  A    between atoms: C_12  and  C_13
REMARK    5  A    between atoms: C_16  and  S_17
REMARK    6  A    between atoms: S_17  and  C_18
REMARK                            x       y       z     vdW  Elec       q    Type
REMARK                         _______ _______ _______ _____ _____    ______ ____
ROOT
ATOM      1  C   UNL     1      46.813   5.648  18.482  0.00  0.00    +0.000 C 
ATOM      2  C   UNL     1      47.643   5.989  19.724  0.00  0.00    +0.000 C 
ATOM      3  C   UNL     1      48.854   6.885  19.362  0.00  0.00    +0.000 C 
ATOM      4  N   UNL     1      49.909   6.108  18.703  0.00  0.00    +0.000 N 
ATOM      5  C   UNL     1      50.516   6.609  17.578  0.00  0.00    +0.000 A 
ATOM      6  C   UNL     1      51.805   6.247  17.210  0.00  0.00    +0.000 A 
ATOM      7  C   UNL     1      52.373   6.775  16.057  0.00  0.00    +0.000 A 
ATOM      8  C   UNL     1      51.649   7.677  15.285  0.00  0.00    +0.000 A 
ATOM      9 CL   UNL     1      52.455   8.351  13.918  0.00  0.00    +0.000 Cl
ATOM     10  C   UNL     1      50.351   8.027  15.678  0.00  0.00    +0.000 A 
ATOM     11  N   UNL     1      49.821   7.482  16.816  0.00  0.00    +0.000 NA
ATOM     12  C   UNL     1      50.309   4.860  19.353  0.00  0.00    +0.000 C 
ATOM     13  C   UNL     1      49.068   4.022  19.740  0.00  0.00    +0.000 C 
ATOM     14  N   UNL     1      48.031   4.770  20.480  0.00  0.00    +0.000 NA
ATOM     15  H   UNL     1      48.446   5.077  21.360  0.00  0.00    +0.000 HD
ENDROOT
BRANCH  10  16
ATOM     16  C   UNL     1      49.473   9.086  14.970  0.00  0.00    +0.000 C 
ATOM     17  C   UNL     1      49.717  10.524  15.428  0.00  0.00    +0.000 C 
ATOM     18  C   UNL     1      48.433   9.854  15.791  0.00  0.00    +0.000 C 
BRANCH  16  19
ATOM     19  C   UNL     1      49.097   8.850  13.512  0.00  0.00    +0.000 C 
BRANCH  19  20
ATOM     20  C   UNL     1      47.880   7.976  13.276  0.00  0.00    +0.000 A 
ATOM     21  C   UNL     1      46.617   8.493  12.952  0.00  0.00    +0.000 A 
ATOM     22  C   UNL     1      45.544   7.643  12.673  0.00  0.00    +0.000 A 
ATOM     23  C   UNL     1      45.737   6.261  12.688  0.00  0.00    +0.000 A 
ATOM     24  C   UNL     1      46.985   5.721  13.005  0.00  0.00    +0.000 A 
ATOM     25  C   UNL     1      48.049   6.579  13.289  0.00  0.00    +0.000 A 
BRANCH  23  26
ATOM     26  S   UNL     1      44.368   5.177  12.361  0.00  0.00    +0.000 S 
ATOM     27  C   UNL     1      45.084   3.557  12.443  0.00  0.00    +0.000 C 
ATOM     28  O   UNL     1      43.435   5.306  13.468  0.00  0.00    +0.000 OA
ATOM     29  O   UNL     1      43.936   5.411  10.998  0.00  0.00    +0.000 OA
ENDBRANCH  23  26
ENDBRANCH  19  20
ENDBRANCH  16  19
ENDBRANCH  10  16
TORSDOF 4
ENDMDL
MODEL 8
REMARK VINA RESULT:    -4.453      6.440      8.880
REMARK INTER + INTRA:          -6.699
REMARK INTER:                  -5.519
REMARK INTRA:                  -1.181
REMARK UNBOUND:                -1.205
REMARK  Name = 
REMARK  6 active torsions:
REMARK  status: ('A' for Active; 'I' for Inactive)
REMARK    1  A    between atoms: C_1  and  C_2
REMARK    2  A    between atoms: C_10  and  C_11
REMARK    3  A    between atoms: C_11  and  C_12
REMARK    4  A    between atoms: C_12  and  C_13
REMARK    5  A    between atoms: C_16  and  S_17
REMARK    6  A    between atoms: S_17  and  C_18
REMARK                            x       y       z     vdW  Elec       q    Type
REMARK                         _______ _______ _______ _____ _____    ______ ____
ROOT
ATOM      1  C   UNL     1      53.934   3.410  20.477  0.00  0.00    +0.000 C 
ATOM      2  C   UNL     1      54.548   3.360  19.074  0.00  0.00    +0.000 C 
ATOM      3  C   UNL     1      53.502   3.724  17.990  0.00  0.00    +0.000 C 
ATOM      4  N   UNL     1      52.564   2.619  17.766  0.00  0.00    +0.000 N 
ATOM      5  C   UNL     1      51.218   2.879  17.683  0.00  0.00    +0.000 A 
ATOM      6  C   UNL     1      50.348   2.055  16.983  0.00  0.00    +0.000 A 
ATOM      7  C   UNL     1      48.992   2.358  16.935  0.00  0.00    +0.000 A 
ATOM      8  C   UNL     1      48.518   3.495  17.580  0.00  0.00    +0.000 A 
ATOM      9 CL   UNL     1      46.840   3.845  17.402  0.00  0.00    +0.000 Cl
ATOM     10  C   UNL     1      49.417   4.310  18.279  0.00  0.00    +0.000 A 
ATOM     11  N   UNL     1      50.744   3.979  18.310  0.00  0.00    +0.000 NA
ATOM     12  C   UNL     1      53.148   1.294  17.560  0.00  0.00    +0.000 C 
ATOM     13  C   UNL     1      54.219   0.994  18.635  0.00  0.00    +0.000 C 
ATOM     14  N   UNL     1      55.223   2.063  18.814  0.00  0.00    +0.000 NA
ATOM     15  H   UNL     1      55.729   2.154  17.933  0.00  0.00    +0.000 HD
ENDROOT
BRANCH  10  16
ATOM     16  C   UNL     1      49.044   5.650  18.957  0.00  0.00    +0.000 C 
ATOM     17  C   UNL     1      50.044   6.130  20.009  0.00  0.00    +0.000 C 
ATOM     18  C   UNL     1      48.698   5.655  20.448  0.00  0.00    +0.000 C 
BRANCH  16  19
ATOM     19  C   UNL     1      48.317   6.699  18.124  0.00  0.00    +0.000 C 
BRANCH  19  20
ATOM     20  C   UNL     1      49.086   7.253  16.940  0.00  0.00    +0.000 A 
ATOM     21  C   UNL     1      50.134   8.177  17.072  0.00  0.00    +0.000 A 
ATOM     22  C   UNL     1      50.861   8.602  15.957  0.00  0.00    +0.000 A 
ATOM     23  C   UNL     1      50.560   8.081  14.698  0.00  0.00    +0.000 A 
ATOM     24  C   UNL     1      49.524   7.159  14.540  0.00  0.00    +0.000 A 
ATOM     25  C   UNL     1      48.799   6.745  15.660  0.00  0.00    +0.000 A 
BRANCH  23  26
ATOM     26  S   UNL     1      51.463   8.641  13.275  0.00  0.00    +0.000 S 
ATOM     27  C   UNL     1      51.171  10.391  13.253  0.00  0.00    +0.000 C 
ATOM     28  O   UNL     1      52.876   8.432  13.543  0.00  0.00    +0.000 OA
ATOM     29  O   UNL     1      50.839   8.066  12.102  0.00  0.00    +0.000 OA
ENDBRANCH  23  26
ENDBRANCH  19  20
ENDBRANCH  16  19
ENDBRANCH  10  16
TORSDOF 4
ENDMDL
MODEL 9
REMARK VINA RESULT:    -4.435      4.612      7.602
REMARK INTER + INTRA:          -6.677
REMARK INTER:                  -6.735
REMARK INTRA:                   0.058
REMARK UNBOUND:                -1.205
REMARK  Name = 
REMARK  6 active torsions:
REMARK  status: ('A' for Active; 'I' for Inactive)
REMARK    1  A    between atoms: C_1  and  C_2
REMARK    2  A    between atoms: C_10  and  C_11
REMARK    3  A    between atoms: C_11  and  C_12
REMARK    4  A    between atoms: C_12  and  C_13
REMARK    5  A    between atoms: C_16  and  S_17
REMARK    6  A    between atoms: S_17  and  C_18
REMARK                            x       y       z     vdW  Elec       q    Type
REMARK                         _______ _______ _______ _____ _____    ______ ____
ROOT
ATOM      1  C   UNL     1      47.759   8.421  18.415  0.00  0.00    +0.000 C 
ATOM      2  C   UNL     1      48.507   9.710  18.770  0.00  0.00    +0.000 C 
ATOM      3  C   UNL     1      49.249  10.286  17.538  0.00  0.00    +0.000 C 
ATOM      4  N   UNL     1      50.455   9.509  17.235  0.00  0.00    +0.000 N 
ATOM      5  C   UNL     1      50.721   9.152  15.936  0.00  0.00    +0.000 A 
ATOM      6  C   UNL     1      52.012   8.906  15.487  0.00  0.00    +0.000 A 
ATOM      7  C   UNL     1      52.229   8.540  14.164  0.00  0.00    +0.000 A 
ATOM      8  C   UNL     1      51.150   8.435  13.293  0.00  0.00    +0.000 A 
ATOM      9 CL   UNL     1      51.511   8.058  11.650  0.00  0.00    +0.000 Cl
ATOM     10  C   UNL     1      49.858   8.688  13.771  0.00  0.00    +0.000 A 
ATOM     11  N   UNL     1      49.680   9.041  15.082  0.00  0.00    +0.000 NA
ATOM     12  C   UNL     1      51.356   9.232  18.353  0.00  0.00    +0.000 C 
ATOM     13  C   UNL     1      50.567   8.705  19.574  0.00  0.00    +0.000 C 
ATOM     14  N   UNL     1      49.395   9.525  19.946  0.00  0.00    +0.000 NA
ATOM     15  H   UNL     1      49.742  10.447  20.214  0.00  0.00    +0.000 HD
ENDROOT
BRANCH  10  16
ATOM     16  C   UNL     1      48.583   8.703  12.894  0.00  0.00    +0.000 C 
ATOM     17  C   UNL     1      48.781   8.173  11.474  0.00  0.00    +0.000 C 
ATOM     18  C   UNL     1      48.532   9.631  11.677  0.00  0.00    +0.000 C 
BRANCH  16  19
ATOM     19  C   UNL     1      47.241   8.456  13.573  0.00  0.00    +0.000 C 
BRANCH  19  20
ATOM     20  C   UNL     1      46.472   7.240  13.096  0.00  0.00    +0.000 A 
ATOM     21  C   UNL     1      46.770   5.934  13.511  0.00  0.00    +0.000 A 
ATOM     22  C   UNL     1      45.985   4.853  13.100  0.00  0.00    +0.000 A 
ATOM     23  C   UNL     1      44.873   5.078  12.287  0.00  0.00    +0.000 A 
ATOM     24  C   UNL     1      44.554   6.369  11.861  0.00  0.00    +0.000 A 
ATOM     25  C   UNL     1      45.348   7.441  12.273  0.00  0.00    +0.000 A 
BRANCH  23  26
ATOM     26  S   UNL     1      43.891   3.703  11.739  0.00  0.00    +0.000 S 
ATOM     27  C   UNL     1      44.806   3.053  10.365  0.00  0.00    +0.000 C 
ATOM     28  O   UNL     1      43.909   2.705  12.795  0.00  0.00    +0.000 OA
ATOM     29  O   UNL     1      42.638   4.228  11.238  0.00  0.00    +0.000 OA
ENDBRANCH  23  26
ENDBRANCH  19  20
ENDBRANCH  16  19
ENDBRANCH  10  16
TORSDOF 4
ENDMDL
