MODEL 1
REMARK VINA RESULT:    -8.124      0.000      0.000
REMARK INTER + INTRA:         -10.708
REMARK INTER:                 -10.024
REMARK INTRA:                  -0.684
REMARK UNBOUND:                -0.684
REMARK  Name = 
REMARK  4 active torsions:
REMARK  status: ('A' for Active; 'I' for Inactive)
REMARK    1  A    between atoms: C_2  and  C_5
REMARK    2  A    between atoms: N_9  and  C_10
REMARK    3  A    between atoms: C_10  and  C_11
REMARK    4  A    between atoms: C_15  and  C_16
REMARK                            x       y       z     vdW  Elec       q    Type
REMARK                         _______ _______ _______ _____ _____    ______ ____
ROOT
ATOM      1  C   UNL     1      43.673   5.181  10.739  0.00  0.00    +0.000 C 
ENDROOT
BRANCH   1   6
ATOM      2  C   UNL     1      46.426   2.591   7.457  0.00  0.00    +0.000 A 
ATOM      3  C   UNL     1      45.938   1.776   8.448  0.00  0.00    +0.000 A 
ATOM      4  N   UNL     1      45.075   2.189   9.399  0.00  0.00    +0.000 NA
ATOM      5  C   UNL     1      44.689   3.472   9.362  0.00  0.00    +0.000 A 
ATOM      6  N   UNL     1      43.682   3.821  10.223  0.00  0.00    +0.000 N 
ATOM      7  N   UNL     1      45.163   4.359   8.478  0.00  0.00    +0.000 NA
ATOM      8  C   UNL     1      46.010   3.898   7.534  0.00  0.00    +0.000 A 
ATOM      9  H   UNL     1      43.547   3.108  10.932  0.00  0.00    +0.000 HD
BRANCH   2  11
ATOM     10  F   UNL     1      47.331   0.738   6.270  0.00  0.00    +0.000 F 
ATOM     11  C   UNL     1      47.305   2.096   6.371  0.00  0.00    +0.000 C 
ATOM     12  F   UNL     1      48.600   2.483   6.523  0.00  0.00    +0.000 F 
ATOM     13  F   UNL     1      46.924   2.548   5.144  0.00  0.00    +0.000 F 
ENDBRANCH   2  11
ENDBRANCH   1   6
BRANCH   1  14
ATOM     14  C   UNL     1      44.788   5.372  11.763  0.00  0.00    +0.000 A 
ATOM     15  N   UNL     1      44.865   4.502  12.788  0.00  0.00    +0.000 NA
ATOM     16  C   UNL     1      45.894   4.663  13.629  0.00  0.00    +0.000 A 
ATOM     17  C   UNL     1      46.838   5.658  13.502  0.00  0.00    +0.000 A 
ATOM     18  C   UNL     1      46.676   6.533  12.442  0.00  0.00    +0.000 A 
ATOM     19  N   UNL     1      45.646   6.405  11.577  0.00  0.00    +0.000 NA
BRANCH  18  20
ATOM     20  C   UNL     1      47.627   7.629  12.156  0.00  0.00    +0.000 A 
ATOM     21  C   UNL     1      47.194   8.969  12.143  0.00  0.00    +0.000 A 
ATOM     22  C   UNL     1      48.071  10.018  11.849  0.00  0.00    +0.000 A 
ATOM     23  C   UNL     1      49.406   9.749  11.566  0.00  0.00    +0.000 A 
ATOM     24  C   UNL     1      49.865   8.436  11.581  0.00  0.00    +0.000 A 
ATOM     25  C   UNL     1      48.986   7.389  11.876  0.00  0.00    +0.000 A 
ENDBRANCH  18  20
ENDBRANCH   1  14
TORSDOF 4
ENDMDL
MODEL 2
REMARK VINA RESULT:    -7.526      5.363      8.238
REMARK INTER + INTRA:          -9.970
REMARK INTER:                  -9.538
REMARK INTRA:                  -0.432
REMARK UNBOUND:                -0.684
REMARK  Name = 
REMARK  4 active torsions:
REMARK  status: ('A' for Active; 'I' for Inactive)
REMARK    1  A    between atoms: C_2  and  C_5
REMARK    2  A    between atoms: N_9  and  C_10
REMARK    3  A    between atoms: C_10  and  C_11
REMARK    4  A    between atoms: C_15  and  C_16
REMARK                            x       y       z     vdW  Elec       q    Type
REMARK                         _______ _______ _______ _____ _____    ______ ____
ROOT
ATOM      1  C   UNL     1      45.958   5.423  13.658  0.00  0.00    +0.000 C 
ENDROOT
BRANCH   1   6
ATOM      2  C   UNL     1      48.873   4.470  17.615  0.00  0.00    +0.000 A 
ATOM      3  C   UNL     1      47.865   3.544  17.506  0.00  0.00    +0.000 A 
ATOM      4  N   UNL     1      47.004   3.495  16.469  0.00  0.00    +0.000 NA
ATOM      5  C   UNL     1      47.150   4.415  15.505  0.00  0.00    +0.000 A 
ATOM      6  N   UNL     1      46.383   4.236  14.383  0.00  0.00    +0.000 N 
ATOM      7  N   UNL     1      48.057   5.399  15.557  0.00  0.00    +0.000 NA
ATOM      8  C   UNL     1      48.909   5.398  16.603  0.00  0.00    +0.000 A 
ATOM      9  H   UNL     1      45.640   3.567  14.555  0.00  0.00    +0.000 HD
BRANCH   2  11
ATOM     10  F   UNL     1      50.874   3.561  18.527  0.00  0.00    +0.000 F 
ATOM     11  C   UNL     1      49.863   4.453  18.718  0.00  0.00    +0.000 C 
ATOM     12  F   UNL     1      49.309   4.134  19.919  0.00  0.00    +0.000 F 
ATOM     13  F   UNL     1      50.467   5.661  18.897  0.00  0.00    +0.000 F 
ENDBRANCH   2  11
ENDBRANCH   1   6
BRANCH   1  14
ATOM     14  C   UNL     1      45.021   5.044  12.515  0.00  0.00    +0.000 A 
ATOM     15  N   UNL     1      43.718   5.362  12.631  0.00  0.00    +0.000 NA
ATOM     16  C   UNL     1      42.939   5.073  11.581  0.00  0.00    +0.000 A 
ATOM     17  C   UNL     1      43.398   4.471  10.431  0.00  0.00    +0.000 A 
ATOM     18  C   UNL     1      44.742   4.145  10.396  0.00  0.00    +0.000 A 
ATOM     19  N   UNL     1      45.557   4.417  11.439  0.00  0.00    +0.000 NA
BRANCH  18  20
ATOM     20  C   UNL     1      45.386   3.527   9.217  0.00  0.00    +0.000 A 
ATOM     21  C   UNL     1      45.517   2.128   9.123  0.00  0.00    +0.000 A 
ATOM     22  C   UNL     1      46.146   1.524   8.030  0.00  0.00    +0.000 A 
ATOM     23  C   UNL     1      46.655   2.309   7.000  0.00  0.00    +0.000 A 
ATOM     24  C   UNL     1      46.532   3.693   7.060  0.00  0.00    +0.000 A 
ATOM     25  C   UNL     1      45.902   4.294   8.155  0.00  0.00    +0.000 A 
ENDBRANCH  18  20
ENDBRANCH   1  14
TORSDOF 4
ENDMDL
MODEL 3
REMARK VINA RESULT:    -7.106      5.441      7.050
REMARK INTER + INTRA:          -9.452
REMARK INTER:                  -9.004
REMARK INTRA:                  -0.448
REMARK UNBOUND:                -0.684
REMARK  Name = 
REMARK  4 active torsions:
REMARK  status: ('A' for Active; 'I' for Inactive)
REMARK    1  A    between atoms: C_2  and  C_5
REMARK    2  A    between atoms: N_9  and  C_10
REMARK    3  A    between atoms: C_10  and  C_11
REMARK    4  A    between atoms: C_15  and  C_16
REMARK                            x       y       z     vdW  Elec       q    Type
REMARK                         _______ _______ _______ _____ _____    ______ ____
ROOT
ATOM      1  C   UNL     1      47.104   4.107  15.948  0.00  0.00    +0.000 C 
ENDROOT
BRANCH   1   6
ATOM      2  C   UNL     1      44.993   4.409  11.419  0.00  0.00    +0.000 A 
ATOM      3  C   UNL     1      45.197   5.656  11.956  0.00  0.00    +0.000 A 
ATOM      4  N   UNL     1      45.852   5.873  13.115  0.00  0.00    +0.000 NA
ATOM      5  C   UNL     1      46.314   4.799  13.770  0.00  0.00    +0.000 A 
ATOM      6  N   UNL     1      47.126   5.053  14.844  0.00  0.00    +0.000 N 
ATOM      7  N   UNL     1      46.105   3.540  13.362  0.00  0.00    +0.000 NA
ATOM      8  C   UNL     1      45.461   3.372  12.188  0.00  0.00    +0.000 A 
ATOM      9  H   UNL     1      47.056   6.024  15.130  0.00  0.00    +0.000 HD
BRANCH   2  11
ATOM     10  F   UNL     1      43.219   4.940   9.925  0.00  0.00    +0.000 F 
ATOM     11  C   UNL     1      44.348   4.199  10.101  0.00  0.00    +0.000 C 
ATOM     12  F   UNL     1      43.979   2.906   9.895  0.00  0.00    +0.000 F 
ATOM     13  F   UNL     1      45.167   4.522   9.062  0.00  0.00    +0.000 F 
ENDBRANCH   2  11
ENDBRANCH   1   6
BRANCH   1  14
ATOM     14  C   UNL     1      48.204   4.432  16.955  0.00  0.00    +0.000 A 
ATOM     15  N   UNL     1      47.985   5.429  17.834  0.00  0.00    +0.000 NA
ATOM     16  C   UNL     1      48.945   5.642  18.742  0.00  0.00    +0.000 A 
ATOM     17  C   UNL     1      50.115   4.917  18.804  0.00  0.00    +0.000 A 
ATOM     18  C   UNL     1      50.283   3.930  17.850  0.00  0.00    +0.000 A 
ATOM     19  N   UNL     1      49.338   3.691  16.914  0.00  0.00    +0.000 NA
BRANCH  18  20
ATOM     20  C   UNL     1      51.469   3.048  17.811  0.00  0.00    +0.000 A 
ATOM     21  C   UNL     1      51.349   1.703  17.410  0.00  0.00    +0.000 A 
ATOM     22  C   UNL     1      52.453   0.844  17.392  0.00  0.00    +0.000 A 
ATOM     23  C   UNL     1      53.706   1.315  17.770  0.00  0.00    +0.000 A 
ATOM     24  C   UNL     1      53.857   2.642  18.160  0.00  0.00    +0.000 A 
ATOM     25  C   UNL     1      52.752   3.498  18.177  0.00  0.00    +0.000 A 
ENDBRANCH  18  20
ENDBRANCH   1  14
TORSDOF 4
ENDMDL
MODEL 4
REMARK VINA RESULT:    -6.980      3.691      6.926
REMARK INTER + INTRA:          -9.296
REMARK INTER:                  -8.845
REMARK INTRA:                  -0.451
REMARK UNBOUND:                -0.684
REMARK  Name = 
REMARK  4 active torsions:
REMARK  status: ('A' for Active; 'I' for Inactive)
REMARK    1  A    between atoms: C_2  and  C_5
REMARK    2  A    between atoms: N_9  and  C_10
REMARK    3  A    between atoms: C_10  and  C_11
REMARK    4  A    between atoms: C_15  and  C_16
REMARK                            x       y       z     vdW  Elec       q    Type
REMARK                         _______ _______ _______ _____ _____    ______ ____
ROOT
ATOM      1  C   UNL     1      45.842   4.908  13.929  0.00  0.00    +0.000 C 
ENDROOT
BRANCH   1   6
ATOM      2  C   UNL     1      48.819   8.584  12.292  0.00  0.00    +0.000 A 
ATOM      3  C   UNL     1      49.539   7.620  12.952  0.00  0.00    +0.000 A 
ATOM      4  N   UNL     1      49.006   6.464  13.398  0.00  0.00    +0.000 NA
ATOM      5  C   UNL     1      47.698   6.266  13.182  0.00  0.00    +0.000 A 
ATOM      6  N   UNL     1      47.222   5.017  13.481  0.00  0.00    +0.000 N 
ATOM      7  N   UNL     1      46.900   7.177  12.609  0.00  0.00    +0.000 NA
ATOM      8  C   UNL     1      47.479   8.311  12.163  0.00  0.00    +0.000 A 
ATOM      9  H   UNL     1      47.885   4.503  14.053  0.00  0.00    +0.000 HD
BRANCH   2  11
ATOM     10  F   UNL     1      49.711  10.757  12.672  0.00  0.00    +0.000 F 
ATOM     11  C   UNL     1      49.441   9.809  11.733  0.00  0.00    +0.000 C 
ATOM     12  F   UNL     1      48.660  10.420  10.802  0.00  0.00    +0.000 F 
ATOM     13  F   UNL     1      50.627   9.555  11.114  0.00  0.00    +0.000 F 
ENDBRANCH   2  11
ENDBRANCH   1   6
BRANCH   1  14
ATOM     14  C   UNL     1      44.911   4.672  12.744  0.00  0.00    +0.000 A 
ATOM     15  N   UNL     1      43.617   5.021  12.874  0.00  0.00    +0.000 NA
ATOM     16  C   UNL     1      42.845   4.859  11.792  0.00  0.00    +0.000 A 
ATOM     17  C   UNL     1      43.302   4.354  10.595  0.00  0.00    +0.000 A 
ATOM     18  C   UNL     1      44.636   3.988  10.546  0.00  0.00    +0.000 A 
ATOM     19  N   UNL     1      45.442   4.131  11.620  0.00  0.00    +0.000 NA
BRANCH  18  20
ATOM     20  C   UNL     1      45.277   3.464   9.321  0.00  0.00    +0.000 A 
ATOM     21  C   UNL     1      45.496   2.082   9.162  0.00  0.00    +0.000 A 
ATOM     22  C   UNL     1      46.125   1.567   8.024  0.00  0.00    +0.000 A 
ATOM     23  C   UNL     1      46.546   2.426   7.014  0.00  0.00    +0.000 A 
ATOM     24  C   UNL     1      46.335   3.795   7.138  0.00  0.00    +0.000 A 
ATOM     25  C   UNL     1      45.705   4.307   8.277  0.00  0.00    +0.000 A 
ENDBRANCH  18  20
ENDBRANCH   1  14
TORSDOF 4
ENDMDL
MODEL 5
REMARK VINA RESULT:    -6.918      3.909      7.047
REMARK INTER + INTRA:          -9.220
REMARK INTER:                  -8.592
REMARK INTRA:                  -0.628
REMARK UNBOUND:                -0.684
REMARK  Name = 
REMARK  4 active torsions:
REMARK  status: ('A' for Active; 'I' for Inactive)
REMARK    1  A    between atoms: C_2  and  C_5
REMARK    2  A    between atoms: N_9  and  C_10
REMARK    3  A    between atoms: C_10  and  C_11
REMARK    4  A    between atoms: C_15  and  C_16
REMARK                            x       y       z     vdW  Elec       q    Type
REMARK                         _______ _______ _______ _____ _____    ______ ____
ROOT
ATOM      1  C   UNL     1      44.061   6.458  11.522  0.00  0.00    +0.000 C 
ENDROOT
BRANCH   1   6
ATOM      2  C   UNL     1      48.621   7.577  13.258  0.00  0.00    +0.000 A 
ATOM      3  C   UNL     1      48.648   7.347  11.905  0.00  0.00    +0.000 A 
ATOM      4  N   UNL     1      47.543   7.136  11.161  0.00  0.00    +0.000 NA
ATOM      5  C   UNL     1      46.363   7.148  11.796  0.00  0.00    +0.000 A 
ATOM      6  N   UNL     1      45.250   7.111  10.997  0.00  0.00    +0.000 N 
ATOM      7  N   UNL     1      46.240   7.295  13.122  0.00  0.00    +0.000 NA
ATOM      8  C   UNL     1      47.371   7.521  13.824  0.00  0.00    +0.000 A 
ATOM      9  H   UNL     1      45.492   6.833  10.051  0.00  0.00    +0.000 HD
BRANCH   2  11
ATOM     10  F   UNL     1      50.214   6.894  14.889  0.00  0.00    +0.000 F 
ATOM     11  C   UNL     1      49.839   7.893  14.043  0.00  0.00    +0.000 C 
ATOM     12  F   UNL     1      49.694   9.001  14.818  0.00  0.00    +0.000 F 
ATOM     13  F   UNL     1      50.922   8.131  13.252  0.00  0.00    +0.000 F 
ENDBRANCH   2  11
ENDBRANCH   1   6
BRANCH   1  14
ATOM     14  C   UNL     1      44.075   4.970  11.188  0.00  0.00    +0.000 A 
ATOM     15  N   UNL     1      43.328   4.142  11.944  0.00  0.00    +0.000 NA
ATOM     16  C   UNL     1      43.315   2.854  11.581  0.00  0.00    +0.000 A 
ATOM     17  C   UNL     1      44.022   2.353  10.510  0.00  0.00    +0.000 A 
ATOM     18  C   UNL     1      44.791   3.257   9.799  0.00  0.00    +0.000 A 
ATOM     19  N   UNL     1      44.833   4.563  10.140  0.00  0.00    +0.000 NA
BRANCH  18  20
ATOM     20  C   UNL     1      45.577   2.875   8.606  0.00  0.00    +0.000 A 
ATOM     21  C   UNL     1      46.043   1.556   8.447  0.00  0.00    +0.000 A 
ATOM     22  C   UNL     1      46.810   1.180   7.340  0.00  0.00    +0.000 A 
ATOM     23  C   UNL     1      47.124   2.117   6.360  0.00  0.00    +0.000 A 
ATOM     24  C   UNL     1      46.669   3.425   6.485  0.00  0.00    +0.000 A 
ATOM     25  C   UNL     1      45.901   3.798   7.593  0.00  0.00    +0.000 A 
ENDBRANCH  18  20
ENDBRANCH   1  14
TORSDOF 4
ENDMDL
MODEL 6
REMARK VINA RESULT:    -6.874      6.640      9.049
REMARK INTER + INTRA:          -9.165
REMARK INTER:                  -8.662
REMARK INTRA:                  -0.503
REMARK UNBOUND:                -0.684
REMARK  Name = 
REMARK  4 active torsions:
REMARK  status: ('A' for Active; 'I' for Inactive)
REMARK    1  A    between atoms: C_2  and  C_5
REMARK    2  A    between atoms: N_9  and  C_10
REMARK    3  A    between atoms: C_10  and  C_11
REMARK    4  A    between atoms: C_15  and  C_16
REMARK                            x       y       z     vdW  Elec       q    Type
REMARK                         _______ _______ _______ _____ _____    ______ ____
ROOT
ATOM      1  C   UNL     1      47.865   3.391  16.881  0.00  0.00    +0.000 C 
ENDROOT
BRANCH   1   6
ATOM      2  C   UNL     1      52.650   2.327  17.898  0.00  0.00    +0.000 A 
ATOM      3  C   UNL     1      51.941   1.190  17.597  0.00  0.00    +0.000 A 
ATOM      4  N   UNL     1      50.660   1.198  17.175  0.00  0.00    +0.000 NA
ATOM      5  C   UNL     1      50.059   2.389  17.057  0.00  0.00    +0.000 A 
ATOM      6  N   UNL     1      48.826   2.384  16.460  0.00  0.00    +0.000 N 
ATOM      7  N   UNL     1      50.644   3.547  17.393  0.00  0.00    +0.000 NA
ATOM      8  C   UNL     1      51.932   3.493  17.793  0.00  0.00    +0.000 A 
ATOM      9  H   UNL     1      48.448   1.443  16.417  0.00  0.00    +0.000 HD
BRANCH   2  11
ATOM     10  F   UNL     1      54.927   2.370  17.210  0.00  0.00    +0.000 F 
ATOM     11  C   UNL     1      54.083   2.303  18.276  0.00  0.00    +0.000 C 
ATOM     12  F   UNL     1      54.431   1.176  18.955  0.00  0.00    +0.000 F 
ATOM     13  F   UNL     1      54.427   3.344  19.084  0.00  0.00    +0.000 F 
ENDBRANCH   2  11
ENDBRANCH   1   6
BRANCH   1  14
ATOM     14  C   UNL     1      47.595   4.380  15.750  0.00  0.00    +0.000 A 
ATOM     15  N   UNL     1      48.424   5.433  15.616  0.00  0.00    +0.000 NA
ATOM     16  C   UNL     1      48.194   6.242  14.574  0.00  0.00    +0.000 A 
ATOM     17  C   UNL     1      47.171   6.056  13.672  0.00  0.00    +0.000 A 
ATOM     18  C   UNL     1      46.341   4.970  13.892  0.00  0.00    +0.000 A 
ATOM     19  N   UNL     1      46.539   4.136  14.936  0.00  0.00    +0.000 NA
BRANCH  18  20
ATOM     20  C   UNL     1      45.222   4.622  12.990  0.00  0.00    +0.000 A 
ATOM     21  C   UNL     1      44.042   5.391  12.983  0.00  0.00    +0.000 A 
ATOM     22  C   UNL     1      42.961   5.064  12.158  0.00  0.00    +0.000 A 
ATOM     23  C   UNL     1      43.040   3.960  11.314  0.00  0.00    +0.000 A 
ATOM     24  C   UNL     1      44.197   3.188  11.292  0.00  0.00    +0.000 A 
ATOM     25  C   UNL     1      45.276   3.518  12.118  0.00  0.00    +0.000 A 
ENDBRANCH  18  20
ENDBRANCH   1  14
TORSDOF 4
ENDMDL
MODEL 7
REMARK VINA RESULT:    -6.685      5.303      6.710
REMARK INTER + INTRA:          -8.932
REMARK INTER:                  -8.471
REMARK INTRA:                  -0.461
REMARK UNBOUND:                -0.684
REMARK  Name = 
REMARK  4 active torsions:
REMARK  status: ('A' for Active; 'I' for Inactive)
REMARK    1  A    between atoms: C_2  and  C_5
REMARK    2  A    between atoms: N_9  and  C_10
REMARK    3  A    between atoms: C_10  and  C_11
REMARK    4  A    between atoms: C_15  and  C_16
REMARK                            x       y       z     vdW  Elec       q    Type
REMARK                         _______ _______ _______ _____ _____    ______ ____
ROOT
ATOM      1  C   UNL     1      47.277   3.956  16.106  0.00  0.00    +0.000 C 
ENDROOT
BRANCH   1   6
ATOM      2  C   UNL     1      45.034   4.385  11.651  0.00  0.00    +0.000 A 
ATOM      3  C   UNL     1      45.168   5.609  12.260  0.00  0.00    +0.000 A 
ATOM      4  N   UNL     1      45.836   5.799  13.416  0.00  0.00    +0.000 NA
ATOM      5  C   UNL     1      46.387   4.722  13.992  0.00  0.00    +0.000 A 
ATOM      6  N   UNL     1      47.207   4.966  15.062  0.00  0.00    +0.000 N 
ATOM      7  N   UNL     1      46.251   3.479  13.511  0.00  0.00    +0.000 NA
ATOM      8  C   UNL     1      45.590   3.338  12.344  0.00  0.00    +0.000 A 
ATOM      9  H   UNL     1      47.079   5.911  15.409  0.00  0.00    +0.000 HD
BRANCH   2  11
ATOM     10  F   UNL     1      43.970   2.932  10.096  0.00  0.00    +0.000 F 
ATOM     11  C   UNL     1      44.370   4.211  10.337  0.00  0.00    +0.000 C 
ATOM     12  F   UNL     1      45.171   4.553   9.292  0.00  0.00    +0.000 F 
ATOM     13  F   UNL     1      43.250   4.977  10.212  0.00  0.00    +0.000 F 
ENDBRANCH   2  11
ENDBRANCH   1   6
BRANCH   1  14
ATOM     14  C   UNL     1      48.091   4.465  17.291  0.00  0.00    +0.000 A 
ATOM     15  N   UNL     1      49.250   3.842  17.580  0.00  0.00    +0.000 NA
ATOM     16  C   UNL     1      49.968   4.358  18.586  0.00  0.00    +0.000 A 
ATOM     17  C   UNL     1      49.576   5.454  19.322  0.00  0.00    +0.000 A 
ATOM     18  C   UNL     1      48.360   6.023  18.988  0.00  0.00    +0.000 A 
ATOM     19  N   UNL     1      47.606   5.525  17.983  0.00  0.00    +0.000 NA
BRANCH  18  20
ATOM     20  C   UNL     1      47.824   7.223  19.664  0.00  0.00    +0.000 A 
ATOM     21  C   UNL     1      47.484   8.372  18.923  0.00  0.00    +0.000 A 
ATOM     22  C   UNL     1      47.001   9.527  19.546  0.00  0.00    +0.000 A 
ATOM     23  C   UNL     1      46.843   9.558  20.928  0.00  0.00    +0.000 A 
ATOM     24  C   UNL     1      47.161   8.436  21.685  0.00  0.00    +0.000 A 
ATOM     25  C   UNL     1      47.643   7.281  21.060  0.00  0.00    +0.000 A 
ENDBRANCH  18  20
ENDBRANCH   1  14
TORSDOF 4
ENDMDL
MODEL 8
REMARK VINA RESULT:    -6.487      3.036      4.844
REMARK INTER + INTRA:          -8.689
REMARK INTER:                  -8.056
REMARK INTRA:                  -0.633
REMARK UNBOUND:                -0.684
REMARK  Name = 
REMARK  4 active torsions:
REMARK  status: ('A' for Active; 'I' for Inactive)
REMARK    1  A    between atoms: C_2  and  C_5
REMARK    2  A    between atoms: N_9  and  C_10
REMARK    3  A    between atoms: C_10  and  C_11
REMARK    4  A    between atoms: C_15  and  C_16
REMARK                            x       y       z     vdW  Elec       q    Type
REMARK                         _______ _______ _______ _____ _____    ______ ____
ROOT
ATOM      1  C   UNL     1      46.031   7.543  12.783  0.00  0.00    +0.000 C 
ENDROOT
BRANCH   1   6
ATOM      2  C   UNL     1      45.150   3.567   9.872  0.00  0.00    +0.000 A 
ATOM      3  C   UNL     1      45.007   3.251  11.201  0.00  0.00    +0.000 A 
ATOM      4  N   UNL     1      45.076   4.159  12.196  0.00  0.00    +0.000 NA
ATOM      5  C   UNL     1      45.305   5.433  11.851  0.00  0.00    +0.000 A 
ATOM      6  N   UNL     1      45.192   6.358  12.856  0.00  0.00    +0.000 N 
ATOM      7  N   UNL     1      45.526   5.827  10.590  0.00  0.00    +0.000 NA
ATOM      8  C   UNL     1      45.431   4.888   9.625  0.00  0.00    +0.000 A 
ATOM      9  H   UNL     1      45.191   5.907  13.765  0.00  0.00    +0.000 HD
BRANCH   2  11
ATOM     10  F   UNL     1      44.151   1.544   9.116  0.00  0.00    +0.000 F 
ATOM     11  C   UNL     1      44.985   2.569   8.788  0.00  0.00    +0.000 C 
ATOM     12  F   UNL     1      46.160   1.990   8.421  0.00  0.00    +0.000 F 
ATOM     13  F   UNL     1      44.469   3.115   7.651  0.00  0.00    +0.000 F 
ENDBRANCH   2  11
ENDBRANCH   1   6
BRANCH   1  14
ATOM     14  C   UNL     1      47.323   7.335  13.567  0.00  0.00    +0.000 A 
ATOM     15  N   UNL     1      48.362   8.152  13.308  0.00  0.00    +0.000 NA
ATOM     16  C   UNL     1      49.456   7.980  14.061  0.00  0.00    +0.000 A 
ATOM     17  C   UNL     1      49.565   7.025  15.047  0.00  0.00    +0.000 A 
ATOM     18  C   UNL     1      48.468   6.202  15.235  0.00  0.00    +0.000 A 
ATOM     19  N   UNL     1      47.350   6.342  14.490  0.00  0.00    +0.000 NA
BRANCH  18  20
ATOM     20  C   UNL     1      48.423   5.155  16.278  0.00  0.00    +0.000 A 
ATOM     21  C   UNL     1      47.340   4.257  16.346  0.00  0.00    +0.000 A 
ATOM     22  C   UNL     1      47.265   3.277  17.340  0.00  0.00    +0.000 A 
ATOM     23  C   UNL     1      48.277   3.168  18.289  0.00  0.00    +0.000 A 
ATOM     24  C   UNL     1      49.364   4.034  18.241  0.00  0.00    +0.000 A 
ATOM     25  C   UNL     1      49.437   5.014  17.245  0.00  0.00    +0.000 A 
ENDBRANCH  18  20
ENDBRANCH   1  14
TORSDOF 4
ENDMDL
MODEL 9
REMARK VINA RESULT:    -6.407      4.814      6.138
REMARK INTER + INTRA:          -8.589
REMARK INTER:                  -8.117
REMARK INTRA:                  -0.473
REMARK UNBOUND:                -0.684
REMARK  Name = 
REMARK  4 active torsions:
REMARK  status: ('A' for Active; 'I' for Inactive)
REMARK    1  A    between atoms: C_2  and  C_5
REMARK    2  A    between atoms: N_9  and  C_10
REMARK    3  A    between atoms: C_10  and  C_11
REMARK    4  A    between atoms: C_15  and  C_16
REMARK                            x       y       z     vdW  Elec       q    Type
REMARK                         _______ _______ _______ _____ _____    ______ ____
ROOT
ATOM      1  C   UNL     1      47.115   4.193  15.932  0.00  0.00    +0.000 C 
ENDROOT
BRANCH   1   6
ATOM      2  C   UNL     1      45.019   4.481  11.395  0.00  0.00    +0.000 A 
ATOM      3  C   UNL     1      45.293   5.729  11.895  0.00  0.00    +0.000 A 
ATOM      4  N   UNL     1      45.960   5.943  13.048  0.00  0.00    +0.000 NA
ATOM      5  C   UNL     1      46.363   4.864  13.734  0.00  0.00    +0.000 A 
ATOM      6  N   UNL     1      47.188   5.104  14.801  0.00  0.00    +0.000 N 
ATOM      7  N   UNL     1      46.083   3.608  13.362  0.00  0.00    +0.000 NA
ATOM      8  C   UNL     1      45.430   3.441  12.193  0.00  0.00    +0.000 A 
ATOM      9  H   UNL     1      47.172   6.086  15.058  0.00  0.00    +0.000 HD
BRANCH   2  11
ATOM     10  F   UNL     1      45.160   4.568   9.021  0.00  0.00    +0.000 F 
ATOM     11  C   UNL     1      44.362   4.268  10.083  0.00  0.00    +0.000 C 
ATOM     12  F   UNL     1      43.239   5.020   9.928  0.00  0.00    +0.000 F 
ATOM     13  F   UNL     1      43.973   2.976   9.897  0.00  0.00    +0.000 F 
ENDBRANCH   2  11
ENDBRANCH   1   6
BRANCH   1  14
ATOM     14  C   UNL     1      48.129   4.585  17.002  0.00  0.00    +0.000 A 
ATOM     15  N   UNL     1      47.766   4.466  18.294  0.00  0.00    +0.000 NA
ATOM     16  C   UNL     1      48.704   4.758  19.204  0.00  0.00    +0.000 A 
ATOM     17  C   UNL     1      49.977   5.174  18.885  0.00  0.00    +0.000 A 
ATOM     18  C   UNL     1      50.268   5.302  17.538  0.00  0.00    +0.000 A 
ATOM     19  N   UNL     1      49.344   5.022  16.592  0.00  0.00    +0.000 NA
BRANCH  18  20
ATOM     20  C   UNL     1      51.601   5.704  17.041  0.00  0.00    +0.000 A 
ATOM     21  C   UNL     1      52.760   5.030  17.472  0.00  0.00    +0.000 A 
ATOM     22  C   UNL     1      54.032   5.412  17.036  0.00  0.00    +0.000 A 
ATOM     23  C   UNL     1      54.174   6.477  16.151  0.00  0.00    +0.000 A 
ATOM     24  C   UNL     1      53.046   7.155  15.701  0.00  0.00    +0.000 A 
ATOM     25  C   UNL     1      51.775   6.771  16.138  0.00  0.00    +0.000 A 
ENDBRANCH  18  20
ENDBRANCH   1  14
TORSDOF 4
ENDMDL
