MODEL 1
REMARK VINA RESULT:    -8.140      0.000      0.000
REMARK INTER + INTRA:         -11.641
REMARK INTER:                 -10.995
REMARK INTRA:                  -0.646
REMARK UNBOUND:                -0.646
REMARK  Name = 
REMARK  7 active torsions:
REMARK  status: ('A' for Active; 'I' for Inactive)
REMARK    1  A    between atoms: C_1  and  C_2
REMARK    2  A    between atoms: C_2  and  N_3
REMARK    3  A    between atoms: C_2  and  C_16
REMARK    4  A    between atoms: C_4  and  C_6
REMARK    5  A    between atoms: C_19  and  C_20
REMARK    6  A    between atoms: C_20  and  N_21
REMARK    7  A    between atoms: C_22  and  C_24
REMARK                            x       y       z     vdW  Elec       q    Type
REMARK                         _______ _______ _______ _____ _____    ______ ____
ROOT
ATOM      1  C   UNL     1      48.175   9.034  12.684  0.00  0.00    +0.000 C 
ATOM      2  C   UNL     1      47.044   8.322  13.434  0.00  0.00    +0.000 C 
ENDROOT
BRANCH   2   3
ATOM      3  C   UNL     1      46.258   7.365  12.544  0.00  0.00    +0.000 A 
ATOM      4  C   UNL     1      46.823   6.929  11.336  0.00  0.00    +0.000 A 
ATOM      5  C   UNL     1      46.135   6.044  10.497  0.00  0.00    +0.000 A 
ATOM      6  C   UNL     1      44.852   5.584  10.835  0.00  0.00    +0.000 A 
ATOM      7  C   UNL     1      44.284   6.023  12.038  0.00  0.00    +0.000 A 
ATOM      8  C   UNL     1      44.969   6.914  12.870  0.00  0.00    +0.000 A 
BRANCH   6   9
ATOM      9  C   UNL     1      44.097   4.655   9.921  0.00  0.00    +0.000 C 
BRANCH   9  10
ATOM     10  N   UNL     1      44.900   4.163   8.828  0.00  0.00    +0.000 N 
ATOM     11  C   UNL     1      45.297   2.841   8.767  0.00  0.00    +0.000 C 
ATOM     12  O   UNL     1      44.994   2.002   9.608  0.00  0.00    +0.000 OA
ATOM     13  H   UNL     1      45.080   4.744   8.015  0.00  0.00    +0.000 HD
BRANCH  11  14
ATOM     14  C   UNL     1      46.138   2.476   7.590  0.00  0.00    +0.000 A 
ATOM     15  C   UNL     1      46.880   1.299   7.600  0.00  0.00    +0.000 A 
ATOM     16  N   UNL     1      47.674   0.932   6.559  0.00  0.00    +0.000 NA
ATOM     17  C   UNL     1      47.698   1.795   5.517  0.00  0.00    +0.000 A 
ATOM     18  C   UNL     1      46.960   2.970   5.508  0.00  0.00    +0.000 A 
ATOM     19  N   UNL     1      46.156   3.342   6.535  0.00  0.00    +0.000 NA
ENDBRANCH  11  14
ENDBRANCH   9  10
ENDBRANCH   6   9
ENDBRANCH   2   3
BRANCH   2  20
ATOM     20  N   UNL     1      47.544   7.595  14.586  0.00  0.00    +0.000 N 
ATOM     21  C   UNL     1      48.668   6.805  14.570  0.00  0.00    +0.000 C 
ATOM     22  O   UNL     1      49.385   6.691  13.585  0.00  0.00    +0.000 OA
ATOM     23  H   UNL     1      46.933   7.564  15.392  0.00  0.00    +0.000 HD
BRANCH  21  24
ATOM     24  C   UNL     1      49.007   6.178  15.857  0.00  0.00    +0.000 A 
ATOM     25  C   UNL     1      50.063   6.662  16.615  0.00  0.00    +0.000 A 
ATOM     26  S   UNL     1      50.256   5.855  18.108  0.00  0.00    +0.000 S 
ATOM     27  C   UNL     1      48.974   4.790  17.764  0.00  0.00    +0.000 A 
ATOM     28  N   UNL     1      48.619   3.813  18.642  0.00  0.00    +0.000 NA
ATOM     29  C   UNL     1      47.657   3.054  18.233  0.00  0.00    +0.000 A 
ATOM     30  N   UNL     1      47.020   3.183  17.026  0.00  0.00    +0.000 N 
ATOM     31  C   UNL     1      47.323   4.173  16.121  0.00  0.00    +0.000 A 
ATOM     32  O   UNL     1      46.700   4.287  15.070  0.00  0.00    +0.000 OA
ATOM     33  C   UNL     1      48.400   5.053  16.532  0.00  0.00    +0.000 A 
ATOM     34  H   UNL     1      46.269   2.558  16.771  0.00  0.00    +0.000 HD
ENDBRANCH  21  24
ENDBRANCH   2  20
TORSDOF 6
ENDMDL
MODEL 2
REMARK VINA RESULT:    -7.843      2.228      4.161
REMARK INTER + INTRA:         -11.240
REMARK INTER:                  -9.959
REMARK INTRA:                  -1.282
REMARK UNBOUND:                -0.646
REMARK  Name = 
REMARK  7 active torsions:
REMARK  status: ('A' for Active; 'I' for Inactive)
REMARK    1  A    between atoms: C_1  and  C_2
REMARK    2  A    between atoms: C_2  and  N_3
REMARK    3  A    between atoms: C_2  and  C_16
REMARK    4  A    between atoms: C_4  and  C_6
REMARK    5  A    between atoms: C_19  and  C_20
REMARK    6  A    between atoms: C_20  and  N_21
REMARK    7  A    between atoms: C_22  and  C_24
REMARK                            x       y       z     vdW  Elec       q    Type
REMARK                         _______ _______ _______ _____ _____    ______ ____
ROOT
ATOM      1  C   UNL     1      47.007   4.283  16.167  0.00  0.00    +0.000 C 
ATOM      2  C   UNL     1      47.595   4.954  14.920  0.00  0.00    +0.000 C 
ENDROOT
BRANCH   2   3
ATOM      3  C   UNL     1      46.716   4.778  13.687  0.00  0.00    +0.000 A 
ATOM      4  C   UNL     1      46.294   3.491  13.321  0.00  0.00    +0.000 A 
ATOM      5  C   UNL     1      45.479   3.291  12.200  0.00  0.00    +0.000 A 
ATOM      6  C   UNL     1      45.079   4.374  11.401  0.00  0.00    +0.000 A 
ATOM      7  C   UNL     1      45.504   5.658  11.761  0.00  0.00    +0.000 A 
ATOM      8  C   UNL     1      46.326   5.854  12.875  0.00  0.00    +0.000 A 
BRANCH   6   9
ATOM      9  C   UNL     1      44.228   4.159  10.177  0.00  0.00    +0.000 C 
BRANCH   9  10
ATOM     10  N   UNL     1      44.866   3.329   9.184  0.00  0.00    +0.000 N 
ATOM     11  C   UNL     1      45.767   3.856   8.279  0.00  0.00    +0.000 C 
ATOM     12  O   UNL     1      46.097   5.037   8.260  0.00  0.00    +0.000 OA
ATOM     13  H   UNL     1      44.766   2.319   9.212  0.00  0.00    +0.000 HD
BRANCH  11  14
ATOM     14  C   UNL     1      46.336   2.886   7.299  0.00  0.00    +0.000 A 
ATOM     15  C   UNL     1      46.635   1.587   7.694  0.00  0.00    +0.000 A 
ATOM     16  N   UNL     1      47.171   0.673   6.843  0.00  0.00    +0.000 NA
ATOM     17  C   UNL     1      47.399   1.117   5.586  0.00  0.00    +0.000 A 
ATOM     18  C   UNL     1      47.102   2.414   5.191  0.00  0.00    +0.000 A 
ATOM     19  N   UNL     1      46.558   3.332   6.028  0.00  0.00    +0.000 NA
ENDBRANCH  11  14
ENDBRANCH   9  10
ENDBRANCH   6   9
ENDBRANCH   2   3
BRANCH   2  20
ATOM     20  N   UNL     1      47.828   6.369  15.138  0.00  0.00    +0.000 N 
ATOM     21  C   UNL     1      48.995   6.889  15.643  0.00  0.00    +0.000 C 
ATOM     22  O   UNL     1      49.972   6.199  15.903  0.00  0.00    +0.000 OA
ATOM     23  H   UNL     1      47.021   6.973  15.046  0.00  0.00    +0.000 HD
BRANCH  21  24
ATOM     24  C   UNL     1      49.025   8.356  15.760  0.00  0.00    +0.000 A 
ATOM     25  C   UNL     1      49.086   8.958  17.008  0.00  0.00    +0.000 A 
ATOM     26  S   UNL     1      49.187  10.661  16.939  0.00  0.00    +0.000 S 
ATOM     27  C   UNL     1      49.090  10.656  15.240  0.00  0.00    +0.000 A 
ATOM     28  N   UNL     1      49.103  11.818  14.533  0.00  0.00    +0.000 NA
ATOM     29  C   UNL     1      48.982  11.666  13.255  0.00  0.00    +0.000 A 
ATOM     30  N   UNL     1      48.847  10.457  12.623  0.00  0.00    +0.000 N 
ATOM     31  C   UNL     1      48.860   9.256  13.292  0.00  0.00    +0.000 A 
ATOM     32  O   UNL     1      48.785   8.190  12.688  0.00  0.00    +0.000 OA
ATOM     33  C   UNL     1      48.992   9.372  14.732  0.00  0.00    +0.000 A 
ATOM     34  H   UNL     1      48.763  10.408  11.618  0.00  0.00    +0.000 HD
ENDBRANCH  21  24
ENDBRANCH   2  20
TORSDOF 6
ENDMDL
MODEL 3
REMARK VINA RESULT:    -7.812      2.848      3.824
REMARK INTER + INTRA:         -11.198
REMARK INTER:                 -10.005
REMARK INTRA:                  -1.193
REMARK UNBOUND:                -0.646
REMARK  Name = 
REMARK  7 active torsions:
REMARK  status: ('A' for Active; 'I' for Inactive)
REMARK    1  A    between atoms: C_1  and  C_2
REMARK    2  A    between atoms: C_2  and  N_3
REMARK    3  A    between atoms: C_2  and  C_16
REMARK    4  A    between atoms: C_4  and  C_6
REMARK    5  A    between atoms: C_19  and  C_20
REMARK    6  A    between atoms: C_20  and  N_21
REMARK    7  A    between atoms: C_22  and  C_24
REMARK                            x       y       z     vdW  Elec       q    Type
REMARK                         _______ _______ _______ _____ _____    ______ ____
ROOT
ATOM      1  C   UNL     1      47.152   3.938  16.607  0.00  0.00    +0.000 C 
ATOM      2  C   UNL     1      47.683   4.752  15.421  0.00  0.00    +0.000 C 
ENDROOT
BRANCH   2   3
ATOM      3  C   UNL     1      46.815   4.613  14.176  0.00  0.00    +0.000 A 
ATOM      4  C   UNL     1      46.602   3.341  13.624  0.00  0.00    +0.000 A 
ATOM      5  C   UNL     1      45.803   3.174  12.486  0.00  0.00    +0.000 A 
ATOM      6  C   UNL     1      45.209   4.279  11.857  0.00  0.00    +0.000 A 
ATOM      7  C   UNL     1      45.425   5.550  12.402  0.00  0.00    +0.000 A 
ATOM      8  C   UNL     1      46.231   5.716  13.533  0.00  0.00    +0.000 A 
BRANCH   6   9
ATOM      9  C   UNL     1      44.374   4.106  10.615  0.00  0.00    +0.000 C 
BRANCH   9  10
ATOM     10  N   UNL     1      45.012   3.282   9.616  0.00  0.00    +0.000 N 
ATOM     11  C   UNL     1      45.708   3.841   8.562  0.00  0.00    +0.000 C 
ATOM     12  O   UNL     1      45.847   5.050   8.405  0.00  0.00    +0.000 OA
ATOM     13  H   UNL     1      45.074   2.276   9.738  0.00  0.00    +0.000 HD
BRANCH  11  14
ATOM     14  C   UNL     1      46.301   2.872   7.595  0.00  0.00    +0.000 A 
ATOM     15  C   UNL     1      46.594   3.271   6.296  0.00  0.00    +0.000 A 
ATOM     16  N   UNL     1      47.118   2.419   5.375  0.00  0.00    +0.000 NA
ATOM     17  C   UNL     1      47.328   1.155   5.808  0.00  0.00    +0.000 A 
ATOM     18  C   UNL     1      47.033   0.756   7.105  0.00  0.00    +0.000 A 
ATOM     19  N   UNL     1      46.520   1.598   8.035  0.00  0.00    +0.000 NA
ENDBRANCH  11  14
ENDBRANCH   9  10
ENDBRANCH   6   9
ENDBRANCH   2   3
BRANCH   2  20
ATOM     20  N   UNL     1      47.811   6.158  15.756  0.00  0.00    +0.000 N 
ATOM     21  C   UNL     1      49.004   6.778  16.040  0.00  0.00    +0.000 C 
ATOM     22  O   UNL     1      50.081   6.202  15.979  0.00  0.00    +0.000 OA
ATOM     23  H   UNL     1      46.946   6.655  15.929  0.00  0.00    +0.000 HD
BRANCH  21  24
ATOM     24  C   UNL     1      48.905   8.217  16.331  0.00  0.00    +0.000 A 
ATOM     25  C   UNL     1      49.480   9.145  15.475  0.00  0.00    +0.000 A 
ATOM     26  S   UNL     1      49.197  10.765  15.938  0.00  0.00    +0.000 S 
ATOM     27  C   UNL     1      48.349  10.279  17.331  0.00  0.00    +0.000 A 
ATOM     28  N   UNL     1      47.842  11.196  18.199  0.00  0.00    +0.000 NA
ATOM     29  C   UNL     1      47.258  10.686  19.232  0.00  0.00    +0.000 A 
ATOM     30  N   UNL     1      47.139   9.343  19.477  0.00  0.00    +0.000 N 
ATOM     31  C   UNL     1      47.607   8.380  18.615  0.00  0.00    +0.000 A 
ATOM     32  O   UNL     1      47.440   7.185  18.842  0.00  0.00    +0.000 OA
ATOM     33  C   UNL     1      48.274   8.901  17.436  0.00  0.00    +0.000 A 
ATOM     34  H   UNL     1      46.663   9.010  20.303  0.00  0.00    +0.000 HD
ENDBRANCH  21  24
ENDBRANCH   2  20
TORSDOF 6
ENDMDL
MODEL 4
REMARK VINA RESULT:    -7.617      1.878      2.116
REMARK INTER + INTRA:         -10.934
REMARK INTER:                 -10.001
REMARK INTRA:                  -0.934
REMARK UNBOUND:                -0.646
REMARK  Name = 
REMARK  7 active torsions:
REMARK  status: ('A' for Active; 'I' for Inactive)
REMARK    1  A    between atoms: C_1  and  C_2
REMARK    2  A    between atoms: C_2  and  N_3
REMARK    3  A    between atoms: C_2  and  C_16
REMARK    4  A    between atoms: C_4  and  C_6
REMARK    5  A    between atoms: C_19  and  C_20
REMARK    6  A    between atoms: C_20  and  N_21
REMARK    7  A    between atoms: C_22  and  C_24
REMARK                            x       y       z     vdW  Elec       q    Type
REMARK                         _______ _______ _______ _____ _____    ______ ____
ROOT
ATOM      1  C   UNL     1      49.053   9.126  13.428  0.00  0.00    +0.000 C 
ATOM      2  C   UNL     1      47.670   8.922  14.059  0.00  0.00    +0.000 C 
ENDROOT
BRANCH   2   3
ATOM      3  C   UNL     1      46.746   8.077  13.191  0.00  0.00    +0.000 A 
ATOM      4  C   UNL     1      46.938   6.689  13.129  0.00  0.00    +0.000 A 
ATOM      5  C   UNL     1      46.103   5.880  12.349  0.00  0.00    +0.000 A 
ATOM      6  C   UNL     1      45.061   6.440  11.593  0.00  0.00    +0.000 A 
ATOM      7  C   UNL     1      44.872   7.826  11.647  0.00  0.00    +0.000 A 
ATOM      8  C   UNL     1      45.713   8.634  12.420  0.00  0.00    +0.000 A 
BRANCH   6   9
ATOM      9  C   UNL     1      44.181   5.576  10.729  0.00  0.00    +0.000 C 
BRANCH   9  10
ATOM     10  N   UNL     1      44.909   4.886   9.691  0.00  0.00    +0.000 N 
ATOM     11  C   UNL     1      44.731   3.535   9.465  0.00  0.00    +0.000 C 
ATOM     12  O   UNL     1      43.950   2.838  10.103  0.00  0.00    +0.000 OA
ATOM     13  H   UNL     1      45.469   5.404   9.021  0.00  0.00    +0.000 HD
BRANCH  11  14
ATOM     14  C   UNL     1      45.562   2.951   8.373  0.00  0.00    +0.000 A 
ATOM     15  C   UNL     1      45.956   1.618   8.431  0.00  0.00    +0.000 A 
ATOM     16  N   UNL     1      46.728   1.046   7.470  0.00  0.00    +0.000 NA
ATOM     17  C   UNL     1      47.092   1.864   6.456  0.00  0.00    +0.000 A 
ATOM     18  C   UNL     1      46.701   3.195   6.399  0.00  0.00    +0.000 A 
ATOM     19  N   UNL     1      45.923   3.774   7.346  0.00  0.00    +0.000 NA
ENDBRANCH  11  14
ENDBRANCH   9  10
ENDBRANCH   6   9
ENDBRANCH   2   3
BRANCH   2  20
ATOM     20  N   UNL     1      47.770   8.316  15.374  0.00  0.00    +0.000 N 
ATOM     21  C   UNL     1      48.302   8.945  16.474  0.00  0.00    +0.000 C 
ATOM     22  O   UNL     1      48.691  10.105  16.452  0.00  0.00    +0.000 OA
ATOM     23  H   UNL     1      47.568   7.325  15.424  0.00  0.00    +0.000 HD
BRANCH  21  24
ATOM     24  C   UNL     1      48.283   8.153  17.714  0.00  0.00    +0.000 A 
ATOM     25  C   UNL     1      47.920   8.742  18.916  0.00  0.00    +0.000 A 
ATOM     26  S   UNL     1      47.887   7.650  20.228  0.00  0.00    +0.000 S 
ATOM     27  C   UNL     1      48.416   6.364  19.246  0.00  0.00    +0.000 A 
ATOM     28  N   UNL     1      48.617   5.122  19.764  0.00  0.00    +0.000 NA
ATOM     29  C   UNL     1      49.058   4.255  18.914  0.00  0.00    +0.000 A 
ATOM     30  N   UNL     1      49.318   4.519  17.594  0.00  0.00    +0.000 N 
ATOM     31  C   UNL     1      49.101   5.750  17.019  0.00  0.00    +0.000 A 
ATOM     32  O   UNL     1      49.299   5.937  15.823  0.00  0.00    +0.000 OA
ATOM     33  C   UNL     1      48.606   6.761  17.934  0.00  0.00    +0.000 A 
ATOM     34  H   UNL     1      49.655   3.792  16.980  0.00  0.00    +0.000 HD
ENDBRANCH  21  24
ENDBRANCH   2  20
TORSDOF 6
ENDMDL
MODEL 5
REMARK VINA RESULT:    -7.599      2.012      2.377
REMARK INTER + INTRA:         -10.910
REMARK INTER:                 -10.044
REMARK INTRA:                  -0.866
REMARK UNBOUND:                -0.646
REMARK  Name = 
REMARK  7 active torsions:
REMARK  status: ('A' for Active; 'I' for Inactive)
REMARK    1  A    between atoms: C_1  and  C_2
REMARK    2  A    between atoms: C_2  and  N_3
REMARK    3  A    between atoms: C_2  and  C_16
REMARK    4  A    between atoms: C_4  and  C_6
REMARK    5  A    between atoms: C_19  and  C_20
REMARK    6  A    between atoms: C_20  and  N_21
REMARK    7  A    between atoms: C_22  and  C_24
REMARK                            x       y       z     vdW  Elec       q    Type
REMARK                         _______ _______ _______ _____ _____    ______ ____
ROOT
ATOM      1  C   UNL     1      48.931   7.966  13.209  0.00  0.00    +0.000 C 
ATOM      2  C   UNL     1      47.842   7.307  14.063  0.00  0.00    +0.000 C 
ENDROOT
BRANCH   2   3
ATOM      3  C   UNL     1      46.939   6.383  13.256  0.00  0.00    +0.000 A 
ATOM      4  C   UNL     1      46.716   5.072  13.705  0.00  0.00    +0.000 A 
ATOM      5  C   UNL     1      45.886   4.198  12.994  0.00  0.00    +0.000 A 
ATOM      6  C   UNL     1      45.268   4.604  11.801  0.00  0.00    +0.000 A 
ATOM      7  C   UNL     1      45.494   5.909  11.347  0.00  0.00    +0.000 A 
ATOM      8  C   UNL     1      46.331   6.778  12.053  0.00  0.00    +0.000 A 
BRANCH   6   9
ATOM      9  C   UNL     1      44.398   3.656  11.017  0.00  0.00    +0.000 C 
BRANCH   9  10
ATOM     10  N   UNL     1      45.128   2.920  10.013  0.00  0.00    +0.000 N 
ATOM     11  C   UNL     1      45.294   3.419   8.735  0.00  0.00    +0.000 C 
ATOM     12  O   UNL     1      44.857   4.506   8.370  0.00  0.00    +0.000 OA
ATOM     13  H   UNL     1      45.645   2.082  10.260  0.00  0.00    +0.000 HD
BRANCH  11  14
ATOM     14  C   UNL     1      46.053   2.544   7.796  0.00  0.00    +0.000 A 
ATOM     15  C   UNL     1      46.435   3.024   6.548  0.00  0.00    +0.000 A 
ATOM     16  N   UNL     1      47.112   2.259   5.651  0.00  0.00    +0.000 NA
ATOM     17  C   UNL     1      47.383   0.997   6.055  0.00  0.00    +0.000 A 
ATOM     18  C   UNL     1      47.001   0.517   7.300  0.00  0.00    +0.000 A 
ATOM     19  N   UNL     1      46.334   1.273   8.207  0.00  0.00    +0.000 NA
ENDBRANCH  11  14
ENDBRANCH   9  10
ENDBRANCH   6   9
ENDBRANCH   2   3
BRANCH   2  20
ATOM     20  N   UNL     1      48.413   6.563  15.170  0.00  0.00    +0.000 N 
ATOM     21  C   UNL     1      48.907   7.141  16.315  0.00  0.00    +0.000 C 
ATOM     22  O   UNL     1      48.855   8.345  16.526  0.00  0.00    +0.000 OA
ATOM     23  H   UNL     1      48.583   5.578  15.005  0.00  0.00    +0.000 HD
BRANCH  21  24
ATOM     24  C   UNL     1      49.419   6.196  17.320  0.00  0.00    +0.000 A 
ATOM     25  C   UNL     1      50.565   5.457  17.066  0.00  0.00    +0.000 A 
ATOM     26  S   UNL     1      51.045   4.472  18.376  0.00  0.00    +0.000 S 
ATOM     27  C   UNL     1      49.701   4.953  19.304  0.00  0.00    +0.000 A 
ATOM     28  N   UNL     1      49.497   4.453  20.553  0.00  0.00    +0.000 NA
ATOM     29  C   UNL     1      48.417   4.874  21.125  0.00  0.00    +0.000 A 
ATOM     30  N   UNL     1      47.524   5.746  20.560  0.00  0.00    +0.000 N 
ATOM     31  C   UNL     1      47.705   6.301  19.314  0.00  0.00    +0.000 A 
ATOM     32  O   UNL     1      46.909   7.117  18.859  0.00  0.00    +0.000 OA
ATOM     33  C   UNL     1      48.904   5.860  18.628  0.00  0.00    +0.000 A 
ATOM     34  H   UNL     1      46.702   6.041  21.065  0.00  0.00    +0.000 HD
ENDBRANCH  21  24
ENDBRANCH   2  20
TORSDOF 6
ENDMDL
MODEL 6
REMARK VINA RESULT:    -7.538      4.419      7.232
REMARK INTER + INTRA:         -10.829
REMARK INTER:                  -9.799
REMARK INTRA:                  -1.029
REMARK UNBOUND:                -0.646
REMARK  Name = 
REMARK  7 active torsions:
REMARK  status: ('A' for Active; 'I' for Inactive)
REMARK    1  A    between atoms: C_1  and  C_2
REMARK    2  A    between atoms: C_2  and  N_3
REMARK    3  A    between atoms: C_2  and  C_16
REMARK    4  A    between atoms: C_4  and  C_6
REMARK    5  A    between atoms: C_19  and  C_20
REMARK    6  A    between atoms: C_20  and  N_21
REMARK    7  A    between atoms: C_22  and  C_24
REMARK                            x       y       z     vdW  Elec       q    Type
REMARK                         _______ _______ _______ _____ _____    ______ ____
ROOT
ATOM      1  C   UNL     1      45.016   4.037  12.898  0.00  0.00    +0.000 C 
ATOM      2  C   UNL     1      46.146   5.064  13.040  0.00  0.00    +0.000 C 
ENDROOT
BRANCH   2   3
ATOM      3  C   UNL     1      45.714   6.472  12.648  0.00  0.00    +0.000 A 
ATOM      4  C   UNL     1      44.671   6.640  11.724  0.00  0.00    +0.000 A 
ATOM      5  C   UNL     1      44.242   7.918  11.347  0.00  0.00    +0.000 A 
ATOM      6  C   UNL     1      44.857   9.066  11.870  0.00  0.00    +0.000 A 
ATOM      7  C   UNL     1      45.902   8.901  12.788  0.00  0.00    +0.000 A 
ATOM      8  C   UNL     1      46.336   7.623  13.156  0.00  0.00    +0.000 A 
BRANCH   6   9
ATOM      9  C   UNL     1      44.418  10.442  11.444  0.00  0.00    +0.000 C 
BRANCH   9  10
ATOM     10  N   UNL     1      43.189  10.863  12.073  0.00  0.00    +0.000 N 
ATOM     11  C   UNL     1      41.987  10.836  11.392  0.00  0.00    +0.000 C 
ATOM     12  O   UNL     1      41.872  10.447  10.235  0.00  0.00    +0.000 OA
ATOM     13  H   UNL     1      43.160  11.065  13.068  0.00  0.00    +0.000 HD
BRANCH  11  14
ATOM     14  C   UNL     1      40.801  11.316  12.160  0.00  0.00    +0.000 A 
ATOM     15  C   UNL     1      39.526  10.877  11.821  0.00  0.00    +0.000 A 
ATOM     16  N   UNL     1      38.414  11.300  12.479  0.00  0.00    +0.000 NA
ATOM     17  C   UNL     1      38.634  12.181  13.481  0.00  0.00    +0.000 A 
ATOM     18  C   UNL     1      39.907  12.620  13.818  0.00  0.00    +0.000 A 
ATOM     19  N   UNL     1      41.024  12.199  13.177  0.00  0.00    +0.000 NA
ENDBRANCH  11  14
ENDBRANCH   9  10
ENDBRANCH   6   9
ENDBRANCH   2   3
BRANCH   2  20
ATOM     20  N   UNL     1      46.675   5.089  14.390  0.00  0.00    +0.000 N 
ATOM     21  C   UNL     1      47.307   4.027  14.991  0.00  0.00    +0.000 C 
ATOM     22  O   UNL     1      47.530   2.973  14.410  0.00  0.00    +0.000 OA
ATOM     23  H   UNL     1      46.422   5.891  14.953  0.00  0.00    +0.000 HD
BRANCH  21  24
ATOM     24  C   UNL     1      47.786   4.278  16.359  0.00  0.00    +0.000 A 
ATOM     25  C   UNL     1      47.349   3.487  17.411  0.00  0.00    +0.000 A 
ATOM     26  S   UNL     1      48.070   3.883  18.907  0.00  0.00    +0.000 S 
ATOM     27  C   UNL     1      48.945   5.167  18.211  0.00  0.00    +0.000 A 
ATOM     28  N   UNL     1      49.763   5.949  18.967  0.00  0.00    +0.000 NA
ATOM     29  C   UNL     1      50.332   6.909  18.316  0.00  0.00    +0.000 A 
ATOM     30  N   UNL     1      50.153   7.159  16.980  0.00  0.00    +0.000 N 
ATOM     31  C   UNL     1      49.361   6.379  16.171  0.00  0.00    +0.000 A 
ATOM     32  O   UNL     1      49.263   6.604  14.969  0.00  0.00    +0.000 OA
ATOM     33  C   UNL     1      48.698   5.285  16.855  0.00  0.00    +0.000 A 
ATOM     34  H   UNL     1      50.634   7.924  16.531  0.00  0.00    +0.000 HD
ENDBRANCH  21  24
ENDBRANCH   2  20
TORSDOF 6
ENDMDL
MODEL 7
REMARK VINA RESULT:    -7.362      2.488      3.115
REMARK INTER + INTRA:         -10.590
REMARK INTER:                  -9.663
REMARK INTRA:                  -0.927
REMARK UNBOUND:                -0.646
REMARK  Name = 
REMARK  7 active torsions:
REMARK  status: ('A' for Active; 'I' for Inactive)
REMARK    1  A    between atoms: C_1  and  C_2
REMARK    2  A    between atoms: C_2  and  N_3
REMARK    3  A    between atoms: C_2  and  C_16
REMARK    4  A    between atoms: C_4  and  C_6
REMARK    5  A    between atoms: C_19  and  C_20
REMARK    6  A    between atoms: C_20  and  N_21
REMARK    7  A    between atoms: C_22  and  C_24
REMARK                            x       y       z     vdW  Elec       q    Type
REMARK                         _______ _______ _______ _____ _____    ______ ____
ROOT
ATOM      1  C   UNL     1      45.665   9.546  12.369  0.00  0.00    +0.000 C 
ATOM      2  C   UNL     1      46.055   8.357  13.255  0.00  0.00    +0.000 C 
ENDROOT
BRANCH   2   3
ATOM      3  C   UNL     1      45.519   7.031  12.729  0.00  0.00    +0.000 A 
ATOM      4  C   UNL     1      46.206   5.844  13.026  0.00  0.00    +0.000 A 
ATOM      5  C   UNL     1      45.739   4.606  12.567  0.00  0.00    +0.000 A 
ATOM      6  C   UNL     1      44.579   4.522  11.782  0.00  0.00    +0.000 A 
ATOM      7  C   UNL     1      43.894   5.706  11.479  0.00  0.00    +0.000 A 
ATOM      8  C   UNL     1      44.368   6.942  11.930  0.00  0.00    +0.000 A 
BRANCH   6   9
ATOM      9  C   UNL     1      44.090   3.196  11.262  0.00  0.00    +0.000 C 
BRANCH   9  10
ATOM     10  N   UNL     1      44.954   2.633  10.252  0.00  0.00    +0.000 N 
ATOM     11  C   UNL     1      44.953   3.113   8.957  0.00  0.00    +0.000 C 
ATOM     12  O   UNL     1      44.246   4.041   8.578  0.00  0.00    +0.000 OA
ATOM     13  H   UNL     1      45.673   1.961  10.503  0.00  0.00    +0.000 HD
BRANCH  11  14
ATOM     14  C   UNL     1      45.883   2.425   8.015  0.00  0.00    +0.000 A 
ATOM     15  C   UNL     1      46.382   3.102   6.907  0.00  0.00    +0.000 A 
ATOM     16  N   UNL     1      47.217   2.512   6.011  0.00  0.00    +0.000 NA
ATOM     17  C   UNL     1      47.524   1.221   6.269  0.00  0.00    +0.000 A 
ATOM     18  C   UNL     1      47.025   0.544   7.373  0.00  0.00    +0.000 A 
ATOM     19  N   UNL     1      46.199   1.124   8.279  0.00  0.00    +0.000 NA
ENDBRANCH  11  14
ENDBRANCH   9  10
ENDBRANCH   6   9
ENDBRANCH   2   3
BRANCH   2  20
ATOM     20  N   UNL     1      47.494   8.259  13.409  0.00  0.00    +0.000 N 
ATOM     21  C   UNL     1      48.181   8.688  14.519  0.00  0.00    +0.000 C 
ATOM     22  O   UNL     1      47.625   9.144  15.509  0.00  0.00    +0.000 OA
ATOM     23  H   UNL     1      48.014   7.994  12.582  0.00  0.00    +0.000 HD
BRANCH  21  24
ATOM     24  C   UNL     1      49.636   8.470  14.474  0.00  0.00    +0.000 A 
ATOM     25  C   UNL     1      50.414   9.133  13.537  0.00  0.00    +0.000 A 
ATOM     26  S   UNL     1      52.085   8.810  13.687  0.00  0.00    +0.000 S 
ATOM     27  C   UNL     1      51.818   7.725  14.971  0.00  0.00    +0.000 A 
ATOM     28  N   UNL     1      52.853   7.069  15.561  0.00  0.00    +0.000 NA
ATOM     29  C   UNL     1      52.501   6.247  16.494  0.00  0.00    +0.000 A 
ATOM     30  N   UNL     1      51.207   6.022  16.887  0.00  0.00    +0.000 N 
ATOM     31  C   UNL     1      50.132   6.683  16.342  0.00  0.00    +0.000 A 
ATOM     32  O   UNL     1      48.992   6.492  16.752  0.00  0.00    +0.000 OA
ATOM     33  C   UNL     1      50.475   7.619  15.287  0.00  0.00    +0.000 A 
ATOM     34  H   UNL     1      51.001   5.370  17.629  0.00  0.00    +0.000 HD
ENDBRANCH  21  24
ENDBRANCH   2  20
TORSDOF 6
ENDMDL
MODEL 8
REMARK VINA RESULT:    -6.840      3.427      5.002
REMARK INTER + INTRA:          -9.885
REMARK INTER:                  -8.802
REMARK INTRA:                  -1.083
REMARK UNBOUND:                -0.646
REMARK  Name = 
REMARK  7 active torsions:
REMARK  status: ('A' for Active; 'I' for Inactive)
REMARK    1  A    between atoms: C_1  and  C_2
REMARK    2  A    between atoms: C_2  and  N_3
REMARK    3  A    between atoms: C_2  and  C_16
REMARK    4  A    between atoms: C_4  and  C_6
REMARK    5  A    between atoms: C_19  and  C_20
REMARK    6  A    between atoms: C_20  and  N_21
REMARK    7  A    between atoms: C_22  and  C_24
REMARK                            x       y       z     vdW  Elec       q    Type
REMARK                         _______ _______ _______ _____ _____    ______ ____
ROOT
ATOM      1  C   UNL     1      50.435   9.564  17.725  0.00  0.00    +0.000 C 
ATOM      2  C   UNL     1      49.736   8.219  17.493  0.00  0.00    +0.000 C 
ENDROOT
BRANCH   2   3
ATOM      3  C   UNL     1      49.181   8.079  16.081  0.00  0.00    +0.000 A 
ATOM      4  C   UNL     1      49.653   7.047  15.255  0.00  0.00    +0.000 A 
ATOM      5  C   UNL     1      49.160   6.882  13.955  0.00  0.00    +0.000 A 
ATOM      6  C   UNL     1      48.193   7.758  13.436  0.00  0.00    +0.000 A 
ATOM      7  C   UNL     1      47.726   8.793  14.256  0.00  0.00    +0.000 A 
ATOM      8  C   UNL     1      48.226   8.961  15.552  0.00  0.00    +0.000 A 
BRANCH   6   9
ATOM      9  C   UNL     1      47.684   7.602  12.028  0.00  0.00    +0.000 C 
BRANCH   9  10
ATOM     10  N   UNL     1      46.851   6.436  11.855  0.00  0.00    +0.000 N 
ATOM     11  C   UNL     1      45.494   6.477  12.111  0.00  0.00    +0.000 C 
ATOM     12  O   UNL     1      44.905   7.487  12.482  0.00  0.00    +0.000 OA
ATOM     13  H   UNL     1      47.220   5.598  11.416  0.00  0.00    +0.000 HD
BRANCH  11  14
ATOM     14  C   UNL     1      44.761   5.194  11.905  0.00  0.00    +0.000 A 
ATOM     15  C   UNL     1      44.340   4.448  13.000  0.00  0.00    +0.000 A 
ATOM     16  N   UNL     1      43.685   3.264  12.865  0.00  0.00    +0.000 NA
ATOM     17  C   UNL     1      43.478   2.861  11.591  0.00  0.00    +0.000 A 
ATOM     18  C   UNL     1      43.900   3.604  10.497  0.00  0.00    +0.000 A 
ATOM     19  N   UNL     1      44.545   4.791  10.620  0.00  0.00    +0.000 NA
ENDBRANCH  11  14
ENDBRANCH   9  10
ENDBRANCH   6   9
ENDBRANCH   2   3
BRANCH   2  20
ATOM     20  N   UNL     1      50.625   7.104  17.766  0.00  0.00    +0.000 N 
ATOM     21  C   UNL     1      50.281   6.013  18.527  0.00  0.00    +0.000 C 
ATOM     22  O   UNL     1      49.162   5.858  18.998  0.00  0.00    +0.000 OA
ATOM     23  H   UNL     1      51.592   7.230  17.496  0.00  0.00    +0.000 HD
BRANCH  21  24
ATOM     24  C   UNL     1      51.329   4.988  18.655  0.00  0.00    +0.000 A 
ATOM     25  C   UNL     1      52.502   5.268  19.340  0.00  0.00    +0.000 A 
ATOM     26  S   UNL     1      53.564   3.935  19.447  0.00  0.00    +0.000 S 
ATOM     27  C   UNL     1      52.518   2.955  18.529  0.00  0.00    +0.000 A 
ATOM     28  N   UNL     1      52.845   1.669  18.229  0.00  0.00    +0.000 NA
ATOM     29  C   UNL     1      51.978   1.056  17.492  0.00  0.00    +0.000 A 
ATOM     30  N   UNL     1      50.817   1.616  17.027  0.00  0.00    +0.000 N 
ATOM     31  C   UNL     1      50.430   2.900  17.328  0.00  0.00    +0.000 A 
ATOM     32  O   UNL     1      49.359   3.352  16.934  0.00  0.00    +0.000 OA
ATOM     33  C   UNL     1      51.371   3.632  18.154  0.00  0.00    +0.000 A 
ATOM     34  H   UNL     1      50.178   1.078  16.459  0.00  0.00    +0.000 HD
ENDBRANCH  21  24
ENDBRANCH   2  20
TORSDOF 6
ENDMDL
MODEL 9
REMARK VINA RESULT:    -6.839      4.561      6.673
REMARK INTER + INTRA:          -9.884
REMARK INTER:                  -9.153
REMARK INTRA:                  -0.731
REMARK UNBOUND:                -0.646
REMARK  Name = 
REMARK  7 active torsions:
REMARK  status: ('A' for Active; 'I' for Inactive)
REMARK    1  A    between atoms: C_1  and  C_2
REMARK    2  A    between atoms: C_2  and  N_3
REMARK    3  A    between atoms: C_2  and  C_16
REMARK    4  A    between atoms: C_4  and  C_6
REMARK    5  A    between atoms: C_19  and  C_20
REMARK    6  A    between atoms: C_20  and  N_21
REMARK    7  A    between atoms: C_22  and  C_24
REMARK                            x       y       z     vdW  Elec       q    Type
REMARK                         _______ _______ _______ _____ _____    ______ ____
ROOT
ATOM      1  C   UNL     1      44.604   4.661  13.315  0.00  0.00    +0.000 C 
ATOM      2  C   UNL     1      45.766   5.598  12.965  0.00  0.00    +0.000 C 
ENDROOT
BRANCH   2   3
ATOM      3  C   UNL     1      45.297   6.932  12.396  0.00  0.00    +0.000 A 
ATOM      4  C   UNL     1      44.290   6.947  11.419  0.00  0.00    +0.000 A 
ATOM      5  C   UNL     1      43.828   8.153  10.880  0.00  0.00    +0.000 A 
ATOM      6  C   UNL     1      44.372   9.380  11.291  0.00  0.00    +0.000 A 
ATOM      7  C   UNL     1      45.381   9.367  12.262  0.00  0.00    +0.000 A 
ATOM      8  C   UNL     1      45.849   8.160  12.792  0.00  0.00    +0.000 A 
BRANCH   6   9
ATOM      9  C   UNL     1      43.898  10.677  10.691  0.00  0.00    +0.000 C 
BRANCH   9  10
ATOM     10  N   UNL     1      42.494  10.666  10.360  0.00  0.00    +0.000 N 
ATOM     11  C   UNL     1      41.538  11.089  11.264  0.00  0.00    +0.000 C 
ATOM     12  O   UNL     1      41.805  11.509  12.385  0.00  0.00    +0.000 OA
ATOM     13  H   UNL     1      42.187  10.472   9.411  0.00  0.00    +0.000 HD
BRANCH  11  14
ATOM     14  C   UNL     1      40.125  11.006  10.793  0.00  0.00    +0.000 A 
ATOM     15  C   UNL     1      39.249  10.094  11.370  0.00  0.00    +0.000 A 
ATOM     16  N   UNL     1      37.958   9.968  10.963  0.00  0.00    +0.000 NA
ATOM     17  C   UNL     1      37.587  10.789   9.954  0.00  0.00    +0.000 A 
ATOM     18  C   UNL     1      38.462  11.699   9.376  0.00  0.00    +0.000 A 
ATOM     19  N   UNL     1      39.749  11.840   9.780  0.00  0.00    +0.000 NA
ENDBRANCH  11  14
ENDBRANCH   9  10
ENDBRANCH   6   9
ENDBRANCH   2   3
BRANCH   2  20
ATOM     20  N   UNL     1      46.615   5.846  14.116  0.00  0.00    +0.000 N 
ATOM     21  C   UNL     1      47.398   4.890  14.717  0.00  0.00    +0.000 C 
ATOM     22  O   UNL     1      47.491   3.746  14.292  0.00  0.00    +0.000 OA
ATOM     23  H   UNL     1      46.493   6.740  14.575  0.00  0.00    +0.000 HD
BRANCH  21  24
ATOM     24  C   UNL     1      48.197   5.365  15.857  0.00  0.00    +0.000 A 
ATOM     25  C   UNL     1      49.040   6.458  15.715  0.00  0.00    +0.000 A 
ATOM     26  S   UNL     1      49.826   6.905  17.163  0.00  0.00    +0.000 S 
ATOM     27  C   UNL     1      49.114   5.615  18.015  0.00  0.00    +0.000 A 
ATOM     28  N   UNL     1      49.389   5.408  19.332  0.00  0.00    +0.000 NA
ATOM     29  C   UNL     1      48.811   4.371  19.840  0.00  0.00    +0.000 A 
ATOM     30  N   UNL     1      47.987   3.521  19.149  0.00  0.00    +0.000 N 
ATOM     31  C   UNL     1      47.656   3.707  17.828  0.00  0.00    +0.000 A 
ATOM     32  O   UNL     1      46.876   2.953  17.254  0.00  0.00    +0.000 OA
ATOM     33  C   UNL     1      48.281   4.860  17.209  0.00  0.00    +0.000 A 
ATOM     34  H   UNL     1      47.561   2.729  19.609  0.00  0.00    +0.000 HD
ENDBRANCH  21  24
ENDBRANCH   2  20
TORSDOF 6
ENDMDL
