MODEL 1
REMARK VINA RESULT:    -6.589      0.000      0.000
REMARK INTER + INTRA:          -9.950
REMARK INTER:                  -9.285
REMARK INTRA:                  -0.665
REMARK UNBOUND:                -0.665
REMARK  Name = 
REMARK  8 active torsions:
REMARK  status: ('A' for Active; 'I' for Inactive)
REMARK    1  A    between atoms: N_1  and  C_2
REMARK    2  A    between atoms: C_2  and  C_3
REMARK    3  A    between atoms: C_7  and  C_8
REMARK    4  A    between atoms: C_8  and  C_9
REMARK    5  A    between atoms: C_9  and  O_10
REMARK    6  A    between atoms: O_10  and  C_11
REMARK    7  A    between atoms: C_15  and  C_16
REMARK    8  A    between atoms: C_16  and  N_17
REMARK                            x       y       z     vdW  Elec       q    Type
REMARK                         _______ _______ _______ _____ _____    ______ ____
ROOT
ATOM      1  C   UNL     1      43.567   4.595  10.300  0.00  0.00    +0.000 C 
ENDROOT
BRANCH   1   2
ATOM      2  C   UNL     1      44.140   3.197  10.089  0.00  0.00    +0.000 C 
BRANCH   2   7
ATOM      3  C   UNL     1      46.722   1.950   7.587  0.00  0.00    +0.000 A 
ATOM      4  C   UNL     1      47.032   3.152   6.949  0.00  0.00    +0.000 A 
ATOM      5  C   UNL     1      46.396   4.303   7.371  0.00  0.00    +0.000 A 
ATOM      6  N   UNL     1      45.486   4.335   8.365  0.00  0.00    +0.000 NA
ATOM      7  C   UNL     1      45.176   3.168   8.985  0.00  0.00    +0.000 A 
ATOM      8  C   UNL     1      45.779   1.969   8.627  0.00  0.00    +0.000 A 
BRANCH   3   9
ATOM      9  C   UNL     1      47.381   0.664   7.174  0.00  0.00    +0.000 C 
BRANCH   9  10
ATOM     10  N   UNL     1      46.789  -0.478   7.860  0.00  0.00    +0.000 NA
ATOM     11  H   UNL     1      46.228  -1.011   7.200  0.00  0.00    +0.000 HD
ATOM     12  H   UNL     1      46.147  -0.137   8.576  0.00  0.00    +0.000 HD
ENDBRANCH   9  10
ENDBRANCH   3   9
ENDBRANCH   2   7
ENDBRANCH   1   2
BRANCH   1  13
ATOM     13  O   UNL     1      43.560   4.957  11.693  0.00  0.00    +0.000 OA
BRANCH  13  14
ATOM     14  C   UNL     1      44.809   5.416  12.079  0.00  0.00    +0.000 A 
ATOM     15  C   UNL     1      45.361   6.473  11.377  0.00  0.00    +0.000 A 
ATOM     16  C   UNL     1      46.612   6.941  11.777  0.00  0.00    +0.000 A 
ATOM     17  C   UNL     1      47.255   6.346  12.864  0.00  0.00    +0.000 A 
ATOM     18  C   UNL     1      46.626   5.293  13.519  0.00  0.00    +0.000 A 
ATOM     19  N   UNL     1      45.422   4.827  13.126  0.00  0.00    +0.000 NA
BRANCH  18  20
ATOM     20  C   UNL     1      47.231   4.632  14.734  0.00  0.00    +0.000 C 
BRANCH  20  21
ATOM     21  N   UNL     1      47.468   3.197  14.563  0.00  0.00    +0.000 NA
ATOM     22  H   UNL     1      46.872   2.878  13.797  0.00  0.00    +0.000 HD
ATOM     23  H   UNL     1      47.122   2.719  15.394  0.00  0.00    +0.000 HD
ENDBRANCH  20  21
ENDBRANCH  18  20
ENDBRANCH  13  14
ENDBRANCH   1  13
TORSDOF 8
ENDMDL
MODEL 2
REMARK VINA RESULT:    -6.332      3.877      7.807
REMARK INTER + INTRA:          -9.587
REMARK INTER:                  -9.207
REMARK INTRA:                  -0.381
REMARK UNBOUND:                -0.665
REMARK  Name = 
REMARK  8 active torsions:
REMARK  status: ('A' for Active; 'I' for Inactive)
REMARK    1  A    between atoms: N_1  and  C_2
REMARK    2  A    between atoms: C_2  and  C_3
REMARK    3  A    between atoms: C_7  and  C_8
REMARK    4  A    between atoms: C_8  and  C_9
REMARK    5  A    between atoms: C_9  and  O_10
REMARK    6  A    between atoms: O_10  and  C_11
REMARK    7  A    between atoms: C_15  and  C_16
REMARK    8  A    between atoms: C_16  and  N_17
REMARK                            x       y       z     vdW  Elec       q    Type
REMARK                         _______ _______ _______ _____ _____    ______ ____
ROOT
ATOM      1  C   UNL     1      47.367   3.854  15.752  0.00  0.00    +0.000 C 
ENDROOT
BRANCH   1   2
ATOM      2  C   UNL     1      47.908   2.993  16.889  0.00  0.00    +0.000 C 
BRANCH   2   7
ATOM      3  C   UNL     1      51.614   2.493  17.599  0.00  0.00    +0.000 A 
ATOM      4  C   UNL     1      52.027   3.826  17.644  0.00  0.00    +0.000 A 
ATOM      5  C   UNL     1      51.081   4.814  17.452  0.00  0.00    +0.000 A 
ATOM      6  N   UNL     1      49.776   4.568  17.219  0.00  0.00    +0.000 NA
ATOM      7  C   UNL     1      49.370   3.274  17.170  0.00  0.00    +0.000 A 
ATOM      8  C   UNL     1      50.257   2.222  17.362  0.00  0.00    +0.000 A 
BRANCH   3   9
ATOM      9  C   UNL     1      52.595   1.374  17.801  0.00  0.00    +0.000 C 
BRANCH   9  10
ATOM     10  N   UNL     1      51.924   0.152  18.226  0.00  0.00    +0.000 NA
ATOM     11  H   UNL     1      52.020   0.050  19.234  0.00  0.00    +0.000 HD
ATOM     12  H   UNL     1      52.398  -0.648  17.809  0.00  0.00    +0.000 HD
ENDBRANCH   9  10
ENDBRANCH   3   9
ENDBRANCH   2   7
ENDBRANCH   1   2
BRANCH   1  13
ATOM     13  O   UNL     1      47.374   3.142  14.503  0.00  0.00    +0.000 OA
BRANCH  13  14
ATOM     14  C   UNL     1      46.655   3.840  13.545  0.00  0.00    +0.000 A 
ATOM     15  C   UNL     1      46.968   5.171  13.337  0.00  0.00    +0.000 A 
ATOM     16  C   UNL     1      46.251   5.866  12.363  0.00  0.00    +0.000 A 
ATOM     17  C   UNL     1      45.263   5.206  11.632  0.00  0.00    +0.000 A 
ATOM     18  C   UNL     1      45.017   3.864  11.899  0.00  0.00    +0.000 A 
ATOM     19  N   UNL     1      45.697   3.190  12.851  0.00  0.00    +0.000 NA
BRANCH  18  20
ATOM     20  C   UNL     1      44.003   3.065  11.117  0.00  0.00    +0.000 C 
BRANCH  20  21
ATOM     21  N   UNL     1      43.281   2.081  11.927  0.00  0.00    +0.000 NA
ATOM     22  H   UNL     1      43.978   1.534  12.436  0.00  0.00    +0.000 HD
ATOM     23  H   UNL     1      42.828   1.422  11.294  0.00  0.00    +0.000 HD
ENDBRANCH  20  21
ENDBRANCH  18  20
ENDBRANCH  13  14
ENDBRANCH   1  13
TORSDOF 8
ENDMDL
MODEL 3
REMARK VINA RESULT:    -6.197      1.738      2.624
REMARK INTER + INTRA:          -9.398
REMARK INTER:                  -8.822
REMARK INTRA:                  -0.576
REMARK UNBOUND:                -0.665
REMARK  Name = 
REMARK  8 active torsions:
REMARK  status: ('A' for Active; 'I' for Inactive)
REMARK    1  A    between atoms: N_1  and  C_2
REMARK    2  A    between atoms: C_2  and  C_3
REMARK    3  A    between atoms: C_7  and  C_8
REMARK    4  A    between atoms: C_8  and  C_9
REMARK    5  A    between atoms: C_9  and  O_10
REMARK    6  A    between atoms: O_10  and  C_11
REMARK    7  A    between atoms: C_15  and  C_16
REMARK    8  A    between atoms: C_16  and  N_17
REMARK                            x       y       z     vdW  Elec       q    Type
REMARK                         _______ _______ _______ _____ _____    ______ ____
ROOT
ATOM      1  C   UNL     1      44.646   3.030  11.981  0.00  0.00    +0.000 C 
ENDROOT
BRANCH   1   2
ATOM      2  C   UNL     1      43.998   2.749  10.629  0.00  0.00    +0.000 C 
BRANCH   2   7
ATOM      3  C   UNL     1      46.435   2.325   7.737  0.00  0.00    +0.000 A 
ATOM      4  C   UNL     1      46.592   3.661   7.363  0.00  0.00    +0.000 A 
ATOM      5  C   UNL     1      45.907   4.627   8.074  0.00  0.00    +0.000 A 
ATOM      6  N   UNL     1      45.090   4.356   9.111  0.00  0.00    +0.000 NA
ATOM      7  C   UNL     1      44.930   3.059   9.476  0.00  0.00    +0.000 A 
ATOM      8  C   UNL     1      45.591   2.028   8.819  0.00  0.00    +0.000 A 
BRANCH   3   9
ATOM      9  C   UNL     1      47.154   1.228   7.003  0.00  0.00    +0.000 C 
BRANCH   9  10
ATOM     10  N   UNL     1      48.417   1.702   6.450  0.00  0.00    +0.000 NA
ATOM     11  H   UNL     1      48.377   2.713   6.342  0.00  0.00    +0.000 HD
ATOM     12  H   UNL     1      48.533   1.315   5.514  0.00  0.00    +0.000 HD
ENDBRANCH   9  10
ENDBRANCH   3   9
ENDBRANCH   2   7
ENDBRANCH   1   2
BRANCH   1  13
ATOM     13  O   UNL     1      44.028   4.149  12.639  0.00  0.00    +0.000 OA
BRANCH  13  14
ATOM     14  C   UNL     1      44.916   5.209  12.726  0.00  0.00    +0.000 A 
ATOM     15  C   UNL     1      46.157   4.976  13.290  0.00  0.00    +0.000 A 
ATOM     16  C   UNL     1      47.053   6.042  13.363  0.00  0.00    +0.000 A 
ATOM     17  C   UNL     1      46.682   7.290  12.861  0.00  0.00    +0.000 A 
ATOM     18  C   UNL     1      45.418   7.437  12.302  0.00  0.00    +0.000 A 
ATOM     19  N   UNL     1      44.541   6.412  12.243  0.00  0.00    +0.000 NA
BRANCH  18  20
ATOM     20  C   UNL     1      44.960   8.739  11.690  0.00  0.00    +0.000 C 
BRANCH  20  21
ATOM     21  N   UNL     1      44.560   9.743  12.680  0.00  0.00    +0.000 NA
ATOM     22  H   UNL     1      44.000   9.266  13.389  0.00  0.00    +0.000 HD
ATOM     23  H   UNL     1      43.925  10.398  12.226  0.00  0.00    +0.000 HD
ENDBRANCH  20  21
ENDBRANCH  18  20
ENDBRANCH  13  14
ENDBRANCH   1  13
TORSDOF 8
ENDMDL
MODEL 4
REMARK VINA RESULT:    -5.994      1.966      3.401
REMARK INTER + INTRA:          -9.112
REMARK INTER:                  -8.730
REMARK INTRA:                  -0.382
REMARK UNBOUND:                -0.665
REMARK  Name = 
REMARK  8 active torsions:
REMARK  status: ('A' for Active; 'I' for Inactive)
REMARK    1  A    between atoms: N_1  and  C_2
REMARK    2  A    between atoms: C_2  and  C_3
REMARK    3  A    between atoms: C_7  and  C_8
REMARK    4  A    between atoms: C_8  and  C_9
REMARK    5  A    between atoms: C_9  and  O_10
REMARK    6  A    between atoms: O_10  and  C_11
REMARK    7  A    between atoms: C_15  and  C_16
REMARK    8  A    between atoms: C_16  and  N_17
REMARK                            x       y       z     vdW  Elec       q    Type
REMARK                         _______ _______ _______ _____ _____    ______ ____
ROOT
ATOM      1  C   UNL     1      46.635   6.143  12.050  0.00  0.00    +0.000 C 
ENDROOT
BRANCH   1   2
ATOM      2  C   UNL     1      45.339   6.250  11.253  0.00  0.00    +0.000 C 
BRANCH   2   7
ATOM      3  C   UNL     1      45.290   3.603   8.519  0.00  0.00    +0.000 A 
ATOM      4  C   UNL     1      44.492   2.639   9.138  0.00  0.00    +0.000 A 
ATOM      5  C   UNL     1      44.005   2.904  10.403  0.00  0.00    +0.000 A 
ATOM      6  N   UNL     1      44.258   4.041  11.082  0.00  0.00    +0.000 NA
ATOM      7  C   UNL     1      45.037   4.979  10.486  0.00  0.00    +0.000 A 
ATOM      8  C   UNL     1      45.558   4.795   9.212  0.00  0.00    +0.000 A 
BRANCH   3   9
ATOM      9  C   UNL     1      45.849   3.374   7.143  0.00  0.00    +0.000 C 
BRANCH   9  10
ATOM     10  N   UNL     1      46.991   4.243   6.885  0.00  0.00    +0.000 NA
ATOM     11  H   UNL     1      47.850   3.729   7.067  0.00  0.00    +0.000 HD
ATOM     12  H   UNL     1      46.972   5.018   7.547  0.00  0.00    +0.000 HD
ENDBRANCH   9  10
ENDBRANCH   3   9
ENDBRANCH   2   7
ENDBRANCH   1   2
BRANCH   1  13
ATOM     13  O   UNL     1      46.575   5.075  13.012  0.00  0.00    +0.000 OA
BRANCH  13  14
ATOM     14  C   UNL     1      47.326   5.392  14.133  0.00  0.00    +0.000 A 
ATOM     15  C   UNL     1      48.173   6.483  14.064  0.00  0.00    +0.000 A 
ATOM     16  C   UNL     1      48.916   6.807  15.198  0.00  0.00    +0.000 A 
ATOM     17  C   UNL     1      48.776   6.040  16.355  0.00  0.00    +0.000 A 
ATOM     18  C   UNL     1      47.896   4.965  16.343  0.00  0.00    +0.000 A 
ATOM     19  N   UNL     1      47.186   4.637  15.242  0.00  0.00    +0.000 NA
BRANCH  18  20
ATOM     20  C   UNL     1      47.649   4.118  17.569  0.00  0.00    +0.000 C 
BRANCH  20  21
ATOM     21  N   UNL     1      46.560   3.153  17.404  0.00  0.00    +0.000 NA
ATOM     22  H   UNL     1      46.676   2.714  16.489  0.00  0.00    +0.000 HD
ATOM     23  H   UNL     1      45.684   3.672  17.349  0.00  0.00    +0.000 HD
ENDBRANCH  20  21
ENDBRANCH  18  20
ENDBRANCH  13  14
ENDBRANCH   1  13
TORSDOF 8
ENDMDL
MODEL 5
REMARK VINA RESULT:    -5.718      2.746      5.346
REMARK INTER + INTRA:          -8.723
REMARK INTER:                  -8.297
REMARK INTRA:                  -0.426
REMARK UNBOUND:                -0.665
REMARK  Name = 
REMARK  8 active torsions:
REMARK  status: ('A' for Active; 'I' for Inactive)
REMARK    1  A    between atoms: N_1  and  C_2
REMARK    2  A    between atoms: C_2  and  C_3
REMARK    3  A    between atoms: C_7  and  C_8
REMARK    4  A    between atoms: C_8  and  C_9
REMARK    5  A    between atoms: C_9  and  O_10
REMARK    6  A    between atoms: O_10  and  C_11
REMARK    7  A    between atoms: C_15  and  C_16
REMARK    8  A    between atoms: C_16  and  N_17
REMARK                            x       y       z     vdW  Elec       q    Type
REMARK                         _______ _______ _______ _____ _____    ______ ____
ROOT
ATOM      1  C   UNL     1      47.213   4.801  13.919  0.00  0.00    +0.000 C 
ENDROOT
BRANCH   1   2
ATOM      2  C   UNL     1      46.359   5.978  13.458  0.00  0.00    +0.000 C 
BRANCH   2   7
ATOM      3  C   UNL     1      44.191   4.681  10.613  0.00  0.00    +0.000 A 
ATOM      4  C   UNL     1      42.946   4.684  11.245  0.00  0.00    +0.000 A 
ATOM      5  C   UNL     1      42.876   5.115  12.555  0.00  0.00    +0.000 A 
ATOM      6  N   UNL     1      43.942   5.532  13.266  0.00  0.00    +0.000 NA
ATOM      7  C   UNL     1      45.155   5.527  12.657  0.00  0.00    +0.000 A 
ATOM      8  C   UNL     1      45.310   5.118  11.339  0.00  0.00    +0.000 A 
BRANCH   3   9
ATOM      9  C   UNL     1      44.332   4.224   9.188  0.00  0.00    +0.000 C 
BRANCH   9  10
ATOM     10  N   UNL     1      45.443   4.895   8.525  0.00  0.00    +0.000 NA
ATOM     11  H   UNL     1      46.318   4.476   8.832  0.00  0.00    +0.000 HD
ATOM     12  H   UNL     1      45.468   5.869   8.827  0.00  0.00    +0.000 HD
ENDBRANCH   9  10
ENDBRANCH   3   9
ENDBRANCH   2   7
ENDBRANCH   1   2
BRANCH   1  13
ATOM     13  O   UNL     1      46.629   4.140  15.056  0.00  0.00    +0.000 OA
BRANCH  13  14
ATOM     14  C   UNL     1      47.516   4.137  16.121  0.00  0.00    +0.000 A 
ATOM     15  C   UNL     1      47.300   3.235  17.147  0.00  0.00    +0.000 A 
ATOM     16  C   UNL     1      48.202   3.226  18.210  0.00  0.00    +0.000 A 
ATOM     17  C   UNL     1      49.286   4.105  18.202  0.00  0.00    +0.000 A 
ATOM     18  C   UNL     1      49.434   4.974  17.127  0.00  0.00    +0.000 A 
ATOM     19  N   UNL     1      48.555   4.998  16.103  0.00  0.00    +0.000 NA
BRANCH  18  20
ATOM     20  C   UNL     1      50.608   5.918  17.018  0.00  0.00    +0.000 C 
BRANCH  20  21
ATOM     21  N   UNL     1      50.757   6.514  15.688  0.00  0.00    +0.000 NA
ATOM     22  H   UNL     1      50.911   5.751  15.026  0.00  0.00    +0.000 HD
ATOM     23  H   UNL     1      51.620   7.058  15.681  0.00  0.00    +0.000 HD
ENDBRANCH  20  21
ENDBRANCH  18  20
ENDBRANCH  13  14
ENDBRANCH   1  13
TORSDOF 8
ENDMDL
MODEL 6
REMARK VINA RESULT:    -5.650      2.823      5.491
REMARK INTER + INTRA:          -8.627
REMARK INTER:                  -8.239
REMARK INTRA:                  -0.388
REMARK UNBOUND:                -0.665
REMARK  Name = 
REMARK  8 active torsions:
REMARK  status: ('A' for Active; 'I' for Inactive)
REMARK    1  A    between atoms: N_1  and  C_2
REMARK    2  A    between atoms: C_2  and  C_3
REMARK    3  A    between atoms: C_7  and  C_8
REMARK    4  A    between atoms: C_8  and  C_9
REMARK    5  A    between atoms: C_9  and  O_10
REMARK    6  A    between atoms: O_10  and  C_11
REMARK    7  A    between atoms: C_15  and  C_16
REMARK    8  A    between atoms: C_16  and  N_17
REMARK                            x       y       z     vdW  Elec       q    Type
REMARK                         _______ _______ _______ _____ _____    ______ ____
ROOT
ATOM      1  C   UNL     1      47.173   4.355  14.195  0.00  0.00    +0.000 C 
ENDROOT
BRANCH   1   2
ATOM      2  C   UNL     1      46.495   5.603  13.638  0.00  0.00    +0.000 C 
BRANCH   2   7
ATOM      3  C   UNL     1      44.250   4.598  10.734  0.00  0.00    +0.000 A 
ATOM      4  C   UNL     1      43.009   4.625  11.375  0.00  0.00    +0.000 A 
ATOM      5  C   UNL     1      42.967   4.978  12.709  0.00  0.00    +0.000 A 
ATOM      6  N   UNL     1      44.057   5.295  13.436  0.00  0.00    +0.000 NA
ATOM      7  C   UNL     1      45.266   5.265  12.820  0.00  0.00    +0.000 A 
ATOM      8  C   UNL     1      45.394   4.931  11.478  0.00  0.00    +0.000 A 
BRANCH   3   9
ATOM      9  C   UNL     1      44.361   4.222   9.283  0.00  0.00    +0.000 C 
BRANCH   9  10
ATOM     10  N   UNL     1      45.466   4.921   8.640  0.00  0.00    +0.000 NA
ATOM     11  H   UNL     1      45.823   5.636   9.271  0.00  0.00    +0.000 HD
ATOM     12  H   UNL     1      45.113   5.412   7.818  0.00  0.00    +0.000 HD
ENDBRANCH   9  10
ENDBRANCH   3   9
ENDBRANCH   2   7
ENDBRANCH   1   2
BRANCH   1  13
ATOM     13  O   UNL     1      46.558   3.926  15.423  0.00  0.00    +0.000 OA
BRANCH  13  14
ATOM     14  C   UNL     1      47.499   3.869  16.439  0.00  0.00    +0.000 A 
ATOM     15  C   UNL     1      47.219   4.525  17.624  0.00  0.00    +0.000 A 
ATOM     16  C   UNL     1      48.162   4.455  18.649  0.00  0.00    +0.000 A 
ATOM     17  C   UNL     1      49.336   3.726  18.456  0.00  0.00    +0.000 A 
ATOM     18  C   UNL     1      49.535   3.089  17.237  0.00  0.00    +0.000 A 
ATOM     19  N   UNL     1      48.633   3.167  16.236  0.00  0.00    +0.000 NA
BRANCH  18  20
ATOM     20  C   UNL     1      50.754   2.239  16.968  0.00  0.00    +0.000 C 
BRANCH  20  21
ATOM     21  N   UNL     1      50.815   1.027  17.790  0.00  0.00    +0.000 NA
ATOM     22  H   UNL     1      51.459   1.213  18.561  0.00  0.00    +0.000 HD
ATOM     23  H   UNL     1      51.256   0.293  17.237  0.00  0.00    +0.000 HD
ENDBRANCH  20  21
ENDBRANCH  18  20
ENDBRANCH  13  14
ENDBRANCH   1  13
TORSDOF 8
ENDMDL
MODEL 7
REMARK VINA RESULT:    -5.553      4.072      7.771
REMARK INTER + INTRA:          -8.490
REMARK INTER:                  -8.062
REMARK INTRA:                  -0.429
REMARK UNBOUND:                -0.665
REMARK  Name = 
REMARK  8 active torsions:
REMARK  status: ('A' for Active; 'I' for Inactive)
REMARK    1  A    between atoms: N_1  and  C_2
REMARK    2  A    between atoms: C_2  and  C_3
REMARK    3  A    between atoms: C_7  and  C_8
REMARK    4  A    between atoms: C_8  and  C_9
REMARK    5  A    between atoms: C_9  and  O_10
REMARK    6  A    between atoms: O_10  and  C_11
REMARK    7  A    between atoms: C_15  and  C_16
REMARK    8  A    between atoms: C_16  and  N_17
REMARK                            x       y       z     vdW  Elec       q    Type
REMARK                         _______ _______ _______ _____ _____    ______ ____
ROOT
ATOM      1  C   UNL     1      47.161   4.111  16.051  0.00  0.00    +0.000 C 
ENDROOT
BRANCH   1   2
ATOM      2  C   UNL     1      47.683   3.181  17.142  0.00  0.00    +0.000 C 
BRANCH   2   7
ATOM      3  C   UNL     1      51.386   2.391  17.527  0.00  0.00    +0.000 A 
ATOM      4  C   UNL     1      51.882   3.680  17.733  0.00  0.00    +0.000 A 
ATOM      5  C   UNL     1      50.988   4.733  17.745  0.00  0.00    +0.000 A 
ATOM      6  N   UNL     1      49.660   4.592  17.567  0.00  0.00    +0.000 NA
ATOM      7  C   UNL     1      49.173   3.341  17.362  0.00  0.00    +0.000 A 
ATOM      8  C   UNL     1      50.003   2.228  17.345  0.00  0.00    +0.000 A 
BRANCH   3   9
ATOM      9  C   UNL     1      52.307   1.204  17.503  0.00  0.00    +0.000 C 
BRANCH   9  10
ATOM     10  N   UNL     1      51.730   0.072  18.217  0.00  0.00    +0.000 NA
ATOM     11  H   UNL     1      50.716   0.151  18.206  0.00  0.00    +0.000 HD
ATOM     12  H   UNL     1      52.013   0.120  19.196  0.00  0.00    +0.000 HD
ENDBRANCH   9  10
ENDBRANCH   3   9
ENDBRANCH   2   7
ENDBRANCH   1   2
BRANCH   1  13
ATOM     13  O   UNL     1      47.306   3.524  14.746  0.00  0.00    +0.000 OA
BRANCH  13  14
ATOM     14  C   UNL     1      46.818   4.383  13.774  0.00  0.00    +0.000 A 
ATOM     15  C   UNL     1      45.877   3.895  12.885  0.00  0.00    +0.000 A 
ATOM     16  C   UNL     1      45.379   4.767  11.917  0.00  0.00    +0.000 A 
ATOM     17  C   UNL     1      45.828   6.087  11.882  0.00  0.00    +0.000 A 
ATOM     18  C   UNL     1      46.770   6.499  12.818  0.00  0.00    +0.000 A 
ATOM     19  N   UNL     1      47.267   5.655  13.747  0.00  0.00    +0.000 NA
BRANCH  18  20
ATOM     20  C   UNL     1      47.267   7.924  12.880  0.00  0.00    +0.000 C 
BRANCH  20  21
ATOM     21  N   UNL     1      46.699   8.694  13.990  0.00  0.00    +0.000 NA
ATOM     22  H   UNL     1      46.356   9.576  13.605  0.00  0.00    +0.000 HD
ATOM     23  H   UNL     1      47.460   8.948  14.618  0.00  0.00    +0.000 HD
ENDBRANCH  20  21
ENDBRANCH  18  20
ENDBRANCH  13  14
ENDBRANCH   1  13
TORSDOF 8
ENDMDL
MODEL 8
REMARK VINA RESULT:    -5.450      2.552      6.121
REMARK INTER + INTRA:          -8.345
REMARK INTER:                  -7.565
REMARK INTRA:                  -0.780
REMARK UNBOUND:                -0.665
REMARK  Name = 
REMARK  8 active torsions:
REMARK  status: ('A' for Active; 'I' for Inactive)
REMARK    1  A    between atoms: N_1  and  C_2
REMARK    2  A    between atoms: C_2  and  C_3
REMARK    3  A    between atoms: C_7  and  C_8
REMARK    4  A    between atoms: C_8  and  C_9
REMARK    5  A    between atoms: C_9  and  O_10
REMARK    6  A    between atoms: O_10  and  C_11
REMARK    7  A    between atoms: C_15  and  C_16
REMARK    8  A    between atoms: C_16  and  N_17
REMARK                            x       y       z     vdW  Elec       q    Type
REMARK                         _______ _______ _______ _____ _____    ______ ____
ROOT
ATOM      1  C   UNL     1      46.805   4.062  13.618  0.00  0.00    +0.000 C 
ENDROOT
BRANCH   1   2
ATOM      2  C   UNL     1      47.433   5.236  14.363  0.00  0.00    +0.000 C 
BRANCH   2   7
ATOM      3  C   UNL     1      46.966   8.439  12.361  0.00  0.00    +0.000 A 
ATOM      4  C   UNL     1      48.240   8.555  11.801  0.00  0.00    +0.000 A 
ATOM      5  C   UNL     1      49.177   7.584  12.094  0.00  0.00    +0.000 A 
ATOM      6  N   UNL     1      48.936   6.527  12.896  0.00  0.00    +0.000 NA
ATOM      7  C   UNL     1      47.701   6.412  13.446  0.00  0.00    +0.000 A 
ATOM      8  C   UNL     1      46.699   7.341  13.194  0.00  0.00    +0.000 A 
BRANCH   3   9
ATOM      9  C   UNL     1      45.903   9.463  12.079  0.00  0.00    +0.000 C 
BRANCH   9  10
ATOM     10  N   UNL     1      44.630   8.830  11.759  0.00  0.00    +0.000 NA
ATOM     11  H   UNL     1      44.360   8.216  12.524  0.00  0.00    +0.000 HD
ATOM     12  H   UNL     1      44.755   8.234  10.941  0.00  0.00    +0.000 HD
ENDBRANCH   9  10
ENDBRANCH   3   9
ENDBRANCH   2   7
ENDBRANCH   1   2
BRANCH   1  13
ATOM     13  O   UNL     1      45.394   3.965  13.883  0.00  0.00    +0.000 OA
BRANCH  13  14
ATOM     14  C   UNL     1      44.666   4.390  12.783  0.00  0.00    +0.000 A 
ATOM     15  C   UNL     1      43.453   5.014  13.006  0.00  0.00    +0.000 A 
ATOM     16  C   UNL     1      42.729   5.453  11.897  0.00  0.00    +0.000 A 
ATOM     17  C   UNL     1      43.249   5.263  10.616  0.00  0.00    +0.000 A 
ATOM     18  C   UNL     1      44.481   4.634  10.481  0.00  0.00    +0.000 A 
ATOM     19  N   UNL     1      45.178   4.193  11.550  0.00  0.00    +0.000 NA
BRANCH  18  20
ATOM     20  C   UNL     1      45.136   4.438   9.134  0.00  0.00    +0.000 C 
BRANCH  20  21
ATOM     21  N   UNL     1      44.342   3.627   8.209  0.00  0.00    +0.000 NA
ATOM     22  H   UNL     1      44.114   2.753   8.686  0.00  0.00    +0.000 HD
ATOM     23  H   UNL     1      44.941   3.362   7.428  0.00  0.00    +0.000 HD
ENDBRANCH  20  21
ENDBRANCH  18  20
ENDBRANCH  13  14
ENDBRANCH   1  13
TORSDOF 8
ENDMDL
MODEL 9
REMARK VINA RESULT:    -5.439      4.259      8.553
REMARK INTER + INTRA:          -8.330
REMARK INTER:                  -8.008
REMARK INTRA:                  -0.321
REMARK UNBOUND:                -0.665
REMARK  Name = 
REMARK  8 active torsions:
REMARK  status: ('A' for Active; 'I' for Inactive)
REMARK    1  A    between atoms: N_1  and  C_2
REMARK    2  A    between atoms: C_2  and  C_3
REMARK    3  A    between atoms: C_7  and  C_8
REMARK    4  A    between atoms: C_8  and  C_9
REMARK    5  A    between atoms: C_9  and  O_10
REMARK    6  A    between atoms: O_10  and  C_11
REMARK    7  A    between atoms: C_15  and  C_16
REMARK    8  A    between atoms: C_16  and  N_17
REMARK                            x       y       z     vdW  Elec       q    Type
REMARK                         _______ _______ _______ _____ _____    ______ ____
ROOT
ATOM      1  C   UNL     1      47.202   4.212  15.599  0.00  0.00    +0.000 C 
ENDROOT
BRANCH   1   2
ATOM      2  C   UNL     1      47.755   3.124  16.515  0.00  0.00    +0.000 C 
BRANCH   2   7
ATOM      3  C   UNL     1      49.415   4.724  19.542  0.00  0.00    +0.000 A 
ATOM      4  C   UNL     1      50.755   4.592  19.174  0.00  0.00    +0.000 A 
ATOM      5  C   UNL     1      51.047   4.001  17.960  0.00  0.00    +0.000 A 
ATOM      6  N   UNL     1      50.112   3.539  17.107  0.00  0.00    +0.000 NA
ATOM      7  C   UNL     1      48.808   3.660  17.462  0.00  0.00    +0.000 A 
ATOM      8  C   UNL     1      48.429   4.251  18.661  0.00  0.00    +0.000 A 
BRANCH   3   9
ATOM      9  C   UNL     1      49.033   5.358  20.850  0.00  0.00    +0.000 C 
BRANCH   9  10
ATOM     10  N   UNL     1      48.068   4.539  21.573  0.00  0.00    +0.000 NA
ATOM     11  H   UNL     1      47.137   4.709  21.198  0.00  0.00    +0.000 HD
ATOM     12  H   UNL     1      48.045   4.838  22.548  0.00  0.00    +0.000 HD
ENDBRANCH   9  10
ENDBRANCH   3   9
ENDBRANCH   2   7
ENDBRANCH   1   2
BRANCH   1  13
ATOM     13  O   UNL     1      47.080   3.746  14.243  0.00  0.00    +0.000 OA
BRANCH  13  14
ATOM     14  C   UNL     1      46.362   4.656  13.483  0.00  0.00    +0.000 A 
ATOM     15  C   UNL     1      47.051   5.696  12.886  0.00  0.00    +0.000 A 
ATOM     16  C   UNL     1      46.327   6.601  12.112  0.00  0.00    +0.000 A 
ATOM     17  C   UNL     1      44.951   6.427  11.955  0.00  0.00    +0.000 A 
ATOM     18  C   UNL     1      44.337   5.350  12.582  0.00  0.00    +0.000 A 
ATOM     19  N   UNL     1      45.031   4.479  13.346  0.00  0.00    +0.000 NA
BRANCH  18  20
ATOM     20  C   UNL     1      42.864   5.062  12.419  0.00  0.00    +0.000 C 
BRANCH  20  21
ATOM     21  N   UNL     1      42.118   6.158  11.796  0.00  0.00    +0.000 NA
ATOM     22  H   UNL     1      42.613   6.416  10.940  0.00  0.00    +0.000 HD
ATOM     23  H   UNL     1      42.186   6.972  12.406  0.00  0.00    +0.000 HD
ENDBRANCH  20  21
ENDBRANCH  18  20
ENDBRANCH  13  14
ENDBRANCH   1  13
TORSDOF 8
ENDMDL
