MODEL 1
REMARK VINA RESULT:    -8.636      0.000      0.000
REMARK INTER + INTRA:         -13.365
REMARK INTER:                 -12.423
REMARK INTRA:                  -0.942
REMARK UNBOUND:                -0.942
REMARK  Name = 
REMARK  8 active torsions:
REMARK  status: ('A' for Active; 'I' for Inactive)
REMARK    1  A    between atoms: N_1  and  C_2
REMARK    2  A    between atoms: C_2  and  C_3
REMARK    3  A    between atoms: C_3  and  N_4
REMARK    4  A    between atoms: C_3  and  C_17
REMARK    5  A    between atoms: C_5  and  C_7
REMARK    6  A    between atoms: C_20  and  O_21
REMARK    7  A    between atoms: O_21  and  C_22
REMARK    8  A    between atoms: C_22  and  C_23
REMARK                            x       y       z     vdW  Elec       q    Type
REMARK                         _______ _______ _______ _____ _____    ______ ____
ROOT
ATOM      1  C   UNL     1      44.351   4.376  12.809  0.00  0.00    +0.000 C 
ENDROOT
BRANCH   1   2
ATOM      2  C   UNL     1      44.693   4.361  11.325  0.00  0.00    +0.000 A 
ATOM      3  C   UNL     1      45.346   5.449  10.727  0.00  0.00    +0.000 A 
ATOM      4  C   UNL     1      45.711   5.405   9.373  0.00  0.00    +0.000 A 
ATOM      5  C   UNL     1      45.434   4.264   8.614  0.00  0.00    +0.000 A 
ATOM      6  C   UNL     1      44.734   3.214   9.189  0.00  0.00    +0.000 A 
ATOM      7  C   UNL     1      44.354   3.263  10.522  0.00  0.00    +0.000 A 
BRANCH   5   8
ATOM      8  O   UNL     1      45.891   4.236   7.323  0.00  0.00    +0.000 OA
BRANCH   8   9
ATOM      9  C   UNL     1      47.220   3.713   7.205  0.00  0.00    +0.000 C 
BRANCH   9  10
ATOM     10  C   UNL     1      47.206   2.476   6.352  0.00  0.00    +0.000 A 
ATOM     11  C   UNL     1      47.165   1.221   6.966  0.00  0.00    +0.000 A 
ATOM     12  C   UNL     1      47.082   0.065   6.190  0.00  0.00    +0.000 A 
ATOM     13  C   UNL     1      47.030   0.166   4.803  0.00  0.00    +0.000 A 
ATOM     14  C   UNL     1      47.071   1.413   4.183  0.00  0.00    +0.000 A 
ATOM     15  C   UNL     1      47.161   2.572   4.958  0.00  0.00    +0.000 A 
ENDBRANCH   9  10
ENDBRANCH   8   9
ENDBRANCH   5   8
ENDBRANCH   1   2
BRANCH   1  16
ATOM     16  N   UNL     1      45.438   5.025  13.524  0.00  0.00    +0.000 N 
ATOM     17  C   UNL     1      46.519   4.341  14.014  0.00  0.00    +0.000 C 
ATOM     18  O   UNL     1      46.698   3.148  13.800  0.00  0.00    +0.000 OA
ATOM     19  H   UNL     1      45.267   5.976  13.830  0.00  0.00    +0.000 HD
BRANCH  17  20
ATOM     20  C   UNL     1      47.479   5.137  14.789  0.00  0.00    +0.000 A 
ATOM     21  C   UNL     1      48.157   6.194  14.200  0.00  0.00    +0.000 A 
ATOM     22  S   UNL     1      49.275   6.949  15.247  0.00  0.00    +0.000 S 
ATOM     23  C   UNL     1      48.902   5.874  16.513  0.00  0.00    +0.000 A 
ATOM     24  N   UNL     1      49.551   5.937  17.707  0.00  0.00    +0.000 NA
ATOM     25  C   UNL     1      49.175   5.049  18.566  0.00  0.00    +0.000 A 
ATOM     26  N   UNL     1      48.199   4.112  18.346  0.00  0.00    +0.000 N 
ATOM     27  C   UNL     1      47.491   4.036  17.172  0.00  0.00    +0.000 A 
ATOM     28  O   UNL     1      46.564   3.242  17.040  0.00  0.00    +0.000 OA
ATOM     29  C   UNL     1      47.906   4.983  16.157  0.00  0.00    +0.000 A 
ATOM     30  H   UNL     1      47.924   3.468  19.072  0.00  0.00    +0.000 HD
ENDBRANCH  17  20
ENDBRANCH   1  16
BRANCH   1  31
ATOM     31  C   UNL     1      42.972   5.044  13.127  0.00  0.00    +0.000 C 
BRANCH  31  32
ATOM     32  N   UNL     1      42.130   5.262  11.941  0.00  0.00    +0.000 NA
ATOM     33  H   UNL     1      41.757   6.209  11.947  0.00  0.00    +0.000 HD
ATOM     34  H   UNL     1      41.332   4.630  11.975  0.00  0.00    +0.000 HD
ENDBRANCH  31  32
ENDBRANCH   1  31
TORSDOF 8
ENDMDL
MODEL 2
REMARK VINA RESULT:    -8.176      1.448      2.304
REMARK INTER + INTRA:         -12.703
REMARK INTER:                 -11.657
REMARK INTRA:                  -1.046
REMARK UNBOUND:                -0.942
REMARK  Name = 
REMARK  8 active torsions:
REMARK  status: ('A' for Active; 'I' for Inactive)
REMARK    1  A    between atoms: N_1  and  C_2
REMARK    2  A    between atoms: C_2  and  C_3
REMARK    3  A    between atoms: C_3  and  N_4
REMARK    4  A    between atoms: C_3  and  C_17
REMARK    5  A    between atoms: C_5  and  C_7
REMARK    6  A    between atoms: C_20  and  O_21
REMARK    7  A    between atoms: O_21  and  C_22
REMARK    8  A    between atoms: C_22  and  C_23
REMARK                            x       y       z     vdW  Elec       q    Type
REMARK                         _______ _______ _______ _____ _____    ______ ____
ROOT
ATOM      1  C   UNL     1      44.270   4.360  12.830  0.00  0.00    +0.000 C 
ENDROOT
BRANCH   1   2
ATOM      2  C   UNL     1      44.609   4.383  11.346  0.00  0.00    +0.000 A 
ATOM      3  C   UNL     1      45.271   5.481  10.776  0.00  0.00    +0.000 A 
ATOM      4  C   UNL     1      45.633   5.470   9.421  0.00  0.00    +0.000 A 
ATOM      5  C   UNL     1      45.346   4.352   8.632  0.00  0.00    +0.000 A 
ATOM      6  C   UNL     1      44.639   3.292   9.181  0.00  0.00    +0.000 A 
ATOM      7  C   UNL     1      44.261   3.309  10.515  0.00  0.00    +0.000 A 
BRANCH   5   8
ATOM      8  O   UNL     1      45.801   4.355   7.340  0.00  0.00    +0.000 OA
BRANCH   8   9
ATOM      9  C   UNL     1      47.154   3.900   7.217  0.00  0.00    +0.000 C 
BRANCH   9  10
ATOM     10  C   UNL     1      47.189   2.609   6.448  0.00  0.00    +0.000 A 
ATOM     11  C   UNL     1      47.222   1.398   7.144  0.00  0.00    +0.000 A 
ATOM     12  C   UNL     1      47.184   0.190   6.448  0.00  0.00    +0.000 A 
ATOM     13  C   UNL     1      47.104   0.194   5.059  0.00  0.00    +0.000 A 
ATOM     14  C   UNL     1      47.071   1.398   4.357  0.00  0.00    +0.000 A 
ATOM     15  C   UNL     1      47.115   2.609   5.052  0.00  0.00    +0.000 A 
ENDBRANCH   9  10
ENDBRANCH   8   9
ENDBRANCH   5   8
ENDBRANCH   1   2
BRANCH   1  16
ATOM     16  N   UNL     1      45.370   4.967  13.563  0.00  0.00    +0.000 N 
ATOM     17  C   UNL     1      46.485   4.268  13.943  0.00  0.00    +0.000 C 
ATOM     18  O   UNL     1      46.681   3.105  13.608  0.00  0.00    +0.000 OA
ATOM     19  H   UNL     1      45.190   5.880  13.964  0.00  0.00    +0.000 HD
BRANCH  17  20
ATOM     20  C   UNL     1      47.458   5.011  14.754  0.00  0.00    +0.000 A 
ATOM     21  C   UNL     1      47.708   4.644  16.067  0.00  0.00    +0.000 A 
ATOM     22  S   UNL     1      48.820   5.671  16.858  0.00  0.00    +0.000 S 
ATOM     23  C   UNL     1      48.985   6.650  15.475  0.00  0.00    +0.000 A 
ATOM     24  N   UNL     1      49.771   7.760  15.486  0.00  0.00    +0.000 NA
ATOM     25  C   UNL     1      49.788   8.413  14.371  0.00  0.00    +0.000 A 
ATOM     26  N   UNL     1      49.101   8.049  13.241  0.00  0.00    +0.000 N 
ATOM     27  C   UNL     1      48.328   6.916  13.173  0.00  0.00    +0.000 A 
ATOM     28  O   UNL     1      47.798   6.573  12.120  0.00  0.00    +0.000 OA
ATOM     29  C   UNL     1      48.240   6.172  14.413  0.00  0.00    +0.000 A 
ATOM     30  H   UNL     1      49.185   8.582  12.389  0.00  0.00    +0.000 HD
ENDBRANCH  17  20
ENDBRANCH   1  16
BRANCH   1  31
ATOM     31  C   UNL     1      42.904   5.046  13.171  0.00  0.00    +0.000 C 
BRANCH  31  32
ATOM     32  N   UNL     1      42.220   5.620  12.002  0.00  0.00    +0.000 NA
ATOM     33  H   UNL     1      41.363   6.085  12.292  0.00  0.00    +0.000 HD
ATOM     34  H   UNL     1      41.949   4.869  11.370  0.00  0.00    +0.000 HD
ENDBRANCH  31  32
ENDBRANCH   1  31
TORSDOF 8
ENDMDL
MODEL 3
REMARK VINA RESULT:    -8.040      2.166      3.320
REMARK INTER + INTRA:         -12.508
REMARK INTER:                 -11.793
REMARK INTRA:                  -0.714
REMARK UNBOUND:                -0.942
REMARK  Name = 
REMARK  8 active torsions:
REMARK  status: ('A' for Active; 'I' for Inactive)
REMARK    1  A    between atoms: N_1  and  C_2
REMARK    2  A    between atoms: C_2  and  C_3
REMARK    3  A    between atoms: C_3  and  N_4
REMARK    4  A    between atoms: C_3  and  C_17
REMARK    5  A    between atoms: C_5  and  C_7
REMARK    6  A    between atoms: C_20  and  O_21
REMARK    7  A    between atoms: O_21  and  C_22
REMARK    8  A    between atoms: C_22  and  C_23
REMARK                            x       y       z     vdW  Elec       q    Type
REMARK                         _______ _______ _______ _____ _____    ______ ____
ROOT
ATOM      1  C   UNL     1      46.760   8.225  13.057  0.00  0.00    +0.000 C 
ENDROOT
BRANCH   1   2
ATOM      2  C   UNL     1      46.099   7.081  12.302  0.00  0.00    +0.000 A 
ATOM      3  C   UNL     1      46.486   6.766  10.990  0.00  0.00    +0.000 A 
ATOM      4  C   UNL     1      45.914   5.674  10.321  0.00  0.00    +0.000 A 
ATOM      5  C   UNL     1      44.960   4.883  10.968  0.00  0.00    +0.000 A 
ATOM      6  C   UNL     1      44.533   5.230  12.241  0.00  0.00    +0.000 A 
ATOM      7  C   UNL     1      45.082   6.322  12.898  0.00  0.00    +0.000 A 
BRANCH   5   8
ATOM      8  O   UNL     1      44.500   3.776  10.304  0.00  0.00    +0.000 OA
BRANCH   8   9
ATOM      9  C   UNL     1      44.427   3.960   8.885  0.00  0.00    +0.000 C 
BRANCH   9  10
ATOM     10  C   UNL     1      45.427   3.068   8.203  0.00  0.00    +0.000 A 
ATOM     11  C   UNL     1      46.291   3.612   7.250  0.00  0.00    +0.000 A 
ATOM     12  C   UNL     1      47.272   2.816   6.659  0.00  0.00    +0.000 A 
ATOM     13  C   UNL     1      47.393   1.480   7.029  0.00  0.00    +0.000 A 
ATOM     14  C   UNL     1      46.534   0.929   7.978  0.00  0.00    +0.000 A 
ATOM     15  C   UNL     1      45.547   1.723   8.566  0.00  0.00    +0.000 A 
ENDBRANCH   9  10
ENDBRANCH   8   9
ENDBRANCH   5   8
ENDBRANCH   1   2
BRANCH   1  16
ATOM     16  N   UNL     1      47.305   7.701  14.300  0.00  0.00    +0.000 N 
ATOM     17  C   UNL     1      48.369   6.838  14.340  0.00  0.00    +0.000 C 
ATOM     18  O   UNL     1      49.000   6.522  13.338  0.00  0.00    +0.000 OA
ATOM     19  H   UNL     1      46.738   7.836  15.129  0.00  0.00    +0.000 HD
BRANCH  17  20
ATOM     20  C   UNL     1      48.733   6.337  15.671  0.00  0.00    +0.000 A 
ATOM     21  C   UNL     1      49.672   7.004  16.443  0.00  0.00    +0.000 A 
ATOM     22  S   UNL     1      50.005   6.228  17.927  0.00  0.00    +0.000 S 
ATOM     23  C   UNL     1      48.920   4.965  17.574  0.00  0.00    +0.000 A 
ATOM     24  N   UNL     1      48.756   3.916  18.425  0.00  0.00    +0.000 NA
ATOM     25  C   UNL     1      47.912   3.026  18.018  0.00  0.00    +0.000 A 
ATOM     26  N   UNL     1      47.207   3.095  16.845  0.00  0.00    +0.000 N 
ATOM     27  C   UNL     1      47.310   4.153  15.976  0.00  0.00    +0.000 A 
ATOM     28  O   UNL     1      46.599   4.225  14.978  0.00  0.00    +0.000 OA
ATOM     29  C   UNL     1      48.279   5.158  16.364  0.00  0.00    +0.000 A 
ATOM     30  H   UNL     1      46.533   2.385  16.602  0.00  0.00    +0.000 HD
ENDBRANCH  17  20
ENDBRANCH   1  16
BRANCH   1  31
ATOM     31  C   UNL     1      47.850   8.979  12.224  0.00  0.00    +0.000 C 
BRANCH  31  32
ATOM     32  N   UNL     1      47.620  10.429  12.120  0.00  0.00    +0.000 NA
ATOM     33  H   UNL     1      46.626  10.631  12.204  0.00  0.00    +0.000 HD
ATOM     34  H   UNL     1      47.910  10.749  11.198  0.00  0.00    +0.000 HD
ENDBRANCH  31  32
ENDBRANCH   1  31
TORSDOF 8
ENDMDL
MODEL 4
REMARK VINA RESULT:    -7.918      2.548      4.084
REMARK INTER + INTRA:         -12.331
REMARK INTER:                 -10.701
REMARK INTRA:                  -1.631
REMARK UNBOUND:                -0.942
REMARK  Name = 
REMARK  8 active torsions:
REMARK  status: ('A' for Active; 'I' for Inactive)
REMARK    1  A    between atoms: N_1  and  C_2
REMARK    2  A    between atoms: C_2  and  C_3
REMARK    3  A    between atoms: C_3  and  N_4
REMARK    4  A    between atoms: C_3  and  C_17
REMARK    5  A    between atoms: C_5  and  C_7
REMARK    6  A    between atoms: C_20  and  O_21
REMARK    7  A    between atoms: O_21  and  C_22
REMARK    8  A    between atoms: C_22  and  C_23
REMARK                            x       y       z     vdW  Elec       q    Type
REMARK                         _______ _______ _______ _____ _____    ______ ____
ROOT
ATOM      1  C   UNL     1      47.881   4.468  15.341  0.00  0.00    +0.000 C 
ENDROOT
BRANCH   1   2
ATOM      2  C   UNL     1      46.954   4.556  14.137  0.00  0.00    +0.000 A 
ATOM      3  C   UNL     1      46.711   5.784  13.504  0.00  0.00    +0.000 A 
ATOM      4  C   UNL     1      45.903   5.849  12.359  0.00  0.00    +0.000 A 
ATOM      5  C   UNL     1      45.343   4.680  11.834  0.00  0.00    +0.000 A 
ATOM      6  C   UNL     1      45.533   3.475  12.495  0.00  0.00    +0.000 A 
ATOM      7  C   UNL     1      46.315   3.411  13.639  0.00  0.00    +0.000 A 
BRANCH   5   8
ATOM      8  O   UNL     1      44.637   4.786  10.665  0.00  0.00    +0.000 OA
BRANCH   8   9
ATOM      9  C   UNL     1      44.210   3.520  10.147  0.00  0.00    +0.000 C 
BRANCH   9  10
ATOM     10  C   UNL     1      45.108   3.104   9.016  0.00  0.00    +0.000 A 
ATOM     11  C   UNL     1      45.588   4.073   8.130  0.00  0.00    +0.000 A 
ATOM     12  C   UNL     1      46.477   3.715   7.118  0.00  0.00    +0.000 A 
ATOM     13  C   UNL     1      46.893   2.393   6.997  0.00  0.00    +0.000 A 
ATOM     14  C   UNL     1      46.419   1.421   7.876  0.00  0.00    +0.000 A 
ATOM     15  C   UNL     1      45.523   1.775   8.887  0.00  0.00    +0.000 A 
ENDBRANCH   9  10
ENDBRANCH   8   9
ENDBRANCH   5   8
ENDBRANCH   1   2
BRANCH   1  16
ATOM     16  N   UNL     1      47.732   5.683  16.126  0.00  0.00    +0.000 N 
ATOM     17  C   UNL     1      48.790   6.489  16.457  0.00  0.00    +0.000 C 
ATOM     18  O   UNL     1      49.924   6.297  16.032  0.00  0.00    +0.000 OA
ATOM     19  H   UNL     1      46.844   5.805  16.597  0.00  0.00    +0.000 HD
BRANCH  17  20
ATOM     20  C   UNL     1      48.476   7.627  17.329  0.00  0.00    +0.000 A 
ATOM     21  C   UNL     1      48.598   8.927  16.863  0.00  0.00    +0.000 A 
ATOM     22  S   UNL     1      48.250  10.107  18.047  0.00  0.00    +0.000 S 
ATOM     23  C   UNL     1      47.947   8.916  19.225  0.00  0.00    +0.000 A 
ATOM     24  N   UNL     1      47.638   9.254  20.506  0.00  0.00    +0.000 NA
ATOM     25  C   UNL     1      47.449   8.245  21.293  0.00  0.00    +0.000 A 
ATOM     26  N   UNL     1      47.528   6.931  20.912  0.00  0.00    +0.000 N 
ATOM     27  C   UNL     1      47.798   6.545  19.622  0.00  0.00    +0.000 A 
ATOM     28  O   UNL     1      47.775   5.361  19.296  0.00  0.00    +0.000 OA
ATOM     29  C   UNL     1      48.063   7.639  18.709  0.00  0.00    +0.000 A 
ATOM     30  H   UNL     1      47.333   6.188  21.566  0.00  0.00    +0.000 HD
ENDBRANCH  17  20
ENDBRANCH   1  16
BRANCH   1  31
ATOM     31  C   UNL     1      47.655   3.187  16.214  0.00  0.00    +0.000 C 
BRANCH  31  32
ATOM     32  N   UNL     1      46.715   3.387  17.327  0.00  0.00    +0.000 NA
ATOM     33  H   UNL     1      47.059   2.918  18.162  0.00  0.00    +0.000 HD
ATOM     34  H   UNL     1      45.822   2.957  17.093  0.00  0.00    +0.000 HD
ENDBRANCH  31  32
ENDBRANCH   1  31
TORSDOF 8
ENDMDL
MODEL 5
REMARK VINA RESULT:    -7.460      3.092      5.033
REMARK INTER + INTRA:         -11.673
REMARK INTER:                 -10.510
REMARK INTRA:                  -1.163
REMARK UNBOUND:                -0.942
REMARK  Name = 
REMARK  8 active torsions:
REMARK  status: ('A' for Active; 'I' for Inactive)
REMARK    1  A    between atoms: N_1  and  C_2
REMARK    2  A    between atoms: C_2  and  C_3
REMARK    3  A    between atoms: C_3  and  N_4
REMARK    4  A    between atoms: C_3  and  C_17
REMARK    5  A    between atoms: C_5  and  C_7
REMARK    6  A    between atoms: C_20  and  O_21
REMARK    7  A    between atoms: O_21  and  C_22
REMARK    8  A    between atoms: C_22  and  C_23
REMARK                            x       y       z     vdW  Elec       q    Type
REMARK                         _______ _______ _______ _____ _____    ______ ____
ROOT
ATOM      1  C   UNL     1      47.997   4.691  15.711  0.00  0.00    +0.000 C 
ENDROOT
BRANCH   1   2
ATOM      2  C   UNL     1      47.215   4.965  14.435  0.00  0.00    +0.000 A 
ATOM      3  C   UNL     1      46.189   4.101  14.020  0.00  0.00    +0.000 A 
ATOM      4  C   UNL     1      45.433   4.391  12.875  0.00  0.00    +0.000 A 
ATOM      5  C   UNL     1      45.692   5.556  12.145  0.00  0.00    +0.000 A 
ATOM      6  C   UNL     1      46.745   6.377  12.520  0.00  0.00    +0.000 A 
ATOM      7  C   UNL     1      47.508   6.082  13.640  0.00  0.00    +0.000 A 
BRANCH   5   8
ATOM      8  O   UNL     1      44.866   5.837  11.089  0.00  0.00    +0.000 OA
BRANCH   8   9
ATOM      9  C   UNL     1      44.052   4.726  10.697  0.00  0.00    +0.000 C 
BRANCH   9  10
ATOM     10  C   UNL     1      44.755   3.929   9.633  0.00  0.00    +0.000 A 
ATOM     11  C   UNL     1      45.499   4.597   8.657  0.00  0.00    +0.000 A 
ATOM     12  C   UNL     1      46.215   3.872   7.705  0.00  0.00    +0.000 A 
ATOM     13  C   UNL     1      46.194   2.481   7.736  0.00  0.00    +0.000 A 
ATOM     14  C   UNL     1      45.454   1.807   8.706  0.00  0.00    +0.000 A 
ATOM     15  C   UNL     1      44.731   2.532   9.656  0.00  0.00    +0.000 A 
ENDBRANCH   9  10
ENDBRANCH   8   9
ENDBRANCH   5   8
ENDBRANCH   1   2
BRANCH   1  16
ATOM     16  N   UNL     1      47.792   5.804  16.624  0.00  0.00    +0.000 N 
ATOM     17  C   UNL     1      48.731   6.195  17.543  0.00  0.00    +0.000 C 
ATOM     18  O   UNL     1      49.849   5.697  17.597  0.00  0.00    +0.000 OA
ATOM     19  H   UNL     1      46.844   6.154  16.697  0.00  0.00    +0.000 HD
BRANCH  17  20
ATOM     20  C   UNL     1      48.326   7.279  18.446  0.00  0.00    +0.000 A 
ATOM     21  C   UNL     1      48.036   7.018  19.777  0.00  0.00    +0.000 A 
ATOM     22  S   UNL     1      47.522   8.398  20.642  0.00  0.00    +0.000 S 
ATOM     23  C   UNL     1      47.651   9.382  19.259  0.00  0.00    +0.000 A 
ATOM     24  N   UNL     1      47.306  10.698  19.295  0.00  0.00    +0.000 NA
ATOM     25  C   UNL     1      47.440  11.315  18.168  0.00  0.00    +0.000 A 
ATOM     26  N   UNL     1      47.902  10.741  17.012  0.00  0.00    +0.000 N 
ATOM     27  C   UNL     1      48.298   9.428  16.939  0.00  0.00    +0.000 A 
ATOM     28  O   UNL     1      48.788   8.970  15.912  0.00  0.00    +0.000 OA
ATOM     29  C   UNL     1      48.124   8.679  18.167  0.00  0.00    +0.000 A 
ATOM     30  H   UNL     1      48.019  11.287  16.172  0.00  0.00    +0.000 HD
ENDBRANCH  17  20
ENDBRANCH   1  16
BRANCH   1  31
ATOM     31  C   UNL     1      47.640   3.322  16.383  0.00  0.00    +0.000 C 
BRANCH  31  32
ATOM     32  N   UNL     1      46.610   3.426  17.428  0.00  0.00    +0.000 NA
ATOM     33  H   UNL     1      45.708   3.639  17.009  0.00  0.00    +0.000 HD
ATOM     34  H   UNL     1      46.838   4.201  18.048  0.00  0.00    +0.000 HD
ENDBRANCH  31  32
ENDBRANCH   1  31
TORSDOF 8
ENDMDL
MODEL 6
REMARK VINA RESULT:    -7.442      2.678      4.382
REMARK INTER + INTRA:         -11.647
REMARK INTER:                 -10.339
REMARK INTRA:                  -1.308
REMARK UNBOUND:                -0.942
REMARK  Name = 
REMARK  8 active torsions:
REMARK  status: ('A' for Active; 'I' for Inactive)
REMARK    1  A    between atoms: N_1  and  C_2
REMARK    2  A    between atoms: C_2  and  C_3
REMARK    3  A    between atoms: C_3  and  N_4
REMARK    4  A    between atoms: C_3  and  C_17
REMARK    5  A    between atoms: C_5  and  C_7
REMARK    6  A    between atoms: C_20  and  O_21
REMARK    7  A    between atoms: O_21  and  C_22
REMARK    8  A    between atoms: C_22  and  C_23
REMARK                            x       y       z     vdW  Elec       q    Type
REMARK                         _______ _______ _______ _____ _____    ______ ____
ROOT
ATOM      1  C   UNL     1      47.941   7.998  13.657  0.00  0.00    +0.000 C 
ENDROOT
BRANCH   1   2
ATOM      2  C   UNL     1      47.082   6.942  12.975  0.00  0.00    +0.000 A 
ATOM      3  C   UNL     1      47.007   5.637  13.484  0.00  0.00    +0.000 A 
ATOM      4  C   UNL     1      46.167   4.686  12.886  0.00  0.00    +0.000 A 
ATOM      5  C   UNL     1      45.388   5.041  11.781  0.00  0.00    +0.000 A 
ATOM      6  C   UNL     1      45.508   6.313  11.241  0.00  0.00    +0.000 A 
ATOM      7  C   UNL     1      46.352   7.250  11.818  0.00  0.00    +0.000 A 
BRANCH   5   8
ATOM      8  O   UNL     1      44.519   4.102  11.291  0.00  0.00    +0.000 OA
BRANCH   8   9
ATOM      9  C   UNL     1      44.129   4.347   9.934  0.00  0.00    +0.000 C 
BRANCH   9  10
ATOM     10  C   UNL     1      45.018   3.573   9.002  0.00  0.00    +0.000 A 
ATOM     11  C   UNL     1      45.773   4.260   8.047  0.00  0.00    +0.000 A 
ATOM     12  C   UNL     1      46.655   3.565   7.220  0.00  0.00    +0.000 A 
ATOM     13  C   UNL     1      46.789   2.186   7.355  0.00  0.00    +0.000 A 
ATOM     14  C   UNL     1      46.039   1.494   8.304  0.00  0.00    +0.000 A 
ATOM     15  C   UNL     1      45.150   2.187   9.129  0.00  0.00    +0.000 A 
ENDBRANCH   9  10
ENDBRANCH   8   9
ENDBRANCH   5   8
ENDBRANCH   1   2
BRANCH   1  16
ATOM     16  N   UNL     1      47.895   7.771  15.093  0.00  0.00    +0.000 N 
ATOM     17  C   UNL     1      48.432   8.645  16.001  0.00  0.00    +0.000 C 
ATOM     18  O   UNL     1      48.902   9.729  15.676  0.00  0.00    +0.000 OA
ATOM     19  H   UNL     1      47.633   6.838  15.390  0.00  0.00    +0.000 HD
BRANCH  17  20
ATOM     20  C   UNL     1      48.378   8.219  17.405  0.00  0.00    +0.000 A 
ATOM     21  C   UNL     1      47.866   9.063  18.380  0.00  0.00    +0.000 A 
ATOM     22  S   UNL     1      47.952   8.409  19.955  0.00  0.00    +0.000 S 
ATOM     23  C   UNL     1      48.694   6.987  19.385  0.00  0.00    +0.000 A 
ATOM     24  N   UNL     1      49.085   6.004  20.241  0.00  0.00    +0.000 NA
ATOM     25  C   UNL     1      49.648   4.992  19.668  0.00  0.00    +0.000 A 
ATOM     26  N   UNL     1      49.842   4.866  18.317  0.00  0.00    +0.000 N 
ATOM     27  C   UNL     1      49.427   5.813  17.414  0.00  0.00    +0.000 A 
ATOM     28  O   UNL     1      49.538   5.628  16.205  0.00  0.00    +0.000 OA
ATOM     29  C   UNL     1      48.830   6.991  18.009  0.00  0.00    +0.000 A 
ATOM     30  H   UNL     1      50.255   4.032  17.927  0.00  0.00    +0.000 HD
ENDBRANCH  17  20
ENDBRANCH   1  16
BRANCH   1  31
ATOM     31  C   UNL     1      49.414   8.044  13.128  0.00  0.00    +0.000 C 
BRANCH  31  32
ATOM     32  N   UNL     1      50.351   7.224  13.911  0.00  0.00    +0.000 NA
ATOM     33  H   UNL     1      49.867   6.795  14.697  0.00  0.00    +0.000 HD
ATOM     34  H   UNL     1      51.075   7.825  14.303  0.00  0.00    +0.000 HD
ENDBRANCH  31  32
ENDBRANCH   1  31
TORSDOF 8
ENDMDL
MODEL 7
REMARK VINA RESULT:    -7.337      2.805      3.728
REMARK INTER + INTRA:         -11.496
REMARK INTER:                 -10.404
REMARK INTRA:                  -1.092
REMARK UNBOUND:                -0.942
REMARK  Name = 
REMARK  8 active torsions:
REMARK  status: ('A' for Active; 'I' for Inactive)
REMARK    1  A    between atoms: N_1  and  C_2
REMARK    2  A    between atoms: C_2  and  C_3
REMARK    3  A    between atoms: C_3  and  N_4
REMARK    4  A    between atoms: C_3  and  C_17
REMARK    5  A    between atoms: C_5  and  C_7
REMARK    6  A    between atoms: C_20  and  O_21
REMARK    7  A    between atoms: O_21  and  C_22
REMARK    8  A    between atoms: C_22  and  C_23
REMARK                            x       y       z     vdW  Elec       q    Type
REMARK                         _______ _______ _______ _____ _____    ______ ____
ROOT
ATOM      1  C   UNL     1      46.461   7.800  13.235  0.00  0.00    +0.000 C 
ENDROOT
BRANCH   1   2
ATOM      2  C   UNL     1      46.062   6.537  12.484  0.00  0.00    +0.000 A 
ATOM      3  C   UNL     1      45.844   5.331  13.168  0.00  0.00    +0.000 A 
ATOM      4  C   UNL     1      45.419   4.187  12.477  0.00  0.00    +0.000 A 
ATOM      5  C   UNL     1      45.198   4.247  11.098  0.00  0.00    +0.000 A 
ATOM      6  C   UNL     1      45.471   5.422  10.413  0.00  0.00    +0.000 A 
ATOM      7  C   UNL     1      45.911   6.550  11.090  0.00  0.00    +0.000 A 
BRANCH   5   8
ATOM      8  O   UNL     1      44.698   3.128  10.488  0.00  0.00    +0.000 OA
BRANCH   8   9
ATOM      9  C   UNL     1      44.405   3.325   9.099  0.00  0.00    +0.000 C 
BRANCH   9  10
ATOM     10  C   UNL     1      45.477   2.689   8.258  0.00  0.00    +0.000 A 
ATOM     11  C   UNL     1      46.194   3.477   7.353  0.00  0.00    +0.000 A 
ATOM     12  C   UNL     1      47.238   2.919   6.616  0.00  0.00    +0.000 A 
ATOM     13  C   UNL     1      47.570   1.579   6.790  0.00  0.00    +0.000 A 
ATOM     14  C   UNL     1      46.859   0.787   7.690  0.00  0.00    +0.000 A 
ATOM     15  C   UNL     1      45.809   1.342   8.425  0.00  0.00    +0.000 A 
ENDBRANCH   9  10
ENDBRANCH   8   9
ENDBRANCH   5   8
ENDBRANCH   1   2
BRANCH   1  16
ATOM     16  N   UNL     1      47.876   7.714  13.560  0.00  0.00    +0.000 N 
ATOM     17  C   UNL     1      48.432   8.350  14.639  0.00  0.00    +0.000 C 
ATOM     18  O   UNL     1      47.760   8.957  15.464  0.00  0.00    +0.000 OA
ATOM     19  H   UNL     1      48.478   7.332  12.840  0.00  0.00    +0.000 HD
BRANCH  17  20
ATOM     20  C   UNL     1      49.889   8.231  14.769  0.00  0.00    +0.000 A 
ATOM     21  C   UNL     1      50.733   9.014  13.996  0.00  0.00    +0.000 A 
ATOM     22  S   UNL     1      52.388   8.680  14.247  0.00  0.00    +0.000 S 
ATOM     23  C   UNL     1      52.028   7.462  15.381  0.00  0.00    +0.000 A 
ATOM     24  N   UNL     1      53.012   6.725  15.962  0.00  0.00    +0.000 NA
ATOM     25  C   UNL     1      52.589   5.827  16.790  0.00  0.00    +0.000 A 
ATOM     26  N   UNL     1      51.272   5.610  17.101  0.00  0.00    +0.000 N 
ATOM     27  C   UNL     1      50.249   6.356  16.570  0.00  0.00    +0.000 A 
ATOM     28  O   UNL     1      49.088   6.192  16.936  0.00  0.00    +0.000 OA
ATOM     29  C   UNL     1      50.667   7.347  15.599  0.00  0.00    +0.000 A 
ATOM     30  H   UNL     1      51.008   4.917  17.785  0.00  0.00    +0.000 HD
ENDBRANCH  17  20
ENDBRANCH   1  16
BRANCH   1  31
ATOM     31  C   UNL     1      46.127   9.120  12.463  0.00  0.00    +0.000 C 
BRANCH  31  32
ATOM     32  N   UNL     1      44.800   9.671  12.777  0.00  0.00    +0.000 NA
ATOM     33  H   UNL     1      44.239   8.975  13.264  0.00  0.00    +0.000 HD
ATOM     34  H   UNL     1      44.313   9.888  11.909  0.00  0.00    +0.000 HD
ENDBRANCH  31  32
ENDBRANCH   1  31
TORSDOF 8
ENDMDL
MODEL 8
REMARK VINA RESULT:    -7.144      4.253      5.549
REMARK INTER + INTRA:         -11.218
REMARK INTER:                  -9.840
REMARK INTRA:                  -1.378
REMARK UNBOUND:                -0.942
REMARK  Name = 
REMARK  8 active torsions:
REMARK  status: ('A' for Active; 'I' for Inactive)
REMARK    1  A    between atoms: N_1  and  C_2
REMARK    2  A    between atoms: C_2  and  C_3
REMARK    3  A    between atoms: C_3  and  N_4
REMARK    4  A    between atoms: C_3  and  C_17
REMARK    5  A    between atoms: C_5  and  C_7
REMARK    6  A    between atoms: C_20  and  O_21
REMARK    7  A    between atoms: O_21  and  C_22
REMARK    8  A    between atoms: C_22  and  C_23
REMARK                            x       y       z     vdW  Elec       q    Type
REMARK                         _______ _______ _______ _____ _____    ______ ____
ROOT
ATOM      1  C   UNL     1      45.972   8.893  12.567  0.00  0.00    +0.000 C 
ENDROOT
BRANCH   1   2
ATOM      2  C   UNL     1      45.660   7.456  12.174  0.00  0.00    +0.000 A 
ATOM      3  C   UNL     1      46.506   6.405  12.559  0.00  0.00    +0.000 A 
ATOM      4  C   UNL     1      46.181   5.077  12.244  0.00  0.00    +0.000 A 
ATOM      5  C   UNL     1      45.000   4.793  11.553  0.00  0.00    +0.000 A 
ATOM      6  C   UNL     1      44.195   5.837  11.119  0.00  0.00    +0.000 A 
ATOM      7  C   UNL     1      44.523   7.152  11.411  0.00  0.00    +0.000 A 
BRANCH   5   8
ATOM      8  O   UNL     1      44.685   3.476  11.350  0.00  0.00    +0.000 OA
BRANCH   8   9
ATOM      9  C   UNL     1      44.027   3.238  10.100  0.00  0.00    +0.000 C 
BRANCH   9  10
ATOM     10  C   UNL     1      45.048   2.973   9.029  0.00  0.00    +0.000 A 
ATOM     11  C   UNL     1      45.555   4.043   8.286  0.00  0.00    +0.000 A 
ATOM     12  C   UNL     1      46.554   3.825   7.338  0.00  0.00    +0.000 A 
ATOM     13  C   UNL     1      47.050   2.541   7.139  0.00  0.00    +0.000 A 
ATOM     14  C   UNL     1      46.549   1.468   7.874  0.00  0.00    +0.000 A 
ATOM     15  C   UNL     1      45.545   1.683   8.820  0.00  0.00    +0.000 A 
ENDBRANCH   9  10
ENDBRANCH   8   9
ENDBRANCH   5   8
ENDBRANCH   1   2
BRANCH   1  16
ATOM     16  N   UNL     1      47.339   9.192  12.170  0.00  0.00    +0.000 N 
ATOM     17  C   UNL     1      48.289   9.636  13.052  0.00  0.00    +0.000 C 
ATOM     18  O   UNL     1      48.082   9.721  14.257  0.00  0.00    +0.000 OA
ATOM     19  H   UNL     1      47.512   9.256  11.174  0.00  0.00    +0.000 HD
BRANCH  17  20
ATOM     20  C   UNL     1      49.592   9.975  12.468  0.00  0.00    +0.000 A 
ATOM     21  C   UNL     1      50.060  11.280  12.497  0.00  0.00    +0.000 A 
ATOM     22  S   UNL     1      51.562  11.479  11.709  0.00  0.00    +0.000 S 
ATOM     23  C   UNL     1      51.623   9.831  11.287  0.00  0.00    +0.000 A 
ATOM     24  N   UNL     1      52.647   9.330  10.545  0.00  0.00    +0.000 NA
ATOM     25  C   UNL     1      52.551   8.067  10.288  0.00  0.00    +0.000 A 
ATOM     26  N   UNL     1      51.533   7.257  10.718  0.00  0.00    +0.000 N 
ATOM     27  C   UNL     1      50.501   7.710  11.502  0.00  0.00    +0.000 A 
ATOM     28  O   UNL     1      49.653   6.940  11.943  0.00  0.00    +0.000 OA
ATOM     29  C   UNL     1      50.537   9.132  11.781  0.00  0.00    +0.000 A 
ATOM     30  H   UNL     1      51.535   6.268  10.515  0.00  0.00    +0.000 HD
ENDBRANCH  17  20
ENDBRANCH   1  16
BRANCH   1  31
ATOM     31  C   UNL     1      44.962   9.936  11.981  0.00  0.00    +0.000 C 
BRANCH  31  32
ATOM     32  N   UNL     1      45.353  11.335  12.212  0.00  0.00    +0.000 NA
ATOM     33  H   UNL     1      45.875  11.688  11.413  0.00  0.00    +0.000 HD
ATOM     34  H   UNL     1      45.977  11.380  13.016  0.00  0.00    +0.000 HD
ENDBRANCH  31  32
ENDBRANCH   1  31
TORSDOF 8
ENDMDL
MODEL 9
REMARK VINA RESULT:    -7.079      2.764      4.195
REMARK INTER + INTRA:         -11.125
REMARK INTER:                 -10.171
REMARK INTRA:                  -0.954
REMARK UNBOUND:                -0.942
REMARK  Name = 
REMARK  8 active torsions:
REMARK  status: ('A' for Active; 'I' for Inactive)
REMARK    1  A    between atoms: N_1  and  C_2
REMARK    2  A    between atoms: C_2  and  C_3
REMARK    3  A    between atoms: C_3  and  N_4
REMARK    4  A    between atoms: C_3  and  C_17
REMARK    5  A    between atoms: C_5  and  C_7
REMARK    6  A    between atoms: C_20  and  O_21
REMARK    7  A    between atoms: O_21  and  C_22
REMARK    8  A    between atoms: C_22  and  C_23
REMARK                            x       y       z     vdW  Elec       q    Type
REMARK                         _______ _______ _______ _____ _____    ______ ____
ROOT
ATOM      1  C   UNL     1      47.934   7.191  13.786  0.00  0.00    +0.000 C 
ENDROOT
BRANCH   1   2
ATOM      2  C   UNL     1      46.779   6.567  13.015  0.00  0.00    +0.000 A 
ATOM      3  C   UNL     1      46.160   7.258  11.962  0.00  0.00    +0.000 A 
ATOM      4  C   UNL     1      45.137   6.653  11.218  0.00  0.00    +0.000 A 
ATOM      5  C   UNL     1      44.736   5.347  11.516  0.00  0.00    +0.000 A 
ATOM      6  C   UNL     1      45.306   4.687  12.595  0.00  0.00    +0.000 A 
ATOM      7  C   UNL     1      46.304   5.290  13.346  0.00  0.00    +0.000 A 
BRANCH   5   8
ATOM      8  O   UNL     1      43.797   4.772  10.702  0.00  0.00    +0.000 OA
BRANCH   8   9
ATOM      9  C   UNL     1      43.997   3.366  10.514  0.00  0.00    +0.000 C 
BRANCH   9  10
ATOM     10  C   UNL     1      44.952   3.135   9.377  0.00  0.00    +0.000 A 
ATOM     11  C   UNL     1      45.392   1.836   9.105  0.00  0.00    +0.000 A 
ATOM     12  C   UNL     1      46.222   1.594   8.011  0.00  0.00    +0.000 A 
ATOM     13  C   UNL     1      46.603   2.647   7.185  0.00  0.00    +0.000 A 
ATOM     14  C   UNL     1      46.169   3.944   7.449  0.00  0.00    +0.000 A 
ATOM     15  C   UNL     1      45.343   4.191   8.548  0.00  0.00    +0.000 A 
ENDBRANCH   9  10
ENDBRANCH   8   9
ENDBRANCH   5   8
ENDBRANCH   1   2
BRANCH   1  16
ATOM     16  N   UNL     1      48.076   6.487  15.051  0.00  0.00    +0.000 N 
ATOM     17  C   UNL     1      48.751   7.012  16.122  0.00  0.00    +0.000 C 
ATOM     18  O   UNL     1      49.200   8.152  16.125  0.00  0.00    +0.000 OA
ATOM     19  H   UNL     1      47.834   5.504  15.045  0.00  0.00    +0.000 HD
BRANCH  17  20
ATOM     20  C   UNL     1      48.876   6.131  17.290  0.00  0.00    +0.000 A 
ATOM     21  C   UNL     1      49.480   4.888  17.174  0.00  0.00    +0.000 A 
ATOM     22  S   UNL     1      49.468   3.991  18.627  0.00  0.00    +0.000 S 
ATOM     23  C   UNL     1      48.637   5.228  19.450  0.00  0.00    +0.000 A 
ATOM     24  N   UNL     1      48.262   5.083  20.749  0.00  0.00    +0.000 NA
ATOM     25  C   UNL     1      47.625   6.097  21.237  0.00  0.00    +0.000 A 
ATOM     26  N   UNL     1      47.342   7.248  20.548  0.00  0.00    +0.000 N 
ATOM     27  C   UNL     1      47.736   7.454  19.249  0.00  0.00    +0.000 A 
ATOM     28  O   UNL     1      47.543   8.530  18.691  0.00  0.00    +0.000 OA
ATOM     29  C   UNL     1      48.415   6.327  18.641  0.00  0.00    +0.000 A 
ATOM     30  H   UNL     1      46.874   8.020  20.998  0.00  0.00    +0.000 HD
ENDBRANCH  17  20
ENDBRANCH   1  16
BRANCH   1  31
ATOM     31  C   UNL     1      49.280   7.217  12.987  0.00  0.00    +0.000 C 
BRANCH  31  32
ATOM     32  N   UNL     1      50.043   8.464  13.150  0.00  0.00    +0.000 NA
ATOM     33  H   UNL     1      49.720   8.965  13.974  0.00  0.00    +0.000 HD
ATOM     34  H   UNL     1      49.871   9.070  12.349  0.00  0.00    +0.000 HD
ENDBRANCH  31  32
ENDBRANCH   1  31
TORSDOF 8
ENDMDL
