MODEL 1
REMARK VINA RESULT:    -6.834      0.000      0.000
REMARK INTER + INTRA:          -9.375
REMARK INTER:                  -8.831
REMARK INTRA:                  -0.544
REMARK UNBOUND:                -0.544
REMARK  Name = 
REMARK  5 active torsions:
REMARK  status: ('A' for Active; 'I' for Inactive)
REMARK    1  A    between atoms: C_2  and  C_3
REMARK    2  A    between atoms: C_6  and  O_7
REMARK    3  A    between atoms: O_7  and  C_8
REMARK    4  A    between atoms: C_8  and  C_9
REMARK    5  A    between atoms: C_14  and  C_15
REMARK                            x       y       z     vdW  Elec       q    Type
REMARK                         _______ _______ _______ _____ _____    ______ ____
ROOT
ATOM      1  C   UNL     1      44.716   6.690  12.057  0.00  0.00    +0.000 A 
ATOM      2  C   UNL     1      44.180   7.827  11.441  0.00  0.00    +0.000 A 
ATOM      3  C   UNL     1      44.772   9.070  11.609  0.00  0.00    +0.000 A 
ATOM      4  F   UNL     1      44.221  10.145  11.029  0.00  0.00    +0.000 F 
ATOM      5  C   UNL     1      45.911   9.228  12.386  0.00  0.00    +0.000 A 
ATOM      6  C   UNL     1      46.506   8.131  13.024  0.00  0.00    +0.000 A 
ATOM      7  C   UNL     1      45.900   6.869  12.827  0.00  0.00    +0.000 A 
ENDROOT
BRANCH   6   8
ATOM      8  C   UNL     1      47.771   8.284  13.887  0.00  0.00    +0.000 C 
ATOM      9  C   UNL     1      48.724   9.398  13.403  0.00  0.00    +0.000 C 
ATOM     10  C   UNL     1      49.508   8.986  12.157  0.00  0.00    +0.000 C 
ATOM     11  C   UNL     1      50.181   7.619  12.306  0.00  0.00    +0.000 C 
ATOM     12  N   UNL     1      49.280   6.589  12.811  0.00  0.00    +0.000 NA
ATOM     13  C   UNL     1      48.624   6.997  14.061  0.00  0.00    +0.000 C 
ATOM     14  H   UNL     1      49.793   5.719  12.952  0.00  0.00    +0.000 HD
ENDBRANCH   6   8
BRANCH   1  15
ATOM     15  C   UNL     1      43.968   5.357  11.975  0.00  0.00    +0.000 C 
ATOM     16  C   UNL     1      42.913   5.014  13.011  0.00  0.00    +0.000 C 
ATOM     17  C   UNL     1      42.502   5.333  11.609  0.00  0.00    +0.000 C 
BRANCH  15  18
ATOM     18  O   UNL     1      44.754   4.167  11.672  0.00  0.00    +0.000 OA
BRANCH  18  22
ATOM     19  C   UNL     1      45.732   3.390   7.848  0.00  0.00    +0.000 A 
ATOM     20  C   UNL     1      45.883   4.670   8.356  0.00  0.00    +0.000 A 
ATOM     21  N   UNL     1      45.497   5.000   9.606  0.00  0.00    +0.000 NA
ATOM     22  C   UNL     1      44.984   3.982  10.332  0.00  0.00    +0.000 A 
ATOM     23  C   UNL     1      44.750   2.721   9.801  0.00  0.00    +0.000 A 
ATOM     24  N   UNL     1      45.122   2.392   8.541  0.00  0.00    +0.000 NA
BRANCH  19  26
ATOM     25  N   UNL     1      46.875   2.798   5.604  0.00  0.00    +0.000 NA
ATOM     26  C   UNL     1      46.327   3.045   6.602  0.00  0.00    +0.000 C 
ENDBRANCH  19  26
ENDBRANCH  18  22
ENDBRANCH  15  18
ENDBRANCH   1  15
TORSDOF 5
ENDMDL
MODEL 2
REMARK VINA RESULT:    -6.632      2.380      3.107
REMARK INTER + INTRA:          -9.115
REMARK INTER:                  -9.893
REMARK INTRA:                   0.778
REMARK UNBOUND:                -0.544
REMARK  Name = 
REMARK  5 active torsions:
REMARK  status: ('A' for Active; 'I' for Inactive)
REMARK    1  A    between atoms: C_2  and  C_3
REMARK    2  A    between atoms: C_6  and  O_7
REMARK    3  A    between atoms: O_7  and  C_8
REMARK    4  A    between atoms: C_8  and  C_9
REMARK    5  A    between atoms: C_14  and  C_15
REMARK                            x       y       z     vdW  Elec       q    Type
REMARK                         _______ _______ _______ _____ _____    ______ ____
ROOT
ATOM      1  C   UNL     1      45.149   4.850  11.947  0.00  0.00    +0.000 A 
ATOM      2  C   UNL     1      45.709   3.926  12.836  0.00  0.00    +0.000 A 
ATOM      3  C   UNL     1      46.904   4.201  13.486  0.00  0.00    +0.000 A 
ATOM      4  F   UNL     1      47.429   3.286  14.311  0.00  0.00    +0.000 F 
ATOM      5  C   UNL     1      47.580   5.395  13.278  0.00  0.00    +0.000 A 
ATOM      6  C   UNL     1      47.072   6.369  12.408  0.00  0.00    +0.000 A 
ATOM      7  C   UNL     1      45.843   6.080  11.769  0.00  0.00    +0.000 A 
ENDROOT
BRANCH   6   8
ATOM      8  C   UNL     1      47.803   7.701  12.167  0.00  0.00    +0.000 C 
ATOM      9  C   UNL     1      49.231   7.743  12.752  0.00  0.00    +0.000 C 
ATOM     10  C   UNL     1      49.227   7.910  14.272  0.00  0.00    +0.000 C 
ATOM     11  C   UNL     1      48.335   9.064  14.738  0.00  0.00    +0.000 C 
ATOM     12  N   UNL     1      47.005   9.038  14.137  0.00  0.00    +0.000 NA
ATOM     13  C   UNL     1      47.066   8.972  12.671  0.00  0.00    +0.000 C 
ATOM     14  H   UNL     1      46.477   9.859  14.431  0.00  0.00    +0.000 HD
ENDBRANCH   6   8
BRANCH   1  15
ATOM     15  C   UNL     1      43.908   4.469  11.136  0.00  0.00    +0.000 C 
ATOM     16  C   UNL     1      43.169   3.178  11.440  0.00  0.00    +0.000 C 
ATOM     17  C   UNL     1      42.543   4.492  11.785  0.00  0.00    +0.000 C 
BRANCH  15  18
ATOM     18  O   UNL     1      43.966   4.666   9.692  0.00  0.00    +0.000 OA
BRANCH  18  22
ATOM     19  C   UNL     1      46.697   2.643   7.540  0.00  0.00    +0.000 A 
ATOM     20  C   UNL     1      45.864   1.967   8.415  0.00  0.00    +0.000 A 
ATOM     21  N   UNL     1      44.986   2.606   9.216  0.00  0.00    +0.000 NA
ATOM     22  C   UNL     1      44.961   3.950   9.076  0.00  0.00    +0.000 A 
ATOM     23  C   UNL     1      45.852   4.640   8.265  0.00  0.00    +0.000 A 
ATOM     24  N   UNL     1      46.744   4.001   7.473  0.00  0.00    +0.000 NA
BRANCH  19  26
ATOM     25  N   UNL     1      48.151   1.363   5.825  0.00  0.00    +0.000 NA
ATOM     26  C   UNL     1      47.462   1.920   6.583  0.00  0.00    +0.000 C 
ENDBRANCH  19  26
ENDBRANCH  18  22
ENDBRANCH  15  18
ENDBRANCH   1  15
TORSDOF 5
ENDMDL
MODEL 3
REMARK VINA RESULT:    -6.120      3.476      5.623
REMARK INTER + INTRA:          -8.453
REMARK INTER:                  -7.955
REMARK INTRA:                  -0.498
REMARK UNBOUND:                -0.544
REMARK  Name = 
REMARK  5 active torsions:
REMARK  status: ('A' for Active; 'I' for Inactive)
REMARK    1  A    between atoms: C_2  and  C_3
REMARK    2  A    between atoms: C_6  and  O_7
REMARK    3  A    between atoms: O_7  and  C_8
REMARK    4  A    between atoms: C_8  and  C_9
REMARK    5  A    between atoms: C_14  and  C_15
REMARK                            x       y       z     vdW  Elec       q    Type
REMARK                         _______ _______ _______ _____ _____    ______ ____
ROOT
ATOM      1  C   UNL     1      48.392   7.835  14.812  0.00  0.00    +0.000 A 
ATOM      2  C   UNL     1      48.149   9.065  15.434  0.00  0.00    +0.000 A 
ATOM      3  C   UNL     1      48.210   9.185  16.815  0.00  0.00    +0.000 A 
ATOM      4  F   UNL     1      47.946  10.368  17.385  0.00  0.00    +0.000 F 
ATOM      5  C   UNL     1      48.514   8.097  17.621  0.00  0.00    +0.000 A 
ATOM      6  C   UNL     1      48.778   6.838  17.065  0.00  0.00    +0.000 A 
ATOM      7  C   UNL     1      48.730   6.739  15.654  0.00  0.00    +0.000 A 
ENDROOT
BRANCH   6   8
ATOM      8  C   UNL     1      49.121   5.620  17.940  0.00  0.00    +0.000 C 
ATOM      9  C   UNL     1      49.450   4.346  17.133  0.00  0.00    +0.000 C 
ATOM     10  C   UNL     1      48.196   3.693  16.550  0.00  0.00    +0.000 C 
ATOM     11  C   UNL     1      47.092   3.496  17.592  0.00  0.00    +0.000 C 
ATOM     12  N   UNL     1      46.828   4.696  18.380  0.00  0.00    +0.000 NA
ATOM     13  C   UNL     1      48.050   5.229  18.995  0.00  0.00    +0.000 C 
ATOM     14  H   UNL     1      46.133   4.493  19.097  0.00  0.00    +0.000 HD
ENDBRANCH   6   8
BRANCH   1  15
ATOM     15  C   UNL     1      48.182   7.692  13.302  0.00  0.00    +0.000 C 
ATOM     16  C   UNL     1      49.101   8.415  12.336  0.00  0.00    +0.000 C 
ATOM     17  C   UNL     1      49.184   6.928  12.468  0.00  0.00    +0.000 C 
BRANCH  15  18
ATOM     18  O   UNL     1      46.811   7.758  12.809  0.00  0.00    +0.000 OA
BRANCH  18  22
ATOM     19  C   UNL     1      44.817   4.347  12.055  0.00  0.00    +0.000 A 
ATOM     20  C   UNL     1      45.360   4.570  13.309  0.00  0.00    +0.000 A 
ATOM     21  N   UNL     1      46.103   5.661  13.591  0.00  0.00    +0.000 NA
ATOM     22  C   UNL     1      46.250   6.530  12.567  0.00  0.00    +0.000 A 
ATOM     23  C   UNL     1      45.783   6.270  11.285  0.00  0.00    +0.000 A 
ATOM     24  N   UNL     1      45.051   5.169  10.997  0.00  0.00    +0.000 NA
BRANCH  19  26
ATOM     25  N   UNL     1      43.106   2.452  11.635  0.00  0.00    +0.000 NA
ATOM     26  C   UNL     1      43.887   3.289  11.860  0.00  0.00    +0.000 C 
ENDBRANCH  19  26
ENDBRANCH  18  22
ENDBRANCH  15  18
ENDBRANCH   1  15
TORSDOF 5
ENDMDL
MODEL 4
REMARK VINA RESULT:    -6.116      2.882      7.261
REMARK INTER + INTRA:          -8.447
REMARK INTER:                  -7.738
REMARK INTRA:                  -0.709
REMARK UNBOUND:                -0.544
REMARK  Name = 
REMARK  5 active torsions:
REMARK  status: ('A' for Active; 'I' for Inactive)
REMARK    1  A    between atoms: C_2  and  C_3
REMARK    2  A    between atoms: C_6  and  O_7
REMARK    3  A    between atoms: O_7  and  C_8
REMARK    4  A    between atoms: C_8  and  C_9
REMARK    5  A    between atoms: C_14  and  C_15
REMARK                            x       y       z     vdW  Elec       q    Type
REMARK                         _______ _______ _______ _____ _____    ______ ____
ROOT
ATOM      1  C   UNL     1      47.530   7.787  12.390  0.00  0.00    +0.000 A 
ATOM      2  C   UNL     1      46.750   8.923  12.631  0.00  0.00    +0.000 A 
ATOM      3  C   UNL     1      45.394   8.927  12.338  0.00  0.00    +0.000 A 
ATOM      4  F   UNL     1      44.677  10.038  12.554  0.00  0.00    +0.000 F 
ATOM      5  C   UNL     1      44.768   7.810  11.803  0.00  0.00    +0.000 A 
ATOM      6  C   UNL     1      45.486   6.635  11.545  0.00  0.00    +0.000 A 
ATOM      7  C   UNL     1      46.864   6.643  11.867  0.00  0.00    +0.000 A 
ENDROOT
BRANCH   6   8
ATOM      8  C   UNL     1      44.811   5.385  10.956  0.00  0.00    +0.000 C 
ATOM      9  C   UNL     1      43.270   5.414  11.033  0.00  0.00    +0.000 C 
ATOM     10  C   UNL     1      42.758   5.141  12.448  0.00  0.00    +0.000 C 
ATOM     11  C   UNL     1      43.384   3.891  13.072  0.00  0.00    +0.000 C 
ATOM     12  N   UNL     1      44.837   3.854  12.946  0.00  0.00    +0.000 NA
ATOM     13  C   UNL     1      45.272   4.027  11.554  0.00  0.00    +0.000 C 
ATOM     14  H   UNL     1      45.195   2.976  13.320  0.00  0.00    +0.000 HD
ENDBRANCH   6   8
BRANCH   1  15
ATOM     15  C   UNL     1      49.047   7.850  12.586  0.00  0.00    +0.000 C 
ATOM     16  C   UNL     1      49.954   8.133  11.402  0.00  0.00    +0.000 C 
ATOM     17  C   UNL     1      49.771   9.171  12.462  0.00  0.00    +0.000 C 
BRANCH  15  18
ATOM     18  O   UNL     1      49.656   6.829  13.430  0.00  0.00    +0.000 OA
BRANCH  18  22
ATOM     19  C   UNL     1      48.525   6.661  17.286  0.00  0.00    +0.000 A 
ATOM     20  C   UNL     1      48.194   5.631  16.421  0.00  0.00    +0.000 A 
ATOM     21  N   UNL     1      48.481   5.675  15.103  0.00  0.00    +0.000 NA
ATOM     22  C   UNL     1      49.142   6.783  14.701  0.00  0.00    +0.000 A 
ATOM     23  C   UNL     1      49.399   7.856  15.545  0.00  0.00    +0.000 A 
ATOM     24  N   UNL     1      49.097   7.819  16.863  0.00  0.00    +0.000 NA
BRANCH  19  26
ATOM     25  N   UNL     1      48.226   6.274  19.827  0.00  0.00    +0.000 NA
ATOM     26  C   UNL     1      48.376   6.486  18.691  0.00  0.00    +0.000 C 
ENDBRANCH  19  26
ENDBRANCH  18  22
ENDBRANCH  15  18
ENDBRANCH   1  15
TORSDOF 5
ENDMDL
MODEL 5
REMARK VINA RESULT:    -5.990      3.240      6.670
REMARK INTER + INTRA:          -8.284
REMARK INTER:                  -8.207
REMARK INTRA:                  -0.077
REMARK UNBOUND:                -0.544
REMARK  Name = 
REMARK  5 active torsions:
REMARK  status: ('A' for Active; 'I' for Inactive)
REMARK    1  A    between atoms: C_2  and  C_3
REMARK    2  A    between atoms: C_6  and  O_7
REMARK    3  A    between atoms: O_7  and  C_8
REMARK    4  A    between atoms: C_8  and  C_9
REMARK    5  A    between atoms: C_14  and  C_15
REMARK                            x       y       z     vdW  Elec       q    Type
REMARK                         _______ _______ _______ _____ _____    ______ ____
ROOT
ATOM      1  C   UNL     1      46.561   6.193  12.552  0.00  0.00    +0.000 A 
ATOM      2  C   UNL     1      47.091   5.266  13.457  0.00  0.00    +0.000 A 
ATOM      3  C   UNL     1      46.673   3.943  13.443  0.00  0.00    +0.000 A 
ATOM      4  F   UNL     1      47.178   3.084  14.339  0.00  0.00    +0.000 F 
ATOM      5  C   UNL     1      45.723   3.496  12.536  0.00  0.00    +0.000 A 
ATOM      6  C   UNL     1      45.157   4.367  11.595  0.00  0.00    +0.000 A 
ATOM      7  C   UNL     1      45.609   5.708  11.612  0.00  0.00    +0.000 A 
ENDROOT
BRANCH   6   8
ATOM      8  C   UNL     1      44.107   3.891  10.578  0.00  0.00    +0.000 C 
ATOM      9  C   UNL     1      44.290   2.424  10.134  0.00  0.00    +0.000 C 
ATOM     10  C   UNL     1      45.452   2.259   9.154  0.00  0.00    +0.000 C 
ATOM     11  C   UNL     1      45.392   3.252   7.991  0.00  0.00    +0.000 C 
ATOM     12  N   UNL     1      45.168   4.628   8.425  0.00  0.00    +0.000 NA
ATOM     13  C   UNL     1      43.985   4.747   9.287  0.00  0.00    +0.000 C 
ATOM     14  H   UNL     1      45.073   5.236   7.613  0.00  0.00    +0.000 HD
ENDBRANCH   6   8
BRANCH   1  15
ATOM     15  C   UNL     1      46.929   7.674  12.676  0.00  0.00    +0.000 C 
ATOM     16  C   UNL     1      48.294   8.074  13.207  0.00  0.00    +0.000 C 
ATOM     17  C   UNL     1      47.971   8.273  11.760  0.00  0.00    +0.000 C 
BRANCH  15  18
ATOM     18  O   UNL     1      45.916   8.571  13.218  0.00  0.00    +0.000 OA
BRANCH  18  22
ATOM     19  C   UNL     1      44.574  10.910  10.232  0.00  0.00    +0.000 A 
ATOM     20  C   UNL     1      45.551  11.378  11.095  0.00  0.00    +0.000 A 
ATOM     21  N   UNL     1      45.979  10.665  12.158  0.00  0.00    +0.000 NA
ATOM     22  C   UNL     1      45.405   9.449  12.296  0.00  0.00    +0.000 A 
ATOM     23  C   UNL     1      44.365   9.010  11.487  0.00  0.00    +0.000 A 
ATOM     24  N   UNL     1      43.924   9.732  10.430  0.00  0.00    +0.000 NA
BRANCH  19  26
ATOM     25  N   UNL     1      44.025  12.124   8.015  0.00  0.00    +0.000 NA
ATOM     26  C   UNL     1      44.296  11.609   9.025  0.00  0.00    +0.000 C 
ENDBRANCH  19  26
ENDBRANCH  18  22
ENDBRANCH  15  18
ENDBRANCH   1  15
TORSDOF 5
ENDMDL
MODEL 6
REMARK VINA RESULT:    -5.932      3.516      5.284
REMARK INTER + INTRA:          -8.210
REMARK INTER:                  -8.279
REMARK INTRA:                   0.069
REMARK UNBOUND:                -0.544
REMARK  Name = 
REMARK  5 active torsions:
REMARK  status: ('A' for Active; 'I' for Inactive)
REMARK    1  A    between atoms: C_2  and  C_3
REMARK    2  A    between atoms: C_6  and  O_7
REMARK    3  A    between atoms: O_7  and  C_8
REMARK    4  A    between atoms: C_8  and  C_9
REMARK    5  A    between atoms: C_14  and  C_15
REMARK                            x       y       z     vdW  Elec       q    Type
REMARK                         _______ _______ _______ _____ _____    ______ ____
ROOT
ATOM      1  C   UNL     1      48.365   6.779  14.229  0.00  0.00    +0.000 A 
ATOM      2  C   UNL     1      49.547   7.507  14.403  0.00  0.00    +0.000 A 
ATOM      3  C   UNL     1      50.368   7.276  15.497  0.00  0.00    +0.000 A 
ATOM      4  F   UNL     1      51.480   8.006  15.651  0.00  0.00    +0.000 F 
ATOM      5  C   UNL     1      50.047   6.320  16.451  0.00  0.00    +0.000 A 
ATOM      6  C   UNL     1      48.882   5.549  16.336  0.00  0.00    +0.000 A 
ATOM      7  C   UNL     1      48.068   5.785  15.203  0.00  0.00    +0.000 A 
ENDROOT
BRANCH   6   8
ATOM      8  C   UNL     1      48.510   4.482  17.379  0.00  0.00    +0.000 C 
ATOM      9  C   UNL     1      49.675   4.091  18.314  0.00  0.00    +0.000 C 
ATOM     10  C   UNL     1      50.696   3.191  17.617  0.00  0.00    +0.000 C 
ATOM     11  C   UNL     1      50.048   2.000  16.908  0.00  0.00    +0.000 C 
ATOM     12  N   UNL     1      48.917   2.380  16.067  0.00  0.00    +0.000 NA
ATOM     13  C   UNL     1      47.920   3.162  16.809  0.00  0.00    +0.000 C 
ATOM     14  H   UNL     1      48.485   1.546  15.671  0.00  0.00    +0.000 HD
ENDBRANCH   6   8
BRANCH   1  15
ATOM     15  C   UNL     1      47.405   7.146  13.094  0.00  0.00    +0.000 C 
ATOM     16  C   UNL     1      47.581   8.455  12.346  0.00  0.00    +0.000 C 
ATOM     17  C   UNL     1      47.895   7.162  11.665  0.00  0.00    +0.000 C 
BRANCH  15  18
ATOM     18  O   UNL     1      45.985   6.900  13.314  0.00  0.00    +0.000 OA
BRANCH  18  22
ATOM     19  C   UNL     1      44.863   3.832  10.967  0.00  0.00    +0.000 A 
ATOM     20  C   UNL     1      44.566   5.132  10.597  0.00  0.00    +0.000 A 
ATOM     21  N   UNL     1      44.850   6.191  11.385  0.00  0.00    +0.000 NA
ATOM     22  C   UNL     1      45.474   5.886  12.544  0.00  0.00    +0.000 A 
ATOM     23  C   UNL     1      45.696   4.580  12.960  0.00  0.00    +0.000 A 
ATOM     24  N   UNL     1      45.397   3.517  12.178  0.00  0.00    +0.000 NA
BRANCH  19  26
ATOM     25  N   UNL     1      44.594   1.959   9.202  0.00  0.00    +0.000 NA
ATOM     26  C   UNL     1      44.722   2.774  10.026  0.00  0.00    +0.000 C 
ENDBRANCH  19  26
ENDBRANCH  18  22
ENDBRANCH  15  18
ENDBRANCH   1  15
TORSDOF 5
ENDMDL
MODEL 7
REMARK VINA RESULT:    -5.618      4.639      7.514
REMARK INTER + INTRA:          -7.803
REMARK INTER:                  -7.582
REMARK INTRA:                  -0.221
REMARK UNBOUND:                -0.544
REMARK  Name = 
REMARK  5 active torsions:
REMARK  status: ('A' for Active; 'I' for Inactive)
REMARK    1  A    between atoms: C_2  and  C_3
REMARK    2  A    between atoms: C_6  and  O_7
REMARK    3  A    between atoms: O_7  and  C_8
REMARK    4  A    between atoms: C_8  and  C_9
REMARK    5  A    between atoms: C_14  and  C_15
REMARK                            x       y       z     vdW  Elec       q    Type
REMARK                         _______ _______ _______ _____ _____    ______ ____
ROOT
ATOM      1  C   UNL     1      44.715   9.443  11.513  0.00  0.00    +0.000 A 
ATOM      2  C   UNL     1      45.604   9.653  12.573  0.00  0.00    +0.000 A 
ATOM      3  C   UNL     1      46.262   8.586  13.169  0.00  0.00    +0.000 A 
ATOM      4  F   UNL     1      47.087   8.815  14.199  0.00  0.00    +0.000 F 
ATOM      5  C   UNL     1      46.063   7.283  12.735  0.00  0.00    +0.000 A 
ATOM      6  C   UNL     1      45.194   7.001  11.673  0.00  0.00    +0.000 A 
ATOM      7  C   UNL     1      44.547   8.102  11.065  0.00  0.00    +0.000 A 
ENDROOT
BRANCH   6   8
ATOM      8  C   UNL     1      44.963   5.564  11.174  0.00  0.00    +0.000 C 
ATOM      9  C   UNL     1      43.493   5.256  10.819  0.00  0.00    +0.000 C 
ATOM     10  C   UNL     1      42.627   5.064  12.065  0.00  0.00    +0.000 C 
ATOM     11  C   UNL     1      43.239   4.081  13.066  0.00  0.00    +0.000 C 
ATOM     12  N   UNL     1      44.643   4.356  13.353  0.00  0.00    +0.000 NA
ATOM     13  C   UNL     1      45.449   4.436  12.127  0.00  0.00    +0.000 C 
ATOM     14  H   UNL     1      45.017   3.638  13.972  0.00  0.00    +0.000 HD
ENDBRANCH   6   8
BRANCH   1  15
ATOM     15  C   UNL     1      43.895  10.613  10.965  0.00  0.00    +0.000 C 
ATOM     16  C   UNL     1      44.519  11.578   9.973  0.00  0.00    +0.000 C 
ATOM     17  C   UNL     1      43.464  10.622   9.516  0.00  0.00    +0.000 C 
BRANCH  15  18
ATOM     18  O   UNL     1      43.074  11.356  11.913  0.00  0.00    +0.000 OA
BRANCH  18  22
ATOM     19  C   UNL     1      39.070  11.186  11.562  0.00  0.00    +0.000 A 
ATOM     20  C   UNL     1      39.835  10.055  11.334  0.00  0.00    +0.000 A 
ATOM     21  N   UNL     1      41.184  10.076  11.362  0.00  0.00    +0.000 NA
ATOM     22  C   UNL     1      41.728  11.277  11.660  0.00  0.00    +0.000 A 
ATOM     23  C   UNL     1      40.971  12.433  11.803  0.00  0.00    +0.000 A 
ATOM     24  N   UNL     1      39.618  12.415  11.759  0.00  0.00    +0.000 NA
BRANCH  19  26
ATOM     25  N   UNL     1      36.511  11.016  11.902  0.00  0.00    +0.000 NA
ATOM     26  C   UNL     1      37.660  11.074  11.712  0.00  0.00    +0.000 C 
ENDBRANCH  19  26
ENDBRANCH  18  22
ENDBRANCH  15  18
ENDBRANCH   1  15
TORSDOF 5
ENDMDL
MODEL 8
REMARK VINA RESULT:    -5.514      2.889      7.538
REMARK INTER + INTRA:          -7.670
REMARK INTER:                  -7.545
REMARK INTRA:                  -0.125
REMARK UNBOUND:                -0.544
REMARK  Name = 
REMARK  5 active torsions:
REMARK  status: ('A' for Active; 'I' for Inactive)
REMARK    1  A    between atoms: C_2  and  C_3
REMARK    2  A    between atoms: C_6  and  O_7
REMARK    3  A    between atoms: O_7  and  C_8
REMARK    4  A    between atoms: C_8  and  C_9
REMARK    5  A    between atoms: C_14  and  C_15
REMARK                            x       y       z     vdW  Elec       q    Type
REMARK                         _______ _______ _______ _____ _____    ______ ____
ROOT
ATOM      1  C   UNL     1      46.675   6.297  12.440  0.00  0.00    +0.000 A 
ATOM      2  C   UNL     1      47.205   5.430  13.402  0.00  0.00    +0.000 A 
ATOM      3  C   UNL     1      46.744   4.126  13.513  0.00  0.00    +0.000 A 
ATOM      4  F   UNL     1      47.251   3.327  14.461  0.00  0.00    +0.000 F 
ATOM      5  C   UNL     1      45.748   3.640  12.677  0.00  0.00    +0.000 A 
ATOM      6  C   UNL     1      45.179   4.450  11.686  0.00  0.00    +0.000 A 
ATOM      7  C   UNL     1      45.675   5.770  11.575  0.00  0.00    +0.000 A 
ENDROOT
BRANCH   6   8
ATOM      8  C   UNL     1      44.077   3.929  10.747  0.00  0.00    +0.000 C 
ATOM      9  C   UNL     1      44.260   2.455  10.330  0.00  0.00    +0.000 C 
ATOM     10  C   UNL     1      45.364   2.284   9.286  0.00  0.00    +0.000 C 
ATOM     11  C   UNL     1      45.216   3.245   8.104  0.00  0.00    +0.000 C 
ATOM     12  N   UNL     1      44.994   4.627   8.516  0.00  0.00    +0.000 NA
ATOM     13  C   UNL     1      43.863   4.749   9.445  0.00  0.00    +0.000 C 
ATOM     14  H   UNL     1      44.839   5.212   7.695  0.00  0.00    +0.000 HD
ENDBRANCH   6   8
BRANCH   1  15
ATOM     15  C   UNL     1      47.096   7.769  12.428  0.00  0.00    +0.000 C 
ATOM     16  C   UNL     1      46.060   8.853  12.190  0.00  0.00    +0.000 C 
ATOM     17  C   UNL     1      46.665   8.688  13.548  0.00  0.00    +0.000 C 
BRANCH  15  18
ATOM     18  O   UNL     1      48.324   8.107  11.718  0.00  0.00    +0.000 OA
BRANCH  18  22
ATOM     19  C   UNL     1      51.005   9.424  14.413  0.00  0.00    +0.000 A 
ATOM     20  C   UNL     1      50.437  10.307  13.511  0.00  0.00    +0.000 A 
ATOM     21  N   UNL     1      49.593   9.904  12.538  0.00  0.00    +0.000 NA
ATOM     22  C   UNL     1      49.322   8.580  12.532  0.00  0.00    +0.000 A 
ATOM     23  C   UNL     1      49.953   7.678  13.378  0.00  0.00    +0.000 A 
ATOM     24  N   UNL     1      50.812   8.079  14.344  0.00  0.00    +0.000 NA
BRANCH  19  26
ATOM     25  N   UNL     1      52.351  10.377  16.406  0.00  0.00    +0.000 NA
ATOM     26  C   UNL     1      51.730   9.918  15.533  0.00  0.00    +0.000 C 
ENDBRANCH  19  26
ENDBRANCH  18  22
ENDBRANCH  15  18
ENDBRANCH   1  15
TORSDOF 5
ENDMDL
MODEL 9
REMARK VINA RESULT:    -5.342      3.094      5.192
REMARK INTER + INTRA:          -7.448
REMARK INTER:                  -6.915
REMARK INTRA:                  -0.533
REMARK UNBOUND:                -0.544
REMARK  Name = 
REMARK  5 active torsions:
REMARK  status: ('A' for Active; 'I' for Inactive)
REMARK    1  A    between atoms: C_2  and  C_3
REMARK    2  A    between atoms: C_6  and  O_7
REMARK    3  A    between atoms: O_7  and  C_8
REMARK    4  A    between atoms: C_8  and  C_9
REMARK    5  A    between atoms: C_14  and  C_15
REMARK                            x       y       z     vdW  Elec       q    Type
REMARK                         _______ _______ _______ _____ _____    ______ ____
ROOT
ATOM      1  C   UNL     1      49.391   8.423  12.567  0.00  0.00    +0.000 A 
ATOM      2  C   UNL     1      48.655   9.454  11.971  0.00  0.00    +0.000 A 
ATOM      3  C   UNL     1      49.251  10.318  11.064  0.00  0.00    +0.000 A 
ATOM      4  F   UNL     1      48.529  11.312  10.530  0.00  0.00    +0.000 F 
ATOM      5  C   UNL     1      50.589  10.190  10.717  0.00  0.00    +0.000 A 
ATOM      6  C   UNL     1      51.383   9.175  11.268  0.00  0.00    +0.000 A 
ATOM      7  C   UNL     1      50.753   8.291  12.176  0.00  0.00    +0.000 A 
ENDROOT
BRANCH   6   8
ATOM      8  C   UNL     1      52.866   9.012  10.894  0.00  0.00    +0.000 C 
ATOM      9  C   UNL     1      53.148   9.168   9.384  0.00  0.00    +0.000 C 
ATOM     10  C   UNL     1      52.713   7.939   8.586  0.00  0.00    +0.000 C 
ATOM     11  C   UNL     1      53.241   6.630   9.180  0.00  0.00    +0.000 C 
ATOM     12  N   UNL     1      53.010   6.520  10.617  0.00  0.00    +0.000 NA
ATOM     13  C   UNL     1      53.531   7.683  11.347  0.00  0.00    +0.000 C 
ATOM     14  H   UNL     1      53.435   5.664  10.971  0.00  0.00    +0.000 HD
ENDBRANCH   6   8
BRANCH   1  15
ATOM     15  C   UNL     1      48.753   7.572  13.668  0.00  0.00    +0.000 C 
ATOM     16  C   UNL     1      49.115   7.817  15.122  0.00  0.00    +0.000 C 
ATOM     17  C   UNL     1      47.756   8.191  14.621  0.00  0.00    +0.000 C 
BRANCH  15  18
ATOM     18  O   UNL     1      48.651   6.137  13.429  0.00  0.00    +0.000 OA
BRANCH  18  22
ATOM     19  C   UNL     1      45.121   4.571  12.304  0.00  0.00    +0.000 A 
ATOM     20  C   UNL     1      45.693   5.592  11.565  0.00  0.00    +0.000 A 
ATOM     21  N   UNL     1      46.835   6.205  11.942  0.00  0.00    +0.000 NA
ATOM     22  C   UNL     1      47.391   5.723  13.076  0.00  0.00    +0.000 A 
ATOM     23  C   UNL     1      46.778   4.760  13.867  0.00  0.00    +0.000 A 
ATOM     24  N   UNL     1      45.625   4.157  13.497  0.00  0.00    +0.000 NA
BRANCH  19  26
ATOM     25  N   UNL     1      43.182   3.166  11.322  0.00  0.00    +0.000 NA
ATOM     26  C   UNL     1      44.030   3.831  11.770  0.00  0.00    +0.000 C 
ENDBRANCH  19  26
ENDBRANCH  18  22
ENDBRANCH  15  18
ENDBRANCH   1  15
TORSDOF 5
ENDMDL
