MODEL 1
REMARK VINA RESULT:    -8.686      0.000      0.000
REMARK INTER + INTRA:         -13.637
REMARK INTER:                 -12.241
REMARK INTRA:                  -1.396
REMARK UNBOUND:                -1.396
REMARK  Name = 
REMARK  8 active torsions:
REMARK  status: ('A' for Active; 'I' for Inactive)
REMARK    1  A    between atoms: C_1  and  C_2
REMARK    2  A    between atoms: C_2  and  C_3
REMARK    3  A    between atoms: C_3  and  C_4
REMARK    4  A    between atoms: C_3  and  N_11
REMARK    5  A    between atoms: C_4  and  C_5
REMARK    6  A    between atoms: C_15  and  C_16
REMARK    7  A    between atoms: C_16  and  N_17
REMARK    8  A    between atoms: C_18  and  C_20
REMARK                            x       y       z     vdW  Elec       q    Type
REMARK                         _______ _______ _______ _____ _____    ______ ____
ROOT
ATOM      1  N   UNL     1      44.508   5.788  10.263  0.00  0.00    +0.000 N 
ATOM      2  C   UNL     1      45.313   6.423  11.228  0.00  0.00    +0.000 A 
ATOM      3  C   UNL     1      44.862   7.633  11.757  0.00  0.00    +0.000 A 
ATOM      4  C   UNL     1      45.637   8.323  12.690  0.00  0.00    +0.000 A 
ATOM      5  C   UNL     1      46.875   7.810  13.066  0.00  0.00    +0.000 A 
ATOM      6  C   UNL     1      47.273   6.630  12.449  0.00  0.00    +0.000 A 
ATOM      7  N   UNL     1      46.519   5.930  11.561  0.00  0.00    +0.000 NA
ATOM      8  H   UNL     1      43.542   6.003  10.482  0.00  0.00    +0.000 HD
ENDROOT
BRANCH   1   9
ATOM      9  C   UNL     1      44.713   4.331  10.073  0.00  0.00    +0.000 C 
BRANCH   9  11
ATOM     10  C   UNL     1      43.983   3.161  12.253  0.00  0.00    +0.000 C 
ATOM     11  C   UNL     1      43.585   3.584  10.834  0.00  0.00    +0.000 C 
ENDBRANCH   9  11
BRANCH   9  12
ATOM     12  C   UNL     1      44.676   3.991   8.561  0.00  0.00    +0.000 C 
BRANCH  12  13
ATOM     13  C   UNL     1      45.760   3.093   7.990  0.00  0.00    +0.000 A 
ATOM     14  C   UNL     1      45.868   1.761   8.416  0.00  0.00    +0.000 A 
ATOM     15  C   UNL     1      46.710   0.859   7.757  0.00  0.00    +0.000 A 
ATOM     16  C   UNL     1      47.462   1.282   6.664  0.00  0.00    +0.000 A 
ATOM     17  C   UNL     1      47.403   2.613   6.259  0.00  0.00    +0.000 A 
ATOM     18  C   UNL     1      46.563   3.517   6.921  0.00  0.00    +0.000 A 
ENDBRANCH  12  13
ENDBRANCH   9  12
ENDBRANCH   1   9
BRANCH   5  19
ATOM     19  C   UNL     1      47.751   8.522  14.056  0.00  0.00    +0.000 C 
BRANCH  19  20
ATOM     20  N   UNL     1      48.038   7.689  15.194  0.00  0.00    +0.000 N 
ATOM     21  C   UNL     1      49.278   7.136  15.397  0.00  0.00    +0.000 C 
ATOM     22  O   UNL     1      50.224   7.362  14.646  0.00  0.00    +0.000 OA
ATOM     23  H   UNL     1      47.241   7.283  15.673  0.00  0.00    +0.000 HD
BRANCH  21  24
ATOM     24  C   UNL     1      49.428   6.315  16.606  0.00  0.00    +0.000 A 
ATOM     25  C   UNL     1      50.319   6.698  17.602  0.00  0.00    +0.000 A 
ATOM     26  S   UNL     1      50.291   5.678  18.970  0.00  0.00    +0.000 S 
ATOM     27  C   UNL     1      49.138   4.655  18.251  0.00  0.00    +0.000 A 
ATOM     28  N   UNL     1      48.674   3.554  18.900  0.00  0.00    +0.000 NA
ATOM     29  C   UNL     1      47.821   2.856  18.228  0.00  0.00    +0.000 A 
ATOM     30  N   UNL     1      47.394   3.154  16.963  0.00  0.00    +0.000 N 
ATOM     31  C   UNL     1      47.815   4.263  16.278  0.00  0.00    +0.000 A 
ATOM     32  O   UNL     1      47.389   4.520  15.154  0.00  0.00    +0.000 OA
ATOM     33  C   UNL     1      48.771   5.087  16.992  0.00  0.00    +0.000 A 
ATOM     34  H   UNL     1      46.709   2.563  16.497  0.00  0.00    +0.000 HD
ENDBRANCH  21  24
ENDBRANCH  19  20
ENDBRANCH   5  19
TORSDOF 7
ENDMDL
MODEL 2
REMARK VINA RESULT:    -8.024      1.846      2.386
REMARK INTER + INTRA:         -12.705
REMARK INTER:                 -11.458
REMARK INTRA:                  -1.247
REMARK UNBOUND:                -1.396
REMARK  Name = 
REMARK  8 active torsions:
REMARK  status: ('A' for Active; 'I' for Inactive)
REMARK    1  A    between atoms: C_1  and  C_2
REMARK    2  A    between atoms: C_2  and  C_3
REMARK    3  A    between atoms: C_3  and  C_4
REMARK    4  A    between atoms: C_3  and  N_11
REMARK    5  A    between atoms: C_4  and  C_5
REMARK    6  A    between atoms: C_15  and  C_16
REMARK    7  A    between atoms: C_16  and  N_17
REMARK    8  A    between atoms: C_18  and  C_20
REMARK                            x       y       z     vdW  Elec       q    Type
REMARK                         _______ _______ _______ _____ _____    ______ ____
ROOT
ATOM      1  N   UNL     1      44.582   5.992  10.496  0.00  0.00    +0.000 N 
ATOM      2  C   UNL     1      45.463   6.490  11.475  0.00  0.00    +0.000 A 
ATOM      3  C   UNL     1      45.258   7.794  11.930  0.00  0.00    +0.000 A 
ATOM      4  C   UNL     1      46.123   8.351  12.873  0.00  0.00    +0.000 A 
ATOM      5  C   UNL     1      47.206   7.608  13.333  0.00  0.00    +0.000 A 
ATOM      6  C   UNL     1      47.370   6.341  12.785  0.00  0.00    +0.000 A 
ATOM      7  N   UNL     1      46.522   5.772  11.889  0.00  0.00    +0.000 NA
ATOM      8  H   UNL     1      43.676   6.416  10.655  0.00  0.00    +0.000 HD
ENDROOT
BRANCH   1   9
ATOM      9  C   UNL     1      44.480   4.517  10.375  0.00  0.00    +0.000 C 
BRANCH   9  11
ATOM     10  C   UNL     1      43.614   2.782  12.076  0.00  0.00    +0.000 C 
ATOM     11  C   UNL     1      43.299   4.043  11.264  0.00  0.00    +0.000 C 
ENDBRANCH   9  11
BRANCH   9  12
ATOM     12  C   UNL     1      44.245   4.129   8.893  0.00  0.00    +0.000 C 
BRANCH  12  13
ATOM     13  C   UNL     1      45.249   3.215   8.211  0.00  0.00    +0.000 A 
ATOM     14  C   UNL     1      46.224   3.753   7.358  0.00  0.00    +0.000 A 
ATOM     15  C   UNL     1      47.284   2.969   6.891  0.00  0.00    +0.000 A 
ATOM     16  C   UNL     1      47.378   1.632   7.266  0.00  0.00    +0.000 A 
ATOM     17  C   UNL     1      46.391   1.070   8.073  0.00  0.00    +0.000 A 
ATOM     18  C   UNL     1      45.327   1.854   8.538  0.00  0.00    +0.000 A 
ENDBRANCH  12  13
ENDBRANCH   9  12
ENDBRANCH   1   9
BRANCH   5  19
ATOM     19  C   UNL     1      48.172   8.169  14.338  0.00  0.00    +0.000 C 
BRANCH  19  20
ATOM     20  N   UNL     1      48.053   7.500  15.607  0.00  0.00    +0.000 N 
ATOM     21  C   UNL     1      49.042   6.682  16.094  0.00  0.00    +0.000 C 
ATOM     22  O   UNL     1      50.104   6.517  15.498  0.00  0.00    +0.000 OA
ATOM     23  H   UNL     1      47.116   7.408  15.987  0.00  0.00    +0.000 HD
BRANCH  21  24
ATOM     24  C   UNL     1      48.787   6.074  17.406  0.00  0.00    +0.000 A 
ATOM     25  C   UNL     1      49.006   4.715  17.598  0.00  0.00    +0.000 A 
ATOM     26  S   UNL     1      48.747   4.203  19.206  0.00  0.00    +0.000 S 
ATOM     27  C   UNL     1      48.269   5.765  19.683  0.00  0.00    +0.000 A 
ATOM     28  N   UNL     1      47.897   6.025  20.964  0.00  0.00    +0.000 NA
ATOM     29  C   UNL     1      47.536   7.245  21.180  0.00  0.00    +0.000 A 
ATOM     30  N   UNL     1      47.507   8.229  20.230  0.00  0.00    +0.000 N 
ATOM     31  C   UNL     1      47.893   8.022  18.933  0.00  0.00    +0.000 A 
ATOM     32  O   UNL     1      47.885   8.934  18.109  0.00  0.00    +0.000 OA
ATOM     33  C   UNL     1      48.315   6.665  18.638  0.00  0.00    +0.000 A 
ATOM     34  H   UNL     1      47.221   9.174  20.475  0.00  0.00    +0.000 HD
ENDBRANCH  21  24
ENDBRANCH  19  20
ENDBRANCH   5  19
TORSDOF 7
ENDMDL
MODEL 3
REMARK VINA RESULT:    -6.960      3.079      8.482
REMARK INTER + INTRA:         -11.204
REMARK INTER:                  -9.700
REMARK INTRA:                  -1.504
REMARK UNBOUND:                -1.396
REMARK  Name = 
REMARK  8 active torsions:
REMARK  status: ('A' for Active; 'I' for Inactive)
REMARK    1  A    between atoms: C_1  and  C_2
REMARK    2  A    between atoms: C_2  and  C_3
REMARK    3  A    between atoms: C_3  and  C_4
REMARK    4  A    between atoms: C_3  and  N_11
REMARK    5  A    between atoms: C_4  and  C_5
REMARK    6  A    between atoms: C_15  and  C_16
REMARK    7  A    between atoms: C_16  and  N_17
REMARK    8  A    between atoms: C_18  and  C_20
REMARK                            x       y       z     vdW  Elec       q    Type
REMARK                         _______ _______ _______ _____ _____    ______ ____
ROOT
ATOM      1  N   UNL     1      51.119   7.581  16.313  0.00  0.00    +0.000 N 
ATOM      2  C   UNL     1      50.258   7.622  15.200  0.00  0.00    +0.000 A 
ATOM      3  C   UNL     1      50.151   8.828  14.505  0.00  0.00    +0.000 A 
ATOM      4  C   UNL     1      49.285   8.935  13.416  0.00  0.00    +0.000 A 
ATOM      5  C   UNL     1      48.509   7.839  13.046  0.00  0.00    +0.000 A 
ATOM      6  C   UNL     1      48.635   6.696  13.826  0.00  0.00    +0.000 A 
ATOM      7  N   UNL     1      49.494   6.565  14.872  0.00  0.00    +0.000 NA
ATOM      8  H   UNL     1      51.886   8.217  16.130  0.00  0.00    +0.000 HD
ENDROOT
BRANCH   1   9
ATOM      9  C   UNL     1      51.606   6.245  16.735  0.00  0.00    +0.000 C 
BRANCH   9  11
ATOM     10  C   UNL     1      53.769   5.030  17.440  0.00  0.00    +0.000 C 
ATOM     11  C   UNL     1      53.137   6.345  16.971  0.00  0.00    +0.000 C 
ENDBRANCH   9  11
BRANCH   9  12
ATOM     12  C   UNL     1      50.875   5.806  18.029  0.00  0.00    +0.000 C 
BRANCH  12  13
ATOM     13  C   UNL     1      49.708   4.840  17.915  0.00  0.00    +0.000 A 
ATOM     14  C   UNL     1      48.394   5.300  18.093  0.00  0.00    +0.000 A 
ATOM     15  C   UNL     1      47.299   4.486  17.784  0.00  0.00    +0.000 A 
ATOM     16  C   UNL     1      47.505   3.197  17.301  0.00  0.00    +0.000 A 
ATOM     17  C   UNL     1      48.803   2.709  17.166  0.00  0.00    +0.000 A 
ATOM     18  C   UNL     1      49.900   3.522  17.478  0.00  0.00    +0.000 A 
ENDBRANCH  12  13
ENDBRANCH   9  12
ENDBRANCH   1   9
BRANCH   5  19
ATOM     19  C   UNL     1      47.554   7.910  11.890  0.00  0.00    +0.000 C 
BRANCH  19  20
ATOM     20  N   UNL     1      46.855   6.663  11.713  0.00  0.00    +0.000 N 
ATOM     21  C   UNL     1      45.486   6.580  11.783  0.00  0.00    +0.000 C 
ATOM     22  O   UNL     1      44.780   7.572  11.949  0.00  0.00    +0.000 OA
ATOM     23  H   UNL     1      47.400   5.815  11.832  0.00  0.00    +0.000 HD
BRANCH  21  24
ATOM     24  C   UNL     1      44.911   5.245  11.573  0.00  0.00    +0.000 A 
ATOM     25  C   UNL     1      44.224   4.613  12.604  0.00  0.00    +0.000 A 
ATOM     26  S   UNL     1      43.545   3.114  12.151  0.00  0.00    +0.000 S 
ATOM     27  C   UNL     1      44.203   3.228  10.586  0.00  0.00    +0.000 A 
ATOM     28  N   UNL     1      44.004   2.246   9.667  0.00  0.00    +0.000 NA
ATOM     29  C   UNL     1      44.579   2.451   8.530  0.00  0.00    +0.000 A 
ATOM     30  N   UNL     1      45.341   3.546   8.228  0.00  0.00    +0.000 N 
ATOM     31  C   UNL     1      45.551   4.572   9.111  0.00  0.00    +0.000 A 
ATOM     32  O   UNL     1      46.215   5.558   8.801  0.00  0.00    +0.000 OA
ATOM     33  C   UNL     1      44.919   4.394  10.406  0.00  0.00    +0.000 A 
ATOM     34  H   UNL     1      45.755   3.648   7.305  0.00  0.00    +0.000 HD
ENDBRANCH  21  24
ENDBRANCH  19  20
ENDBRANCH   5  19
TORSDOF 7
ENDMDL
MODEL 4
REMARK VINA RESULT:    -6.959      2.259      2.923
REMARK INTER + INTRA:         -11.203
REMARK INTER:                 -10.192
REMARK INTRA:                  -1.011
REMARK UNBOUND:                -1.396
REMARK  Name = 
REMARK  8 active torsions:
REMARK  status: ('A' for Active; 'I' for Inactive)
REMARK    1  A    between atoms: C_1  and  C_2
REMARK    2  A    between atoms: C_2  and  C_3
REMARK    3  A    between atoms: C_3  and  C_4
REMARK    4  A    between atoms: C_3  and  N_11
REMARK    5  A    between atoms: C_4  and  C_5
REMARK    6  A    between atoms: C_15  and  C_16
REMARK    7  A    between atoms: C_16  and  N_17
REMARK    8  A    between atoms: C_18  and  C_20
REMARK                            x       y       z     vdW  Elec       q    Type
REMARK                         _______ _______ _______ _____ _____    ______ ____
ROOT
ATOM      1  N   UNL     1      45.269   5.586  10.779  0.00  0.00    +0.000 N 
ATOM      2  C   UNL     1      46.040   5.982  11.888  0.00  0.00    +0.000 A 
ATOM      3  C   UNL     1      46.278   7.347  12.059  0.00  0.00    +0.000 A 
ATOM      4  C   UNL     1      47.066   7.793  13.121  0.00  0.00    +0.000 A 
ATOM      5  C   UNL     1      47.635   6.866  13.990  0.00  0.00    +0.000 A 
ATOM      6  C   UNL     1      47.394   5.525  13.714  0.00  0.00    +0.000 A 
ATOM      7  N   UNL     1      46.606   5.074  12.702  0.00  0.00    +0.000 NA
ATOM      8  H   UNL     1      44.596   6.321  10.595  0.00  0.00    +0.000 HD
ENDROOT
BRANCH   1   9
ATOM      9  C   UNL     1      44.616   4.256  10.857  0.00  0.00    +0.000 C 
BRANCH   9  11
ATOM     10  C   UNL     1      42.597   5.742  11.468  0.00  0.00    +0.000 C 
ATOM     11  C   UNL     1      43.317   4.408  11.694  0.00  0.00    +0.000 C 
ENDBRANCH   9  11
BRANCH   9  12
ATOM     12  C   UNL     1      44.295   3.746   9.430  0.00  0.00    +0.000 C 
BRANCH  12  13
ATOM     13  C   UNL     1      45.411   3.114   8.614  0.00  0.00    +0.000 A 
ATOM     14  C   UNL     1      45.669   1.739   8.719  0.00  0.00    +0.000 A 
ATOM     15  C   UNL     1      46.537   1.099   7.829  0.00  0.00    +0.000 A 
ATOM     16  C   UNL     1      47.167   1.830   6.825  0.00  0.00    +0.000 A 
ATOM     17  C   UNL     1      46.960   3.205   6.739  0.00  0.00    +0.000 A 
ATOM     18  C   UNL     1      46.092   3.847   7.631  0.00  0.00    +0.000 A 
ENDBRANCH  12  13
ENDBRANCH   9  12
ENDBRANCH   1   9
BRANCH   5  19
ATOM     19  C   UNL     1      48.500   7.296  15.139  0.00  0.00    +0.000 C 
BRANCH  19  20
ATOM     20  N   UNL     1      49.307   6.206  15.623  0.00  0.00    +0.000 N 
ATOM     21  C   UNL     1      49.074   5.613  16.839  0.00  0.00    +0.000 C 
ATOM     22  O   UNL     1      48.135   5.945  17.558  0.00  0.00    +0.000 OA
ATOM     23  H   UNL     1      50.217   6.086  15.190  0.00  0.00    +0.000 HD
BRANCH  21  24
ATOM     24  C   UNL     1      49.970   4.506  17.197  0.00  0.00    +0.000 A 
ATOM     25  C   UNL     1      49.493   3.200  17.213  0.00  0.00    +0.000 A 
ATOM     26  S   UNL     1      50.695   2.039  17.560  0.00  0.00    +0.000 S 
ATOM     27  C   UNL     1      51.877   3.246  17.766  0.00  0.00    +0.000 A 
ATOM     28  N   UNL     1      53.157   2.927  18.092  0.00  0.00    +0.000 NA
ATOM     29  C   UNL     1      53.942   3.941  18.240  0.00  0.00    +0.000 A 
ATOM     30  N   UNL     1      53.561   5.247  18.100  0.00  0.00    +0.000 N 
ATOM     31  C   UNL     1      52.290   5.618  17.750  0.00  0.00    +0.000 A 
ATOM     32  O   UNL     1      51.986   6.799  17.601  0.00  0.00    +0.000 OA
ATOM     33  C   UNL     1      51.368   4.513  17.564  0.00  0.00    +0.000 A 
ATOM     34  H   UNL     1      54.238   5.997  18.221  0.00  0.00    +0.000 HD
ENDBRANCH  21  24
ENDBRANCH  19  20
ENDBRANCH   5  19
TORSDOF 7
ENDMDL
MODEL 5
REMARK VINA RESULT:    -6.850      2.478      3.241
REMARK INTER + INTRA:         -11.050
REMARK INTER:                 -10.187
REMARK INTRA:                  -0.863
REMARK UNBOUND:                -1.396
REMARK  Name = 
REMARK  8 active torsions:
REMARK  status: ('A' for Active; 'I' for Inactive)
REMARK    1  A    between atoms: C_1  and  C_2
REMARK    2  A    between atoms: C_2  and  C_3
REMARK    3  A    between atoms: C_3  and  C_4
REMARK    4  A    between atoms: C_3  and  N_11
REMARK    5  A    between atoms: C_4  and  C_5
REMARK    6  A    between atoms: C_15  and  C_16
REMARK    7  A    between atoms: C_16  and  N_17
REMARK    8  A    between atoms: C_18  and  C_20
REMARK                            x       y       z     vdW  Elec       q    Type
REMARK                         _______ _______ _______ _____ _____    ______ ____
ROOT
ATOM      1  N   UNL     1      46.642   6.500  11.816  0.00  0.00    +0.000 N 
ATOM      2  C   UNL     1      47.324   6.709  13.030  0.00  0.00    +0.000 A 
ATOM      3  C   UNL     1      47.815   7.991  13.287  0.00  0.00    +0.000 A 
ATOM      4  C   UNL     1      48.530   8.245  14.458  0.00  0.00    +0.000 A 
ATOM      5  C   UNL     1      48.775   7.206  15.352  0.00  0.00    +0.000 A 
ATOM      6  C   UNL     1      48.301   5.951  14.991  0.00  0.00    +0.000 A 
ATOM      7  N   UNL     1      47.578   5.690  13.870  0.00  0.00    +0.000 NA
ATOM      8  H   UNL     1      46.166   7.363  11.580  0.00  0.00    +0.000 HD
ENDROOT
BRANCH   1   9
ATOM      9  C   UNL     1      45.723   5.337  11.755  0.00  0.00    +0.000 C 
BRANCH   9  11
ATOM     10  C   UNL     1      43.410   4.709  12.708  0.00  0.00    +0.000 C 
ATOM     11  C   UNL     1      44.733   5.445  12.946  0.00  0.00    +0.000 C 
ENDBRANCH   9  11
BRANCH   9  12
ATOM     12  C   UNL     1      44.964   5.341  10.405  0.00  0.00    +0.000 C 
BRANCH  12  13
ATOM     13  C   UNL     1      45.255   4.237   9.402  0.00  0.00    +0.000 A 
ATOM     14  C   UNL     1      45.982   4.519   8.235  0.00  0.00    +0.000 A 
ATOM     15  C   UNL     1      46.446   3.490   7.409  0.00  0.00    +0.000 A 
ATOM     16  C   UNL     1      46.181   2.163   7.736  0.00  0.00    +0.000 A 
ATOM     17  C   UNL     1      45.419   1.869   8.864  0.00  0.00    +0.000 A 
ATOM     18  C   UNL     1      44.951   2.899   9.690  0.00  0.00    +0.000 A 
ENDBRANCH  12  13
ENDBRANCH   9  12
ENDBRANCH   1   9
BRANCH   5  19
ATOM     19  C   UNL     1      49.551   7.428  16.618  0.00  0.00    +0.000 C 
BRANCH  19  20
ATOM     20  N   UNL     1      50.459   6.339  16.872  0.00  0.00    +0.000 N 
ATOM     21  C   UNL     1      51.009   6.124  18.111  0.00  0.00    +0.000 C 
ATOM     22  O   UNL     1      50.718   6.818  19.083  0.00  0.00    +0.000 OA
ATOM     23  H   UNL     1      50.908   5.923  16.062  0.00  0.00    +0.000 HD
BRANCH  21  24
ATOM     24  C   UNL     1      51.911   4.971  18.224  0.00  0.00    +0.000 A 
ATOM     25  C   UNL     1      53.206   5.143  18.698  0.00  0.00    +0.000 A 
ATOM     26  S   UNL     1      54.076   3.682  18.850  0.00  0.00    +0.000 S 
ATOM     27  C   UNL     1      52.776   2.780  18.224  0.00  0.00    +0.000 A 
ATOM     28  N   UNL     1      52.864   1.432  18.074  0.00  0.00    +0.000 NA
ATOM     29  C   UNL     1      51.814   0.879  17.567  0.00  0.00    +0.000 A 
ATOM     30  N   UNL     1      50.685   1.552  17.188  0.00  0.00    +0.000 N 
ATOM     31  C   UNL     1      50.540   2.906  17.339  0.00  0.00    +0.000 A 
ATOM     32  O   UNL     1      49.502   3.478  17.018  0.00  0.00    +0.000 OA
ATOM     33  C   UNL     1      51.692   3.576  17.914  0.00  0.00    +0.000 A 
ATOM     34  H   UNL     1      49.889   1.049  16.804  0.00  0.00    +0.000 HD
ENDBRANCH  21  24
ENDBRANCH  19  20
ENDBRANCH   5  19
TORSDOF 7
ENDMDL
MODEL 6
REMARK VINA RESULT:    -6.660      2.064      3.384
REMARK INTER + INTRA:         -10.782
REMARK INTER:                  -9.880
REMARK INTRA:                  -0.901
REMARK UNBOUND:                -1.396
REMARK  Name = 
REMARK  8 active torsions:
REMARK  status: ('A' for Active; 'I' for Inactive)
REMARK    1  A    between atoms: C_1  and  C_2
REMARK    2  A    between atoms: C_2  and  C_3
REMARK    3  A    between atoms: C_3  and  C_4
REMARK    4  A    between atoms: C_3  and  N_11
REMARK    5  A    between atoms: C_4  and  C_5
REMARK    6  A    between atoms: C_15  and  C_16
REMARK    7  A    between atoms: C_16  and  N_17
REMARK    8  A    between atoms: C_18  and  C_20
REMARK                            x       y       z     vdW  Elec       q    Type
REMARK                         _______ _______ _______ _____ _____    ______ ____
ROOT
ATOM      1  N   UNL     1      45.703   5.377  10.980  0.00  0.00    +0.000 N 
ATOM      2  C   UNL     1      46.096   5.068  12.295  0.00  0.00    +0.000 A 
ATOM      3  C   UNL     1      46.866   6.008  12.982  0.00  0.00    +0.000 A 
ATOM      4  C   UNL     1      47.314   5.737  14.276  0.00  0.00    +0.000 A 
ATOM      5  C   UNL     1      47.011   4.512  14.864  0.00  0.00    +0.000 A 
ATOM      6  C   UNL     1      46.290   3.612  14.090  0.00  0.00    +0.000 A 
ATOM      7  N   UNL     1      45.821   3.869  12.840  0.00  0.00    +0.000 NA
ATOM      8  H   UNL     1      45.579   6.382  10.926  0.00  0.00    +0.000 HD
ENDROOT
BRANCH   1   9
ATOM      9  C   UNL     1      44.525   4.653  10.444  0.00  0.00    +0.000 C 
BRANCH   9  11
ATOM     10  C   UNL     1      42.532   4.994  12.045  0.00  0.00    +0.000 C 
ATOM     11  C   UNL     1      43.256   5.480  10.785  0.00  0.00    +0.000 C 
ENDBRANCH   9  11
BRANCH   9  12
ATOM     12  C   UNL     1      44.672   4.476   8.911  0.00  0.00    +0.000 C 
BRANCH  12  13
ATOM     13  C   UNL     1      45.662   3.449   8.388  0.00  0.00    +0.000 A 
ATOM     14  C   UNL     1      45.523   2.096   8.733  0.00  0.00    +0.000 A 
ATOM     15  C   UNL     1      46.283   1.109   8.099  0.00  0.00    +0.000 A 
ATOM     16  C   UNL     1      47.202   1.464   7.114  0.00  0.00    +0.000 A 
ATOM     17  C   UNL     1      47.387   2.807   6.795  0.00  0.00    +0.000 A 
ATOM     18  C   UNL     1      46.628   3.796   7.432  0.00  0.00    +0.000 A 
ENDBRANCH  12  13
ENDBRANCH   9  12
ENDBRANCH   1   9
BRANCH   5  19
ATOM     19  C   UNL     1      47.482   4.170  16.248  0.00  0.00    +0.000 C 
BRANCH  19  20
ATOM     20  N   UNL     1      48.706   4.857  16.569  0.00  0.00    +0.000 N 
ATOM     21  C   UNL     1      48.771   5.803  17.562  0.00  0.00    +0.000 C 
ATOM     22  O   UNL     1      47.801   6.079  18.264  0.00  0.00    +0.000 OA
ATOM     23  H   UNL     1      49.433   4.844  15.861  0.00  0.00    +0.000 HD
BRANCH  21  24
ATOM     24  C   UNL     1      50.087   6.414  17.784  0.00  0.00    +0.000 A 
ATOM     25  C   UNL     1      50.608   6.499  19.071  0.00  0.00    +0.000 A 
ATOM     26  S   UNL     1      52.184   7.151  19.127  0.00  0.00    +0.000 S 
ATOM     27  C   UNL     1      52.197   7.404  17.444  0.00  0.00    +0.000 A 
ATOM     28  N   UNL     1      53.274   7.956  16.825  0.00  0.00    +0.000 NA
ATOM     29  C   UNL     1      53.139   8.111  15.551  0.00  0.00    +0.000 A 
ATOM     30  N   UNL     1      52.021   7.772  14.839  0.00  0.00    +0.000 N 
ATOM     31  C   UNL     1      50.921   7.193  15.413  0.00  0.00    +0.000 A 
ATOM     32  O   UNL     1      49.943   6.870  14.742  0.00  0.00    +0.000 OA
ATOM     33  C   UNL     1      51.024   6.989  16.846  0.00  0.00    +0.000 A 
ATOM     34  H   UNL     1      51.989   7.913  13.832  0.00  0.00    +0.000 HD
ENDBRANCH  21  24
ENDBRANCH  19  20
ENDBRANCH   5  19
TORSDOF 7
ENDMDL
MODEL 7
REMARK VINA RESULT:    -6.630      3.864      9.196
REMARK INTER + INTRA:         -10.739
REMARK INTER:                  -9.480
REMARK INTRA:                  -1.259
REMARK UNBOUND:                -1.396
REMARK  Name = 
REMARK  8 active torsions:
REMARK  status: ('A' for Active; 'I' for Inactive)
REMARK    1  A    between atoms: C_1  and  C_2
REMARK    2  A    between atoms: C_2  and  C_3
REMARK    3  A    between atoms: C_3  and  C_4
REMARK    4  A    between atoms: C_3  and  N_11
REMARK    5  A    between atoms: C_4  and  C_5
REMARK    6  A    between atoms: C_15  and  C_16
REMARK    7  A    between atoms: C_16  and  N_17
REMARK    8  A    between atoms: C_18  and  C_20
REMARK                            x       y       z     vdW  Elec       q    Type
REMARK                         _______ _______ _______ _____ _____    ______ ____
ROOT
ATOM      1  N   UNL     1      52.754   3.198  17.795  0.00  0.00    +0.000 N 
ATOM      2  C   UNL     1      51.361   3.267  17.599  0.00  0.00    +0.000 A 
ATOM      3  C   UNL     1      50.691   2.086  17.276  0.00  0.00    +0.000 A 
ATOM      4  C   UNL     1      49.316   2.104  17.036  0.00  0.00    +0.000 A 
ATOM      5  C   UNL     1      48.626   3.312  17.093  0.00  0.00    +0.000 A 
ATOM      6  C   UNL     1      49.379   4.447  17.365  0.00  0.00    +0.000 A 
ATOM      7  N   UNL     1      50.712   4.444  17.630  0.00  0.00    +0.000 NA
ATOM      8  H   UNL     1      52.963   2.285  18.183  0.00  0.00    +0.000 HD
ENDROOT
BRANCH   1   9
ATOM      9  C   UNL     1      53.374   4.284  18.592  0.00  0.00    +0.000 C 
BRANCH   9  11
ATOM     10  C   UNL     1      54.620   2.388  19.820  0.00  0.00    +0.000 C 
ATOM     11  C   UNL     1      53.817   3.687  19.955  0.00  0.00    +0.000 C 
ENDBRANCH   9  11
BRANCH   9  12
ATOM     12  C   UNL     1      54.587   4.869  17.826  0.00  0.00    +0.000 C 
BRANCH  12  13
ATOM     13  C   UNL     1      54.330   5.707  16.585  0.00  0.00    +0.000 A 
ATOM     14  C   UNL     1      53.298   6.658  16.579  0.00  0.00    +0.000 A 
ATOM     15  C   UNL     1      53.178   7.584  15.538  0.00  0.00    +0.000 A 
ATOM     16  C   UNL     1      54.087   7.566  14.483  0.00  0.00    +0.000 A 
ATOM     17  C   UNL     1      55.087   6.597  14.450  0.00  0.00    +0.000 A 
ATOM     18  C   UNL     1      55.205   5.668  15.491  0.00  0.00    +0.000 A 
ENDBRANCH  12  13
ENDBRANCH   9  12
ENDBRANCH   1   9
BRANCH   5  19
ATOM     19  C   UNL     1      47.149   3.383  16.830  0.00  0.00    +0.000 C 
BRANCH  19  20
ATOM     20  N   UNL     1      46.839   4.407  15.865  0.00  0.00    +0.000 N 
ATOM     21  C   UNL     1      46.979   4.201  14.515  0.00  0.00    +0.000 C 
ATOM     22  O   UNL     1      47.326   3.116  14.054  0.00  0.00    +0.000 OA
ATOM     23  H   UNL     1      46.804   5.361  16.210  0.00  0.00    +0.000 HD
BRANCH  21  24
ATOM     24  C   UNL     1      46.617   5.331  13.650  0.00  0.00    +0.000 A 
ATOM     25  C   UNL     1      47.537   6.344  13.407  0.00  0.00    +0.000 A 
ATOM     26  S   UNL     1      46.977   7.523  12.307  0.00  0.00    +0.000 S 
ATOM     27  C   UNL     1      45.464   6.757  12.172  0.00  0.00    +0.000 A 
ATOM     28  N   UNL     1      44.487   7.266  11.377  0.00  0.00    +0.000 NA
ATOM     29  C   UNL     1      43.384   6.597  11.387  0.00  0.00    +0.000 A 
ATOM     30  N   UNL     1      43.164   5.468  12.128  0.00  0.00    +0.000 N 
ATOM     31  C   UNL     1      44.124   4.904  12.926  0.00  0.00    +0.000 A 
ATOM     32  O   UNL     1      43.907   3.871  13.556  0.00  0.00    +0.000 OA
ATOM     33  C   UNL     1      45.388   5.615  12.944  0.00  0.00    +0.000 A 
ATOM     34  H   UNL     1      42.270   4.984  12.078  0.00  0.00    +0.000 HD
ENDBRANCH  21  24
ENDBRANCH  19  20
ENDBRANCH   5  19
TORSDOF 7
ENDMDL
MODEL 8
REMARK VINA RESULT:    -6.510      2.148      2.655
REMARK INTER + INTRA:         -10.570
REMARK INTER:                  -9.887
REMARK INTRA:                  -0.683
REMARK UNBOUND:                -1.396
REMARK  Name = 
REMARK  8 active torsions:
REMARK  status: ('A' for Active; 'I' for Inactive)
REMARK    1  A    between atoms: C_1  and  C_2
REMARK    2  A    between atoms: C_2  and  C_3
REMARK    3  A    between atoms: C_3  and  C_4
REMARK    4  A    between atoms: C_3  and  N_11
REMARK    5  A    between atoms: C_4  and  C_5
REMARK    6  A    between atoms: C_15  and  C_16
REMARK    7  A    between atoms: C_16  and  N_17
REMARK    8  A    between atoms: C_18  and  C_20
REMARK                            x       y       z     vdW  Elec       q    Type
REMARK                         _______ _______ _______ _____ _____    ______ ____
ROOT
ATOM      1  N   UNL     1      45.903   5.819  10.961  0.00  0.00    +0.000 N 
ATOM      2  C   UNL     1      46.899   6.272  11.846  0.00  0.00    +0.000 A 
ATOM      3  C   UNL     1      47.578   7.446  11.514  0.00  0.00    +0.000 A 
ATOM      4  C   UNL     1      48.599   7.922  12.337  0.00  0.00    +0.000 A 
ATOM      5  C   UNL     1      48.955   7.202  13.474  0.00  0.00    +0.000 A 
ATOM      6  C   UNL     1      48.268   6.015  13.700  0.00  0.00    +0.000 A 
ATOM      7  N   UNL     1      47.252   5.552  12.926  0.00  0.00    +0.000 NA
ATOM      8  H   UNL     1      45.479   6.634  10.533  0.00  0.00    +0.000 HD
ENDROOT
BRANCH   1   9
ATOM      9  C   UNL     1      44.879   4.902  11.519  0.00  0.00    +0.000 C 
BRANCH   9  11
ATOM     10  C   UNL     1      42.452   5.496  12.163  0.00  0.00    +0.000 C 
ATOM     11  C   UNL     1      43.941   5.730  12.438  0.00  0.00    +0.000 C 
ENDBRANCH   9  11
BRANCH   9  12
ATOM     12  C   UNL     1      44.079   4.247  10.364  0.00  0.00    +0.000 C 
BRANCH  12  13
ATOM     13  C   UNL     1      44.844   3.533   9.261  0.00  0.00    +0.000 A 
ATOM     14  C   UNL     1      45.474   4.272   8.249  0.00  0.00    +0.000 A 
ATOM     15  C   UNL     1      46.355   3.659   7.353  0.00  0.00    +0.000 A 
ATOM     16  C   UNL     1      46.612   2.295   7.453  0.00  0.00    +0.000 A 
ATOM     17  C   UNL     1      45.957   1.538   8.421  0.00  0.00    +0.000 A 
ATOM     18  C   UNL     1      45.071   2.150   9.317  0.00  0.00    +0.000 A 
ENDBRANCH  12  13
ENDBRANCH   9  12
ENDBRANCH   1   9
BRANCH   5  19
ATOM     19  C   UNL     1      50.057   7.666  14.383  0.00  0.00    +0.000 C 
BRANCH  19  20
ATOM     20  N   UNL     1      49.633   7.667  15.759  0.00  0.00    +0.000 N 
ATOM     21  C   UNL     1      48.716   8.570  16.238  0.00  0.00    +0.000 C 
ATOM     22  O   UNL     1      48.169   9.393  15.507  0.00  0.00    +0.000 OA
ATOM     23  H   UNL     1      50.237   7.191  16.421  0.00  0.00    +0.000 HD
BRANCH  21  24
ATOM     24  C   UNL     1      48.372   8.445  17.660  0.00  0.00    +0.000 A 
ATOM     25  C   UNL     1      48.280   9.581  18.456  0.00  0.00    +0.000 A 
ATOM     26  S   UNL     1      47.779   9.254  20.055  0.00  0.00    +0.000 S 
ATOM     27  C   UNL     1      47.733   7.580  19.755  0.00  0.00    +0.000 A 
ATOM     28  N   UNL     1      47.383   6.701  20.731  0.00  0.00    +0.000 NA
ATOM     29  C   UNL     1      47.413   5.462  20.373  0.00  0.00    +0.000 A 
ATOM     30  N   UNL     1      47.770   5.019  19.129  0.00  0.00    +0.000 N 
ATOM     31  C   UNL     1      48.109   5.866  18.107  0.00  0.00    +0.000 A 
ATOM     32  O   UNL     1      48.395   5.439  16.990  0.00  0.00    +0.000 OA
ATOM     33  C   UNL     1      48.084   7.274  18.456  0.00  0.00    +0.000 A 
ATOM     34  H   UNL     1      47.761   4.025  18.913  0.00  0.00    +0.000 HD
ENDBRANCH  21  24
ENDBRANCH  19  20
ENDBRANCH   5  19
TORSDOF 7
ENDMDL
MODEL 9
REMARK VINA RESULT:    -6.234      3.723      5.575
REMARK INTER + INTRA:         -10.181
REMARK INTER:                  -9.134
REMARK INTRA:                  -1.048
REMARK UNBOUND:                -1.396
REMARK  Name = 
REMARK  8 active torsions:
REMARK  status: ('A' for Active; 'I' for Inactive)
REMARK    1  A    between atoms: C_1  and  C_2
REMARK    2  A    between atoms: C_2  and  C_3
REMARK    3  A    between atoms: C_3  and  C_4
REMARK    4  A    between atoms: C_3  and  N_11
REMARK    5  A    between atoms: C_4  and  C_5
REMARK    6  A    between atoms: C_15  and  C_16
REMARK    7  A    between atoms: C_16  and  N_17
REMARK    8  A    between atoms: C_18  and  C_20
REMARK                            x       y       z     vdW  Elec       q    Type
REMARK                         _______ _______ _______ _____ _____    ______ ____
ROOT
ATOM      1  N   UNL     1      44.025   8.036  12.015  0.00  0.00    +0.000 N 
ATOM      2  C   UNL     1      44.746   6.914  12.466  0.00  0.00    +0.000 A 
ATOM      3  C   UNL     1      44.023   5.769  12.803  0.00  0.00    +0.000 A 
ATOM      4  C   UNL     1      44.684   4.640  13.291  0.00  0.00    +0.000 A 
ATOM      5  C   UNL     1      46.064   4.676  13.465  0.00  0.00    +0.000 A 
ATOM      6  C   UNL     1      46.699   5.874  13.158  0.00  0.00    +0.000 A 
ATOM      7  N   UNL     1      46.076   6.972  12.656  0.00  0.00    +0.000 NA
ATOM      8  H   UNL     1      43.210   7.696  11.518  0.00  0.00    +0.000 HD
ENDROOT
BRANCH   1   9
ATOM      9  C   UNL     1      44.773   9.036  11.214  0.00  0.00    +0.000 C 
BRANCH   9  11
ATOM     10  C   UNL     1      43.441  11.211  10.828  0.00  0.00    +0.000 C 
ATOM     11  C   UNL     1      43.754   9.798  10.324  0.00  0.00    +0.000 C 
ENDBRANCH   9  11
BRANCH   9  12
ATOM     12  C   UNL     1      45.517  10.012  12.160  0.00  0.00    +0.000 C 
BRANCH  12  13
ATOM     13  C   UNL     1      46.919  10.463  11.785  0.00  0.00    +0.000 A 
ATOM     14  C   UNL     1      48.029   9.680  12.136  0.00  0.00    +0.000 A 
ATOM     15  C   UNL     1      49.299   9.959  11.622  0.00  0.00    +0.000 A 
ATOM     16  C   UNL     1      49.477  11.033  10.754  0.00  0.00    +0.000 A 
ATOM     17  C   UNL     1      48.395  11.849  10.435  0.00  0.00    +0.000 A 
ATOM     18  C   UNL     1      47.123  11.572  10.952  0.00  0.00    +0.000 A 
ENDBRANCH  12  13
ENDBRANCH   9  12
ENDBRANCH   1   9
BRANCH   5  19
ATOM     19  C   UNL     1      46.818   3.492  13.998  0.00  0.00    +0.000 C 
BRANCH  19  20
ATOM     20  N   UNL     1      47.808   3.894  14.963  0.00  0.00    +0.000 N 
ATOM     21  C   UNL     1      47.562   3.867  16.313  0.00  0.00    +0.000 C 
ATOM     22  O   UNL     1      46.502   3.449  16.774  0.00  0.00    +0.000 OA
ATOM     23  H   UNL     1      48.570   4.471  14.619  0.00  0.00    +0.000 HD
BRANCH  21  24
ATOM     24  C   UNL     1      48.669   4.296  17.178  0.00  0.00    +0.000 A 
ATOM     25  C   UNL     1      48.604   5.520  17.835  0.00  0.00    +0.000 A 
ATOM     26  S   UNL     1      49.932   5.810  18.868  0.00  0.00    +0.000 S 
ATOM     27  C   UNL     1      50.669   4.343  18.420  0.00  0.00    +0.000 A 
ATOM     28  N   UNL     1      51.868   3.971  18.942  0.00  0.00    +0.000 NA
ATOM     29  C   UNL     1      52.321   2.847  18.498  0.00  0.00    +0.000 A 
ATOM     30  N   UNL     1      51.688   2.063  17.572  0.00  0.00    +0.000 N 
ATOM     31  C   UNL     1      50.470   2.384  17.034  0.00  0.00    +0.000 A 
ATOM     32  O   UNL     1      49.912   1.644  16.226  0.00  0.00    +0.000 OA
ATOM     33  C   UNL     1      49.912   3.637  17.507  0.00  0.00    +0.000 A 
ATOM     34  H   UNL     1      52.100   1.182  17.274  0.00  0.00    +0.000 HD
ENDBRANCH  21  24
ENDBRANCH  19  20
ENDBRANCH   5  19
TORSDOF 7
ENDMDL
