MODEL 1
REMARK VINA RESULT:    -8.091      0.000      0.000
REMARK INTER + INTRA:         -11.320
REMARK INTER:                 -10.456
REMARK INTRA:                  -0.863
REMARK UNBOUND:                -0.863
REMARK  Name = 
REMARK  6 active torsions:
REMARK  status: ('A' for Active; 'I' for Inactive)
REMARK    1  A    between atoms: C_1  and  C_2
REMARK    2  A    between atoms: C_2  and  N_3
REMARK    3  A    between atoms: C_2  and  C_16
REMARK    4  A    between atoms: C_4  and  C_6
REMARK    5  A    between atoms: C_19  and  C_20
REMARK    6  A    between atoms: C_20  and  C_21
REMARK                            x       y       z     vdW  Elec       q    Type
REMARK                         _______ _______ _______ _____ _____    ______ ____
ROOT
ATOM      1  C   UNL     1      45.744   8.086  13.063  0.00  0.00    +0.000 C 
ATOM      2  C   UNL     1      46.609   6.830  12.906  0.00  0.00    +0.000 C 
ENDROOT
BRANCH   2   3
ATOM      3  C   UNL     1      46.015   5.913  11.846  0.00  0.00    +0.000 A 
ATOM      4  C   UNL     1      46.108   6.238  10.487  0.00  0.00    +0.000 A 
ATOM      5  C   UNL     1      45.640   5.353   9.510  0.00  0.00    +0.000 A 
ATOM      6  C   UNL     1      45.066   4.127   9.872  0.00  0.00    +0.000 A 
ATOM      7  C   UNL     1      44.932   3.822  11.232  0.00  0.00    +0.000 A 
ATOM      8  C   UNL     1      45.404   4.701  12.206  0.00  0.00    +0.000 A 
BRANCH   6   9
ATOM      9  C   UNL     1      44.610   3.146   8.820  0.00  0.00    +0.000 C 
BRANCH   9  10
ATOM     10  C   UNL     1      45.702   2.581   7.945  0.00  0.00    +0.000 A 
ATOM     11  C   UNL     1      46.140   3.258   6.801  0.00  0.00    +0.000 A 
ATOM     12  C   UNL     1      47.049   2.648   5.938  0.00  0.00    +0.000 A 
ATOM     13  C   UNL     1      47.506   1.380   6.254  0.00  0.00    +0.000 A 
ATOM     14  N   UNL     1      47.141   0.709   7.365  0.00  0.00    +0.000 NA
ATOM     15  C   UNL     1      46.251   1.323   8.180  0.00  0.00    +0.000 A 
ENDBRANCH   9  10
ENDBRANCH   6   9
ENDBRANCH   2   3
BRANCH   2  16
ATOM     16  N   UNL     1      46.754   6.084  14.149  0.00  0.00    +0.000 N 
ATOM     17  C   UNL     1      47.966   5.862  14.754  0.00  0.00    +0.000 C 
ATOM     18  O   UNL     1      49.016   6.321  14.318  0.00  0.00    +0.000 OA
ATOM     19  H   UNL     1      45.998   5.436  14.362  0.00  0.00    +0.000 HD
BRANCH  17  20
ATOM     20  C   UNL     1      47.937   5.100  16.006  0.00  0.00    +0.000 A 
ATOM     21  C   UNL     1      47.425   3.812  16.010  0.00  0.00    +0.000 A 
ATOM     22  S   UNL     1      47.459   3.066  17.543  0.00  0.00    +0.000 S 
ATOM     23  C   UNL     1      48.121   4.460  18.262  0.00  0.00    +0.000 A 
ATOM     24  N   UNL     1      48.359   4.509  19.601  0.00  0.00    +0.000 NA
ATOM     25  C   UNL     1      48.833   5.639  20.015  0.00  0.00    +0.000 A 
ATOM     26  N   UNL     1      49.105   6.715  19.211  0.00  0.00    +0.000 N 
ATOM     27  C   UNL     1      48.916   6.697  17.847  0.00  0.00    +0.000 A 
ATOM     28  O   UNL     1      49.228   7.647  17.142  0.00  0.00    +0.000 OA
ATOM     29  C   UNL     1      48.349   5.463  17.339  0.00  0.00    +0.000 A 
ATOM     30  H   UNL     1      49.501   7.561  19.595  0.00  0.00    +0.000 HD
ENDBRANCH  17  20
ENDBRANCH   2  16
TORSDOF 5
ENDMDL
MODEL 2
REMARK VINA RESULT:    -7.925      1.985      2.562
REMARK INTER + INTRA:         -11.105
REMARK INTER:                 -11.304
REMARK INTRA:                   0.199
REMARK UNBOUND:                -0.863
REMARK  Name = 
REMARK  6 active torsions:
REMARK  status: ('A' for Active; 'I' for Inactive)
REMARK    1  A    between atoms: C_1  and  C_2
REMARK    2  A    between atoms: C_2  and  N_3
REMARK    3  A    between atoms: C_2  and  C_16
REMARK    4  A    between atoms: C_4  and  C_6
REMARK    5  A    between atoms: C_19  and  C_20
REMARK    6  A    between atoms: C_20  and  C_21
REMARK                            x       y       z     vdW  Elec       q    Type
REMARK                         _______ _______ _______ _____ _____    ______ ____
ROOT
ATOM      1  C   UNL     1      43.446   4.155  13.307  0.00  0.00    +0.000 C 
ATOM      2  C   UNL     1      44.162   5.388  12.744  0.00  0.00    +0.000 C 
ENDROOT
BRANCH   2   3
ATOM      3  C   UNL     1      44.596   5.133  11.307  0.00  0.00    +0.000 A 
ATOM      4  C   UNL     1      45.640   5.871  10.734  0.00  0.00    +0.000 A 
ATOM      5  C   UNL     1      46.096   5.577   9.445  0.00  0.00    +0.000 A 
ATOM      6  C   UNL     1      45.514   4.543   8.700  0.00  0.00    +0.000 A 
ATOM      7  C   UNL     1      44.441   3.835   9.254  0.00  0.00    +0.000 A 
ATOM      8  C   UNL     1      43.990   4.123  10.543  0.00  0.00    +0.000 A 
BRANCH   6   9
ATOM      9  C   UNL     1      46.039   4.186   7.330  0.00  0.00    +0.000 C 
BRANCH   9  10
ATOM     10  C   UNL     1      46.513   2.762   7.169  0.00  0.00    +0.000 A 
ATOM     11  C   UNL     1      47.146   2.336   5.996  0.00  0.00    +0.000 A 
ATOM     12  C   UNL     1      47.447   0.987   5.821  0.00  0.00    +0.000 A 
ATOM     13  C   UNL     1      47.120   0.103   6.834  0.00  0.00    +0.000 A 
ATOM     14  N   UNL     1      46.547   0.477   7.996  0.00  0.00    +0.000 NA
ATOM     15  C   UNL     1      46.259   1.792   8.135  0.00  0.00    +0.000 A 
ENDBRANCH   9  10
ENDBRANCH   6   9
ENDBRANCH   2   3
BRANCH   2  16
ATOM     16  N   UNL     1      45.328   5.772  13.528  0.00  0.00    +0.000 N 
ATOM     17  C   UNL     1      46.270   4.872  13.961  0.00  0.00    +0.000 C 
ATOM     18  O   UNL     1      46.227   3.680  13.677  0.00  0.00    +0.000 OA
ATOM     19  H   UNL     1      45.242   6.645  14.044  0.00  0.00    +0.000 HD
BRANCH  17  20
ATOM     20  C   UNL     1      47.389   5.423  14.732  0.00  0.00    +0.000 A 
ATOM     21  C   UNL     1      48.148   6.451  14.195  0.00  0.00    +0.000 A 
ATOM     22  S   UNL     1      49.412   6.973  15.214  0.00  0.00    +0.000 S 
ATOM     23  C   UNL     1      49.012   5.811  16.391  0.00  0.00    +0.000 A 
ATOM     24  N   UNL     1      49.751   5.685  17.527  0.00  0.00    +0.000 NA
ATOM     25  C   UNL     1      49.353   4.740  18.316  0.00  0.00    +0.000 A 
ATOM     26  N   UNL     1      48.276   3.926  18.081  0.00  0.00    +0.000 N 
ATOM     27  C   UNL     1      47.478   4.043  16.965  0.00  0.00    +0.000 A 
ATOM     28  O   UNL     1      46.484   3.346  16.809  0.00  0.00    +0.000 OA
ATOM     29  C   UNL     1      47.907   5.063  16.029  0.00  0.00    +0.000 A 
ATOM     30  H   UNL     1      48.001   3.224  18.754  0.00  0.00    +0.000 HD
ENDBRANCH  17  20
ENDBRANCH   2  16
TORSDOF 5
ENDMDL
MODEL 3
REMARK VINA RESULT:    -7.849      3.222      4.272
REMARK INTER + INTRA:         -11.007
REMARK INTER:                  -9.850
REMARK INTRA:                  -1.156
REMARK UNBOUND:                -0.863
REMARK  Name = 
REMARK  6 active torsions:
REMARK  status: ('A' for Active; 'I' for Inactive)
REMARK    1  A    between atoms: C_1  and  C_2
REMARK    2  A    between atoms: C_2  and  N_3
REMARK    3  A    between atoms: C_2  and  C_16
REMARK    4  A    between atoms: C_4  and  C_6
REMARK    5  A    between atoms: C_19  and  C_20
REMARK    6  A    between atoms: C_20  and  C_21
REMARK                            x       y       z     vdW  Elec       q    Type
REMARK                         _______ _______ _______ _____ _____    ______ ____
ROOT
ATOM      1  C   UNL     1      46.579   4.729  14.395  0.00  0.00    +0.000 C 
ATOM      2  C   UNL     1      46.234   5.824  13.380  0.00  0.00    +0.000 C 
ENDROOT
BRANCH   2   3
ATOM      3  C   UNL     1      45.740   5.201  12.082  0.00  0.00    +0.000 A 
ATOM      4  C   UNL     1      45.905   5.867  10.861  0.00  0.00    +0.000 A 
ATOM      5  C   UNL     1      45.530   5.256   9.660  0.00  0.00    +0.000 A 
ATOM      6  C   UNL     1      44.978   3.969   9.655  0.00  0.00    +0.000 A 
ATOM      7  C   UNL     1      44.770   3.320  10.879  0.00  0.00    +0.000 A 
ATOM      8  C   UNL     1      45.150   3.927  12.076  0.00  0.00    +0.000 A 
BRANCH   6   9
ATOM      9  C   UNL     1      44.622   3.284   8.358  0.00  0.00    +0.000 C 
BRANCH   9  10
ATOM     10  C   UNL     1      45.782   2.672   7.610  0.00  0.00    +0.000 A 
ATOM     11  C   UNL     1      46.304   3.275   6.460  0.00  0.00    +0.000 A 
ATOM     12  C   UNL     1      47.279   2.618   5.713  0.00  0.00    +0.000 A 
ATOM     13  C   UNL     1      47.718   1.379   6.148  0.00  0.00    +0.000 A 
ATOM     14  N   UNL     1      47.272   0.781   7.272  0.00  0.00    +0.000 NA
ATOM     15  C   UNL     1      46.318   1.440   7.972  0.00  0.00    +0.000 A 
ENDBRANCH   9  10
ENDBRANCH   6   9
ENDBRANCH   2   3
BRANCH   2  16
ATOM     16  N   UNL     1      47.361   6.697  13.085  0.00  0.00    +0.000 N 
ATOM     17  C   UNL     1      47.286   8.067  13.144  0.00  0.00    +0.000 C 
ATOM     18  O   UNL     1      46.273   8.658  13.501  0.00  0.00    +0.000 OA
ATOM     19  H   UNL     1      48.086   6.293  12.495  0.00  0.00    +0.000 HD
BRANCH  17  20
ATOM     20  C   UNL     1      48.515   8.801  12.826  0.00  0.00    +0.000 A 
ATOM     21  C   UNL     1      48.469   9.850  11.921  0.00  0.00    +0.000 A 
ATOM     22  S   UNL     1      49.981  10.593  11.658  0.00  0.00    +0.000 S 
ATOM     23  C   UNL     1      50.756   9.506  12.714  0.00  0.00    +0.000 A 
ATOM     24  N   UNL     1      52.102   9.562  12.909  0.00  0.00    +0.000 NA
ATOM     25  C   UNL     1      52.560   8.656  13.711  0.00  0.00    +0.000 A 
ATOM     26  N   UNL     1      51.794   7.714  14.347  0.00  0.00    +0.000 N 
ATOM     27  C   UNL     1      50.425   7.645  14.209  0.00  0.00    +0.000 A 
ATOM     28  O   UNL     1      49.755   6.836  14.837  0.00  0.00    +0.000 OA
ATOM     29  C   UNL     1      49.868   8.616  13.288  0.00  0.00    +0.000 A 
ATOM     30  H   UNL     1      52.212   7.051  14.984  0.00  0.00    +0.000 HD
ENDBRANCH  17  20
ENDBRANCH   2  16
TORSDOF 5
ENDMDL
MODEL 4
REMARK VINA RESULT:    -7.572      3.506      8.305
REMARK INTER + INTRA:         -10.648
REMARK INTER:                  -9.509
REMARK INTRA:                  -1.140
REMARK UNBOUND:                -0.863
REMARK  Name = 
REMARK  6 active torsions:
REMARK  status: ('A' for Active; 'I' for Inactive)
REMARK    1  A    between atoms: C_1  and  C_2
REMARK    2  A    between atoms: C_2  and  N_3
REMARK    3  A    between atoms: C_2  and  C_16
REMARK    4  A    between atoms: C_4  and  C_6
REMARK    5  A    between atoms: C_19  and  C_20
REMARK    6  A    between atoms: C_20  and  C_21
REMARK                            x       y       z     vdW  Elec       q    Type
REMARK                         _______ _______ _______ _____ _____    ______ ____
ROOT
ATOM      1  C   UNL     1      49.501   7.800  12.459  0.00  0.00    +0.000 C 
ATOM      2  C   UNL     1      48.235   7.328  13.184  0.00  0.00    +0.000 C 
ENDROOT
BRANCH   2   3
ATOM      3  C   UNL     1      48.598   6.725  14.535  0.00  0.00    +0.000 A 
ATOM      4  C   UNL     1      47.808   5.718  15.102  0.00  0.00    +0.000 A 
ATOM      5  C   UNL     1      48.189   5.104  16.300  0.00  0.00    +0.000 A 
ATOM      6  C   UNL     1      49.366   5.488  16.957  0.00  0.00    +0.000 A 
ATOM      7  C   UNL     1      50.132   6.526  16.414  0.00  0.00    +0.000 A 
ATOM      8  C   UNL     1      49.755   7.134  15.216  0.00  0.00    +0.000 A 
BRANCH   6   9
ATOM      9  C   UNL     1      49.810   4.791  18.220  0.00  0.00    +0.000 C 
BRANCH   9  10
ATOM     10  C   UNL     1      50.653   3.556  18.016  0.00  0.00    +0.000 A 
ATOM     11  C   UNL     1      52.005   3.532  18.375  0.00  0.00    +0.000 A 
ATOM     12  C   UNL     1      52.791   2.429  18.047  0.00  0.00    +0.000 A 
ATOM     13  C   UNL     1      52.195   1.371  17.383  0.00  0.00    +0.000 A 
ATOM     14  N   UNL     1      50.888   1.335  17.056  0.00  0.00    +0.000 NA
ATOM     15  C   UNL     1      50.151   2.425  17.379  0.00  0.00    +0.000 A 
ENDBRANCH   9  10
ENDBRANCH   6   9
ENDBRANCH   2   3
BRANCH   2  16
ATOM     16  N   UNL     1      47.476   6.349  12.419  0.00  0.00    +0.000 N 
ATOM     17  C   UNL     1      46.375   6.675  11.667  0.00  0.00    +0.000 C 
ATOM     18  O   UNL     1      45.977   7.828  11.542  0.00  0.00    +0.000 OA
ATOM     19  H   UNL     1      47.559   5.385  12.736  0.00  0.00    +0.000 HD
BRANCH  17  20
ATOM     20  C   UNL     1      45.729   5.572  10.948  0.00  0.00    +0.000 A 
ATOM     21  C   UNL     1      45.806   5.520   9.565  0.00  0.00    +0.000 A 
ATOM     22  S   UNL     1      44.999   4.180   8.885  0.00  0.00    +0.000 S 
ATOM     23  C   UNL     1      44.482   3.649  10.417  0.00  0.00    +0.000 A 
ATOM     24  N   UNL     1      43.689   2.550  10.544  0.00  0.00    +0.000 NA
ATOM     25  C   UNL     1      43.347   2.281  11.762  0.00  0.00    +0.000 A 
ATOM     26  N   UNL     1      43.738   2.998  12.862  0.00  0.00    +0.000 N 
ATOM     27  C   UNL     1      44.571   4.093  12.784  0.00  0.00    +0.000 A 
ATOM     28  O   UNL     1      44.960   4.678  13.786  0.00  0.00    +0.000 OA
ATOM     29  C   UNL     1      44.951   4.459  11.434  0.00  0.00    +0.000 A 
ATOM     30  H   UNL     1      43.457   2.717  13.790  0.00  0.00    +0.000 HD
ENDBRANCH  17  20
ENDBRANCH   2  16
TORSDOF 5
ENDMDL
MODEL 5
REMARK VINA RESULT:    -7.522      1.632      2.262
REMARK INTER + INTRA:         -10.584
REMARK INTER:                  -9.358
REMARK INTRA:                  -1.226
REMARK UNBOUND:                -0.863
REMARK  Name = 
REMARK  6 active torsions:
REMARK  status: ('A' for Active; 'I' for Inactive)
REMARK    1  A    between atoms: C_1  and  C_2
REMARK    2  A    between atoms: C_2  and  N_3
REMARK    3  A    between atoms: C_2  and  C_16
REMARK    4  A    between atoms: C_4  and  C_6
REMARK    5  A    between atoms: C_19  and  C_20
REMARK    6  A    between atoms: C_20  and  C_21
REMARK                            x       y       z     vdW  Elec       q    Type
REMARK                         _______ _______ _______ _____ _____    ______ ____
ROOT
ATOM      1  C   UNL     1      47.861   8.814  13.976  0.00  0.00    +0.000 C 
ATOM      2  C   UNL     1      48.060   7.296  14.054  0.00  0.00    +0.000 C 
ENDROOT
BRANCH   2   3
ATOM      3  C   UNL     1      47.009   6.585  13.212  0.00  0.00    +0.000 A 
ATOM      4  C   UNL     1      46.303   7.274  12.219  0.00  0.00    +0.000 A 
ATOM      5  C   UNL     1      45.402   6.601  11.388  0.00  0.00    +0.000 A 
ATOM      6  C   UNL     1      45.185   5.224  11.537  0.00  0.00    +0.000 A 
ATOM      7  C   UNL     1      45.856   4.543  12.560  0.00  0.00    +0.000 A 
ATOM      8  C   UNL     1      46.760   5.214  13.384  0.00  0.00    +0.000 A 
BRANCH   6   9
ATOM      9  C   UNL     1      44.255   4.483  10.607  0.00  0.00    +0.000 C 
BRANCH   9  10
ATOM     10  C   UNL     1      44.923   3.759   9.464  0.00  0.00    +0.000 A 
ATOM     11  C   UNL     1      45.047   2.365   9.460  0.00  0.00    +0.000 A 
ATOM     12  C   UNL     1      45.790   1.736   8.463  0.00  0.00    +0.000 A 
ATOM     13  C   UNL     1      46.376   2.522   7.486  0.00  0.00    +0.000 A 
ATOM     14  N   UNL     1      46.247   3.863   7.429  0.00  0.00    +0.000 NA
ATOM     15  C   UNL     1      45.527   4.447   8.416  0.00  0.00    +0.000 A 
ENDBRANCH   9  10
ENDBRANCH   6   9
ENDBRANCH   2   3
BRANCH   2  16
ATOM     16  N   UNL     1      47.996   6.787  15.417  0.00  0.00    +0.000 N 
ATOM     17  C   UNL     1      49.105   6.387  16.121  0.00  0.00    +0.000 C 
ATOM     18  O   UNL     1      50.242   6.478  15.672  0.00  0.00    +0.000 OA
ATOM     19  H   UNL     1      47.097   6.400  15.700  0.00  0.00    +0.000 HD
BRANCH  17  20
ATOM     20  C   UNL     1      48.870   5.908  17.487  0.00  0.00    +0.000 A 
ATOM     21  C   UNL     1      49.124   4.580  17.798  0.00  0.00    +0.000 A 
ATOM     22  S   UNL     1      48.794   4.184  19.423  0.00  0.00    +0.000 S 
ATOM     23  C   UNL     1      48.259   5.765  19.754  0.00  0.00    +0.000 A 
ATOM     24  N   UNL     1      47.781   6.097  20.984  0.00  0.00    +0.000 NA
ATOM     25  C   UNL     1      47.380   7.323  21.085  0.00  0.00    +0.000 A 
ATOM     26  N   UNL     1      47.429   8.247  20.075  0.00  0.00    +0.000 N 
ATOM     27  C   UNL     1      47.940   7.966  18.827  0.00  0.00    +0.000 A 
ATOM     28  O   UNL     1      48.034   8.827  17.961  0.00  0.00    +0.000 OA
ATOM     29  C   UNL     1      48.368   6.593  18.652  0.00  0.00    +0.000 A 
ATOM     30  H   UNL     1      47.125   9.198  20.228  0.00  0.00    +0.000 HD
ENDBRANCH  17  20
ENDBRANCH   2  16
TORSDOF 5
ENDMDL
MODEL 6
REMARK VINA RESULT:    -7.472      3.481     10.154
REMARK INTER + INTRA:         -10.519
REMARK INTER:                  -9.282
REMARK INTRA:                  -1.238
REMARK UNBOUND:                -0.863
REMARK  Name = 
REMARK  6 active torsions:
REMARK  status: ('A' for Active; 'I' for Inactive)
REMARK    1  A    between atoms: C_1  and  C_2
REMARK    2  A    between atoms: C_2  and  N_3
REMARK    3  A    between atoms: C_2  and  C_16
REMARK    4  A    between atoms: C_4  and  C_6
REMARK    5  A    between atoms: C_19  and  C_20
REMARK    6  A    between atoms: C_20  and  C_21
REMARK                            x       y       z     vdW  Elec       q    Type
REMARK                         _______ _______ _______ _____ _____    ______ ____
ROOT
ATOM      1  C   UNL     1      47.585   3.093  16.955  0.00  0.00    +0.000 C 
ATOM      2  C   UNL     1      47.943   4.439  16.316  0.00  0.00    +0.000 C 
ENDROOT
BRANCH   2   3
ATOM      3  C   UNL     1      47.997   5.528  17.378  0.00  0.00    +0.000 A 
ATOM      4  C   UNL     1      47.221   5.431  18.540  0.00  0.00    +0.000 A 
ATOM      5  C   UNL     1      47.336   6.386  19.555  0.00  0.00    +0.000 A 
ATOM      6  C   UNL     1      48.226   7.461  19.427  0.00  0.00    +0.000 A 
ATOM      7  C   UNL     1      48.969   7.583  18.247  0.00  0.00    +0.000 A 
ATOM      8  C   UNL     1      48.859   6.626  17.237  0.00  0.00    +0.000 A 
BRANCH   6   9
ATOM      9  C   UNL     1      48.394   8.463  20.543  0.00  0.00    +0.000 C 
BRANCH   9  10
ATOM     10  C   UNL     1      47.224   9.391  20.762  0.00  0.00    +0.000 A 
ATOM     11  C   UNL     1      46.816  10.292  19.772  0.00  0.00    +0.000 A 
ATOM     12  C   UNL     1      45.825  11.230  20.052  0.00  0.00    +0.000 A 
ATOM     13  C   UNL     1      45.257  11.229  21.315  0.00  0.00    +0.000 A 
ATOM     14  N   UNL     1      45.591  10.353  22.284  0.00  0.00    +0.000 NA
ATOM     15  C   UNL     1      46.563   9.459  21.985  0.00  0.00    +0.000 A 
ENDBRANCH   9  10
ENDBRANCH   6   9
ENDBRANCH   2   3
BRANCH   2  16
ATOM     16  N   UNL     1      47.003   4.840  15.277  0.00  0.00    +0.000 N 
ATOM     17  C   UNL     1      47.379   5.530  14.152  0.00  0.00    +0.000 C 
ATOM     18  O   UNL     1      48.546   5.818  13.911  0.00  0.00    +0.000 OA
ATOM     19  H   UNL     1      46.031   4.914  15.570  0.00  0.00    +0.000 HD
BRANCH  17  20
ATOM     20  C   UNL     1      46.311   5.850  13.199  0.00  0.00    +0.000 A 
ATOM     21  C   UNL     1      46.047   7.175  12.888  0.00  0.00    +0.000 A 
ATOM     22  S   UNL     1      44.775   7.374  11.770  0.00  0.00    +0.000 S 
ATOM     23  C   UNL     1      44.506   5.695  11.698  0.00  0.00    +0.000 A 
ATOM     24  N   UNL     1      43.500   5.181  10.939  0.00  0.00    +0.000 NA
ATOM     25  C   UNL     1      43.392   3.894  11.004  0.00  0.00    +0.000 A 
ATOM     26  N   UNL     1      44.207   3.076  11.741  0.00  0.00    +0.000 N 
ATOM     27  C   UNL     1      45.261   3.549  12.492  0.00  0.00    +0.000 A 
ATOM     28  O   UNL     1      46.015   2.793  13.090  0.00  0.00    +0.000 OA
ATOM     29  C   UNL     1      45.400   4.991  12.484  0.00  0.00    +0.000 A 
ATOM     30  H   UNL     1      44.086   2.073  11.726  0.00  0.00    +0.000 HD
ENDBRANCH  17  20
ENDBRANCH   2  16
TORSDOF 5
ENDMDL
MODEL 7
REMARK VINA RESULT:    -7.444      3.239      4.856
REMARK INTER + INTRA:         -10.482
REMARK INTER:                 -10.452
REMARK INTRA:                  -0.031
REMARK UNBOUND:                -0.863
REMARK  Name = 
REMARK  6 active torsions:
REMARK  status: ('A' for Active; 'I' for Inactive)
REMARK    1  A    between atoms: C_1  and  C_2
REMARK    2  A    between atoms: C_2  and  N_3
REMARK    3  A    between atoms: C_2  and  C_16
REMARK    4  A    between atoms: C_4  and  C_6
REMARK    5  A    between atoms: C_19  and  C_20
REMARK    6  A    between atoms: C_20  and  C_21
REMARK                            x       y       z     vdW  Elec       q    Type
REMARK                         _______ _______ _______ _____ _____    ______ ____
ROOT
ATOM      1  C   UNL     1      46.989   4.425  14.278  0.00  0.00    +0.000 C 
ATOM      2  C   UNL     1      46.022   5.438  13.654  0.00  0.00    +0.000 C 
ENDROOT
BRANCH   2   3
ATOM      3  C   UNL     1      45.598   4.973  12.267  0.00  0.00    +0.000 A 
ATOM      4  C   UNL     1      45.792   5.792  11.149  0.00  0.00    +0.000 A 
ATOM      5  C   UNL     1      45.483   5.331   9.865  0.00  0.00    +0.000 A 
ATOM      6  C   UNL     1      44.968   4.042   9.675  0.00  0.00    +0.000 A 
ATOM      7  C   UNL     1      44.730   3.238  10.796  0.00  0.00    +0.000 A 
ATOM      8  C   UNL     1      45.045   3.697  12.076  0.00  0.00    +0.000 A 
BRANCH   6   9
ATOM      9  C   UNL     1      44.684   3.519   8.287  0.00  0.00    +0.000 C 
BRANCH   9  10
ATOM     10  C   UNL     1      45.837   2.817   7.611  0.00  0.00    +0.000 A 
ATOM     11  C   UNL     1      46.451   3.357   6.476  0.00  0.00    +0.000 A 
ATOM     12  C   UNL     1      47.418   2.620   5.793  0.00  0.00    +0.000 A 
ATOM     13  C   UNL     1      47.753   1.368   6.277  0.00  0.00    +0.000 A 
ATOM     14  N   UNL     1      47.216   0.828   7.389  0.00  0.00    +0.000 NA
ATOM     15  C   UNL     1      46.274   1.562   8.027  0.00  0.00    +0.000 A 
ENDBRANCH   9  10
ENDBRANCH   6   9
ENDBRANCH   2   3
BRANCH   2  16
ATOM     16  N   UNL     1      46.591   6.774  13.550  0.00  0.00    +0.000 N 
ATOM     17  C   UNL     1      47.892   7.009  13.179  0.00  0.00    +0.000 C 
ATOM     18  O   UNL     1      48.661   6.109  12.858  0.00  0.00    +0.000 OA
ATOM     19  H   UNL     1      46.122   7.495  14.095  0.00  0.00    +0.000 HD
BRANCH  17  20
ATOM     20  C   UNL     1      48.306   8.414  13.114  0.00  0.00    +0.000 A 
ATOM     21  C   UNL     1      49.576   8.772  13.540  0.00  0.00    +0.000 A 
ATOM     22  S   UNL     1      49.898  10.441  13.404  0.00  0.00    +0.000 S 
ATOM     23  C   UNL     1      48.332  10.747  12.811  0.00  0.00    +0.000 A 
ATOM     24  N   UNL     1      47.927  12.015  12.530  0.00  0.00    +0.000 NA
ATOM     25  C   UNL     1      46.704  12.102  12.118  0.00  0.00    +0.000 A 
ATOM     26  N   UNL     1      45.858  11.038  11.945  0.00  0.00    +0.000 N 
ATOM     27  C   UNL     1      46.238   9.735  12.180  0.00  0.00    +0.000 A 
ATOM     28  O   UNL     1      45.486   8.796  11.956  0.00  0.00    +0.000 OA
ATOM     29  C   UNL     1      47.589   9.588  12.681  0.00  0.00    +0.000 A 
ATOM     30  H   UNL     1      44.921  11.173  11.593  0.00  0.00    +0.000 HD
ENDBRANCH  17  20
ENDBRANCH   2  16
TORSDOF 5
ENDMDL
MODEL 8
REMARK VINA RESULT:    -7.437      2.008      2.980
REMARK INTER + INTRA:         -10.475
REMARK INTER:                  -9.623
REMARK INTRA:                  -0.852
REMARK UNBOUND:                -0.863
REMARK  Name = 
REMARK  6 active torsions:
REMARK  status: ('A' for Active; 'I' for Inactive)
REMARK    1  A    between atoms: C_1  and  C_2
REMARK    2  A    between atoms: C_2  and  N_3
REMARK    3  A    between atoms: C_2  and  C_16
REMARK    4  A    between atoms: C_4  and  C_6
REMARK    5  A    between atoms: C_19  and  C_20
REMARK    6  A    between atoms: C_20  and  C_21
REMARK                            x       y       z     vdW  Elec       q    Type
REMARK                         _______ _______ _______ _____ _____    ______ ____
ROOT
ATOM      1  C   UNL     1      49.463   8.176  13.516  0.00  0.00    +0.000 C 
ATOM      2  C   UNL     1      48.894   6.892  14.131  0.00  0.00    +0.000 C 
ENDROOT
BRANCH   2   3
ATOM      3  C   UNL     1      47.688   6.416  13.332  0.00  0.00    +0.000 A 
ATOM      4  C   UNL     1      47.239   7.138  12.219  0.00  0.00    +0.000 A 
ATOM      5  C   UNL     1      46.187   6.654  11.434  0.00  0.00    +0.000 A 
ATOM      6  C   UNL     1      45.559   5.442  11.750  0.00  0.00    +0.000 A 
ATOM      7  C   UNL     1      45.977   4.743  12.889  0.00  0.00    +0.000 A 
ATOM      8  C   UNL     1      47.031   5.222  13.667  0.00  0.00    +0.000 A 
BRANCH   6   9
ATOM      9  C   UNL     1      44.460   4.889  10.875  0.00  0.00    +0.000 C 
BRANCH   9  10
ATOM     10  C   UNL     1      44.922   4.053   9.706  0.00  0.00    +0.000 A 
ATOM     11  C   UNL     1      44.906   2.655   9.761  0.00  0.00    +0.000 A 
ATOM     12  C   UNL     1      45.466   1.913   8.724  0.00  0.00    +0.000 A 
ATOM     13  C   UNL     1      46.014   2.593   7.650  0.00  0.00    +0.000 A 
ATOM     14  N   UNL     1      46.014   3.937   7.537  0.00  0.00    +0.000 NA
ATOM     15  C   UNL     1      45.470   4.631   8.564  0.00  0.00    +0.000 A 
ENDBRANCH   9  10
ENDBRANCH   6   9
ENDBRANCH   2   3
BRANCH   2  16
ATOM     16  N   UNL     1      48.501   7.058  15.524  0.00  0.00    +0.000 N 
ATOM     17  C   UNL     1      49.227   6.550  16.573  0.00  0.00    +0.000 C 
ATOM     18  O   UNL     1      50.291   5.962  16.418  0.00  0.00    +0.000 OA
ATOM     19  H   UNL     1      47.512   7.238  15.682  0.00  0.00    +0.000 HD
BRANCH  17  20
ATOM     20  C   UNL     1      48.700   6.813  17.916  0.00  0.00    +0.000 A 
ATOM     21  C   UNL     1      48.291   8.096  18.250  0.00  0.00    +0.000 A 
ATOM     22  S   UNL     1      47.709   8.233  19.847  0.00  0.00    +0.000 S 
ATOM     23  C   UNL     1      48.027   6.591  20.159  0.00  0.00    +0.000 A 
ATOM     24  N   UNL     1      47.795   6.056  21.389  0.00  0.00    +0.000 NA
ATOM     25  C   UNL     1      48.112   4.806  21.492  0.00  0.00    +0.000 A 
ATOM     26  N   UNL     1      48.620   4.041  20.475  0.00  0.00    +0.000 N 
ATOM     27  C   UNL     1      48.834   4.530  19.205  0.00  0.00    +0.000 A 
ATOM     28  O   UNL     1      49.227   3.810  18.297  0.00  0.00    +0.000 OA
ATOM     29  C   UNL     1      48.531   5.938  19.049  0.00  0.00    +0.000 A 
ATOM     30  H   UNL     1      48.820   3.061  20.615  0.00  0.00    +0.000 HD
ENDBRANCH  17  20
ENDBRANCH   2  16
TORSDOF 5
ENDMDL
MODEL 9
REMARK VINA RESULT:    -6.995      3.222      8.778
REMARK INTER + INTRA:          -9.903
REMARK INTER:                  -8.979
REMARK INTRA:                  -0.923
REMARK UNBOUND:                -0.863
REMARK  Name = 
REMARK  6 active torsions:
REMARK  status: ('A' for Active; 'I' for Inactive)
REMARK    1  A    between atoms: C_1  and  C_2
REMARK    2  A    between atoms: C_2  and  N_3
REMARK    3  A    between atoms: C_2  and  C_16
REMARK    4  A    between atoms: C_4  and  C_6
REMARK    5  A    between atoms: C_19  and  C_20
REMARK    6  A    between atoms: C_20  and  C_21
REMARK                            x       y       z     vdW  Elec       q    Type
REMARK                         _______ _______ _______ _____ _____    ______ ____
ROOT
ATOM      1  C   UNL     1      48.993   7.660  11.629  0.00  0.00    +0.000 C 
ATOM      2  C   UNL     1      47.963   7.342  12.719  0.00  0.00    +0.000 C 
ENDROOT
BRANCH   2   3
ATOM      3  C   UNL     1      48.667   7.053  14.038  0.00  0.00    +0.000 A 
ATOM      4  C   UNL     1      48.072   6.227  14.999  0.00  0.00    +0.000 A 
ATOM      5  C   UNL     1      48.756   5.891  16.172  0.00  0.00    +0.000 A 
ATOM      6  C   UNL     1      50.047   6.380  16.410  0.00  0.00    +0.000 A 
ATOM      7  C   UNL     1      50.625   7.243  15.471  0.00  0.00    +0.000 A 
ATOM      8  C   UNL     1      49.945   7.572  14.298  0.00  0.00    +0.000 A 
BRANCH   6   9
ATOM      9  C   UNL     1      50.811   5.977  17.648  0.00  0.00    +0.000 C 
BRANCH   9  10
ATOM     10  C   UNL     1      51.439   4.606  17.604  0.00  0.00    +0.000 A 
ATOM     11  C   UNL     1      50.660   3.454  17.453  0.00  0.00    +0.000 A 
ATOM     12  C   UNL     1      51.251   2.196  17.555  0.00  0.00    +0.000 A 
ATOM     13  C   UNL     1      52.614   2.128  17.792  0.00  0.00    +0.000 A 
ATOM     14  N   UNL     1      53.408   3.212  17.903  0.00  0.00    +0.000 NA
ATOM     15  C   UNL     1      52.804   4.420  17.807  0.00  0.00    +0.000 A 
ENDBRANCH   9  10
ENDBRANCH   6   9
ENDBRANCH   2   3
BRANCH   2  16
ATOM     16  N   UNL     1      47.112   6.210  12.380  0.00  0.00    +0.000 N 
ATOM     17  C   UNL     1      45.848   6.350  11.865  0.00  0.00    +0.000 C 
ATOM     18  O   UNL     1      45.357   7.442  11.601  0.00  0.00    +0.000 OA
ATOM     19  H   UNL     1      47.328   5.339  12.862  0.00  0.00    +0.000 HD
BRANCH  17  20
ATOM     20  C   UNL     1      45.125   5.108  11.569  0.00  0.00    +0.000 A 
ATOM     21  C   UNL     1      44.402   4.483  12.574  0.00  0.00    +0.000 A 
ATOM     22  S   UNL     1      43.626   3.051  12.068  0.00  0.00    +0.000 S 
ATOM     23  C   UNL     1      44.268   3.196  10.499  0.00  0.00    +0.000 A 
ATOM     24  N   UNL     1      44.025   2.247   9.554  0.00  0.00    +0.000 NA
ATOM     25  C   UNL     1      44.601   2.470   8.418  0.00  0.00    +0.000 A 
ATOM     26  N   UNL     1      45.382   3.561   8.136  0.00  0.00    +0.000 N 
ATOM     27  C   UNL     1      45.623   4.564   9.049  0.00  0.00    +0.000 A 
ATOM     28  O   UNL     1      46.270   5.560   8.753  0.00  0.00    +0.000 OA
ATOM     29  C   UNL     1      45.030   4.341  10.352  0.00  0.00    +0.000 A 
ATOM     30  H   UNL     1      45.781   3.689   7.217  0.00  0.00    +0.000 HD
ENDBRANCH  17  20
ENDBRANCH   2  16
TORSDOF 5
ENDMDL
