MODEL 1
REMARK VINA RESULT:    -7.518      0.000      0.000
REMARK INTER + INTRA:         -11.821
REMARK INTER:                 -10.594
REMARK INTRA:                  -1.227
REMARK UNBOUND:                -1.227
REMARK  Name = 
REMARK  8 active torsions:
REMARK  status: ('A' for Active; 'I' for Inactive)
REMARK    1  A    between atoms: C_1  and  N_2
REMARK    2  A    between atoms: N_2  and  C_3
REMARK    3  A    between atoms: C_3  and  C_4
REMARK    4  A    between atoms: C_8  and  C_9
REMARK    5  A    between atoms: C_9  and  O_10
REMARK    6  A    between atoms: O_10  and  C_11
REMARK    7  A    between atoms: C_11  and  C_12
REMARK    8  A    between atoms: C_19  and  C_21
REMARK                            x       y       z     vdW  Elec       q    Type
REMARK                         _______ _______ _______ _____ _____    ______ ____
ROOT
ATOM      1  C   UNL     1      48.188   6.581  12.520  0.00  0.00    +0.000 C 
ENDROOT
BRANCH   1   2
ATOM      2  C   UNL     1      46.934   5.760  12.603  0.00  0.00    +0.000 A 
ATOM      3  C   UNL     1      46.624   5.058  13.766  0.00  0.00    +0.000 A 
ATOM      4  N   UNL     1      45.486   4.356  13.946  0.00  0.00    +0.000 NA
ATOM      5  C   UNL     1      44.618   4.329  12.915  0.00  0.00    +0.000 A 
ATOM      6  C   UNL     1      44.846   4.958  11.678  0.00  0.00    +0.000 A 
ATOM      7  C   UNL     1      46.025   5.674  11.537  0.00  0.00    +0.000 A 
BRANCH   6   8
ATOM      8  C   UNL     1      43.843   4.800  10.570  0.00  0.00    +0.000 C 
BRANCH   8   9
ATOM      9  O   UNL     1      44.210   3.686   9.763  0.00  0.00    +0.000 OA
BRANCH   9  10
ATOM     10  C   UNL     1      44.727   4.088   8.494  0.00  0.00    +0.000 C 
BRANCH  10  11
ATOM     11  C   UNL     1      45.736   3.095   8.018  0.00  0.00    +0.000 A 
ATOM     12  C   UNL     1      45.700   1.774   8.421  0.00  0.00    +0.000 A 
ATOM     13  N   UNL     1      46.580   0.835   8.019  0.00  0.00    +0.000 NA
ATOM     14  C   UNL     1      47.528   1.257   7.169  0.00  0.00    +0.000 A 
ATOM     15  N   UNL     1      47.655   2.501   6.685  0.00  0.00    +0.000 NA
ATOM     16  C   UNL     1      46.746   3.396   7.125  0.00  0.00    +0.000 A 
ENDBRANCH  10  11
ENDBRANCH   9  10
ENDBRANCH   8   9
ENDBRANCH   6   8
ENDBRANCH   1   2
BRANCH   1  18
ATOM     17  C   UNL     1      49.256   6.893  14.813  0.00  0.00    +0.000 C 
ATOM     18  N   UNL     1      48.466   7.414  13.696  0.00  0.00    +0.000 N 
ATOM     19  C   UNL     1      48.029   8.743  13.817  0.00  0.00    +0.000 C 
ATOM     20  O   UNL     1      48.001   9.318  14.902  0.00  0.00    +0.000 OA
BRANCH  19  21
ATOM     21  C   UNL     1      47.759   9.517  12.602  0.00  0.00    +0.000 A 
ATOM     22  C   UNL     1      48.744  10.125  11.842  0.00  0.00    +0.000 A 
ATOM     23  S   UNL     1      48.153  11.405  10.886  0.00  0.00    +0.000 S 
ATOM     24  C   UNL     1      46.555  11.087  11.372  0.00  0.00    +0.000 A 
ATOM     25  N   UNL     1      45.537  11.908  11.002  0.00  0.00    +0.000 NA
ATOM     26  C   UNL     1      44.372  11.502  11.387  0.00  0.00    +0.000 A 
ATOM     27  N   UNL     1      44.127  10.334  12.069  0.00  0.00    +0.000 N 
ATOM     28  C   UNL     1      45.129   9.460  12.451  0.00  0.00    +0.000 A 
ATOM     29  O   UNL     1      44.883   8.351  12.895  0.00  0.00    +0.000 OA
ATOM     30  C   UNL     1      46.465   9.949  12.145  0.00  0.00    +0.000 A 
ATOM     31  H   UNL     1      43.180  10.027  12.227  0.00  0.00    +0.000 HD
ENDBRANCH  19  21
ENDBRANCH   1  18
TORSDOF 7
ENDMDL
MODEL 2
REMARK VINA RESULT:    -7.368      2.740      4.464
REMARK INTER + INTRA:         -11.609
REMARK INTER:                 -10.435
REMARK INTRA:                  -1.174
REMARK UNBOUND:                -1.227
REMARK  Name = 
REMARK  8 active torsions:
REMARK  status: ('A' for Active; 'I' for Inactive)
REMARK    1  A    between atoms: C_1  and  N_2
REMARK    2  A    between atoms: N_2  and  C_3
REMARK    3  A    between atoms: C_3  and  C_4
REMARK    4  A    between atoms: C_8  and  C_9
REMARK    5  A    between atoms: C_9  and  O_10
REMARK    6  A    between atoms: O_10  and  C_11
REMARK    7  A    between atoms: C_11  and  C_12
REMARK    8  A    between atoms: C_19  and  C_21
REMARK                            x       y       z     vdW  Elec       q    Type
REMARK                         _______ _______ _______ _____ _____    ______ ____
ROOT
ATOM      1  C   UNL     1      46.680   7.235  13.403  0.00  0.00    +0.000 C 
ENDROOT
BRANCH   1   2
ATOM      2  C   UNL     1      46.128   5.925  12.922  0.00  0.00    +0.000 A 
ATOM      3  C   UNL     1      46.553   4.726  13.492  0.00  0.00    +0.000 A 
ATOM      4  N   UNL     1      46.056   3.515  13.166  0.00  0.00    +0.000 NA
ATOM      5  C   UNL     1      45.104   3.484  12.212  0.00  0.00    +0.000 A 
ATOM      6  C   UNL     1      44.633   4.622  11.533  0.00  0.00    +0.000 A 
ATOM      7  C   UNL     1      45.166   5.848  11.903  0.00  0.00    +0.000 A 
BRANCH   6   8
ATOM      8  C   UNL     1      43.623   4.463  10.433  0.00  0.00    +0.000 C 
BRANCH   8   9
ATOM      9  O   UNL     1      44.071   3.458   9.529  0.00  0.00    +0.000 OA
BRANCH   9  10
ATOM     10  C   UNL     1      44.835   4.002   8.454  0.00  0.00    +0.000 C 
BRANCH  10  11
ATOM     11  C   UNL     1      45.814   2.987   7.960  0.00  0.00    +0.000 A 
ATOM     12  C   UNL     1      46.833   3.323   7.091  0.00  0.00    +0.000 A 
ATOM     13  N   UNL     1      47.745   2.450   6.618  0.00  0.00    +0.000 NA
ATOM     14  C   UNL     1      47.618   1.188   7.056  0.00  0.00    +0.000 A 
ATOM     15  N   UNL     1      46.692   0.742   7.917  0.00  0.00    +0.000 NA
ATOM     16  C   UNL     1      45.806   1.662   8.353  0.00  0.00    +0.000 A 
ENDBRANCH  10  11
ENDBRANCH   9  10
ENDBRANCH   8   9
ENDBRANCH   6   8
ENDBRANCH   1   2
BRANCH   1  18
ATOM     17  C   UNL     1      48.536   7.616  11.698  0.00  0.00    +0.000 C 
ATOM     18  N   UNL     1      48.095   7.469  13.085  0.00  0.00    +0.000 N 
ATOM     19  C   UNL     1      49.091   7.591  14.067  0.00  0.00    +0.000 C 
ATOM     20  O   UNL     1      50.285   7.482  13.793  0.00  0.00    +0.000 OA
BRANCH  19  21
ATOM     21  C   UNL     1      48.715   8.025  15.415  0.00  0.00    +0.000 A 
ATOM     22  C   UNL     1      48.332   9.318  15.728  0.00  0.00    +0.000 A 
ATOM     23  S   UNL     1      48.530   9.690  17.379  0.00  0.00    +0.000 S 
ATOM     24  C   UNL     1      49.009   8.096  17.725  0.00  0.00    +0.000 A 
ATOM     25  N   UNL     1      49.444   7.752  18.966  0.00  0.00    +0.000 NA
ATOM     26  C   UNL     1      49.706   6.493  19.097  0.00  0.00    +0.000 A 
ATOM     27  N   UNL     1      49.534   5.543  18.118  0.00  0.00    +0.000 N 
ATOM     28  C   UNL     1      49.078   5.844  16.848  0.00  0.00    +0.000 A 
ATOM     29  O   UNL     1      48.764   4.974  16.052  0.00  0.00    +0.000 OA
ATOM     30  C   UNL     1      48.893   7.270  16.627  0.00  0.00    +0.000 A 
ATOM     31  H   UNL     1      49.645   4.565  18.335  0.00  0.00    +0.000 HD
ENDBRANCH  19  21
ENDBRANCH   1  18
TORSDOF 7
ENDMDL
MODEL 3
REMARK VINA RESULT:    -7.214      3.145      7.443
REMARK INTER + INTRA:         -11.393
REMARK INTER:                 -10.071
REMARK INTRA:                  -1.321
REMARK UNBOUND:                -1.227
REMARK  Name = 
REMARK  8 active torsions:
REMARK  status: ('A' for Active; 'I' for Inactive)
REMARK    1  A    between atoms: C_1  and  N_2
REMARK    2  A    between atoms: N_2  and  C_3
REMARK    3  A    between atoms: C_3  and  C_4
REMARK    4  A    between atoms: C_8  and  C_9
REMARK    5  A    between atoms: C_9  and  O_10
REMARK    6  A    between atoms: O_10  and  C_11
REMARK    7  A    between atoms: C_11  and  C_12
REMARK    8  A    between atoms: C_19  and  C_21
REMARK                            x       y       z     vdW  Elec       q    Type
REMARK                         _______ _______ _______ _____ _____    ______ ____
ROOT
ATOM      1  C   UNL     1      47.806   6.510  12.614  0.00  0.00    +0.000 C 
ENDROOT
BRANCH   1   2
ATOM      2  C   UNL     1      48.911   7.118  13.427  0.00  0.00    +0.000 A 
ATOM      3  C   UNL     1      50.020   7.687  12.803  0.00  0.00    +0.000 A 
ATOM      4  N   UNL     1      51.020   8.314  13.458  0.00  0.00    +0.000 NA
ATOM      5  C   UNL     1      50.929   8.364  14.802  0.00  0.00    +0.000 A 
ATOM      6  C   UNL     1      49.883   7.784  15.543  0.00  0.00    +0.000 A 
ATOM      7  C   UNL     1      48.873   7.154  14.830  0.00  0.00    +0.000 A 
BRANCH   6   8
ATOM      8  C   UNL     1      49.922   7.834  17.044  0.00  0.00    +0.000 C 
BRANCH   8   9
ATOM      9  O   UNL     1      48.657   7.431  17.558  0.00  0.00    +0.000 OA
BRANCH   9  10
ATOM     10  C   UNL     1      48.777   6.390  18.526  0.00  0.00    +0.000 C 
BRANCH  10  11
ATOM     11  C   UNL     1      48.495   5.068  17.888  0.00  0.00    +0.000 A 
ATOM     12  C   UNL     1      47.205   4.641  17.643  0.00  0.00    +0.000 A 
ATOM     13  N   UNL     1      46.894   3.462  17.067  0.00  0.00    +0.000 NA
ATOM     14  C   UNL     1      47.938   2.695  16.720  0.00  0.00    +0.000 A 
ATOM     15  N   UNL     1      49.232   3.006  16.880  0.00  0.00    +0.000 NA
ATOM     16  C   UNL     1      49.480   4.197  17.464  0.00  0.00    +0.000 A 
ENDBRANCH  10  11
ENDBRANCH   9  10
ENDBRANCH   8   9
ENDBRANCH   6   8
ENDBRANCH   1   2
BRANCH   1  18
ATOM     17  C   UNL     1      46.956   8.894  12.312  0.00  0.00    +0.000 C 
ATOM     18  N   UNL     1      46.765   7.449  12.178  0.00  0.00    +0.000 N 
ATOM     19  C   UNL     1      45.556   7.038  11.594  0.00  0.00    +0.000 C 
ATOM     20  O   UNL     1      44.587   7.790  11.516  0.00  0.00    +0.000 OA
BRANCH  19  21
ATOM     21  C   UNL     1      45.500   5.743  10.909  0.00  0.00    +0.000 A 
ATOM     22  C   UNL     1      45.813   5.565   9.572  0.00  0.00    +0.000 A 
ATOM     23  S   UNL     1      45.114   4.162   8.906  0.00  0.00    +0.000 S 
ATOM     24  C   UNL     1      44.488   3.703  10.419  0.00  0.00    +0.000 A 
ATOM     25  N   UNL     1      43.667   2.626  10.537  0.00  0.00    +0.000 NA
ATOM     26  C   UNL     1      43.328   2.359  11.755  0.00  0.00    +0.000 A 
ATOM     27  N   UNL     1      43.766   3.040  12.865  0.00  0.00    +0.000 N 
ATOM     28  C   UNL     1      44.614   4.130  12.795  0.00  0.00    +0.000 A 
ATOM     29  O   UNL     1      45.132   4.610  13.790  0.00  0.00    +0.000 OA
ATOM     30  C   UNL     1      44.915   4.536  11.431  0.00  0.00    +0.000 A 
ATOM     31  H   UNL     1      43.553   2.696  13.788  0.00  0.00    +0.000 HD
ENDBRANCH  19  21
ENDBRANCH   1  18
TORSDOF 7
ENDMDL
MODEL 4
REMARK VINA RESULT:    -6.912      3.486      5.924
REMARK INTER + INTRA:         -10.967
REMARK INTER:                  -9.491
REMARK INTRA:                  -1.476
REMARK UNBOUND:                -1.227
REMARK  Name = 
REMARK  8 active torsions:
REMARK  status: ('A' for Active; 'I' for Inactive)
REMARK    1  A    between atoms: C_1  and  N_2
REMARK    2  A    between atoms: N_2  and  C_3
REMARK    3  A    between atoms: C_3  and  C_4
REMARK    4  A    between atoms: C_8  and  C_9
REMARK    5  A    between atoms: C_9  and  O_10
REMARK    6  A    between atoms: O_10  and  C_11
REMARK    7  A    between atoms: C_11  and  C_12
REMARK    8  A    between atoms: C_19  and  C_21
REMARK                            x       y       z     vdW  Elec       q    Type
REMARK                         _______ _______ _______ _____ _____    ______ ____
ROOT
ATOM      1  C   UNL     1      49.742   7.263  15.438  0.00  0.00    +0.000 C 
ENDROOT
BRANCH   1   2
ATOM      2  C   UNL     1      48.834   7.078  14.258  0.00  0.00    +0.000 A 
ATOM      3  C   UNL     1      49.006   7.843  13.105  0.00  0.00    +0.000 A 
ATOM      4  N   UNL     1      48.278   7.690  11.979  0.00  0.00    +0.000 NA
ATOM      5  C   UNL     1      47.316   6.746  12.000  0.00  0.00    +0.000 A 
ATOM      6  C   UNL     1      47.018   5.950  13.120  0.00  0.00    +0.000 A 
ATOM      7  C   UNL     1      47.794   6.135  14.255  0.00  0.00    +0.000 A 
BRANCH   6   8
ATOM      8  C   UNL     1      45.872   4.981  13.057  0.00  0.00    +0.000 C 
BRANCH   8   9
ATOM      9  O   UNL     1      44.982   5.377  12.019  0.00  0.00    +0.000 OA
BRANCH   9  10
ATOM     10  C   UNL     1      44.316   4.262  11.426  0.00  0.00    +0.000 C 
BRANCH  10  11
ATOM     11  C   UNL     1      44.933   3.948  10.102  0.00  0.00    +0.000 A 
ATOM     12  C   UNL     1      44.977   2.658   9.610  0.00  0.00    +0.000 A 
ATOM     13  N   UNL     1      45.516   2.319   8.421  0.00  0.00    +0.000 NA
ATOM     14  C   UNL     1      46.019   3.334   7.703  0.00  0.00    +0.000 A 
ATOM     15  N   UNL     1      46.013   4.628   8.057  0.00  0.00    +0.000 NA
ATOM     16  C   UNL     1      45.463   4.904   9.258  0.00  0.00    +0.000 A 
ENDBRANCH  10  11
ENDBRANCH   9  10
ENDBRANCH   8   9
ENDBRANCH   6   8
ENDBRANCH   1   2
BRANCH   1  18
ATOM     17  C   UNL     1      48.121   8.853  16.595  0.00  0.00    +0.000 C 
ATOM     18  N   UNL     1      49.088   7.756  16.656  0.00  0.00    +0.000 N 
ATOM     19  C   UNL     1      49.319   7.207  17.928  0.00  0.00    +0.000 C 
ATOM     20  O   UNL     1      49.012   7.806  18.956  0.00  0.00    +0.000 OA
BRANCH  19  21
ATOM     21  C   UNL     1      49.779   5.819  18.032  0.00  0.00    +0.000 A 
ATOM     22  C   UNL     1      51.096   5.461  18.261  0.00  0.00    +0.000 A 
ATOM     23  S   UNL     1      51.453   3.874  17.753  0.00  0.00    +0.000 S 
ATOM     24  C   UNL     1      49.828   3.597  17.335  0.00  0.00    +0.000 A 
ATOM     25  N   UNL     1      49.453   2.446  16.717  0.00  0.00    +0.000 NA
ATOM     26  C   UNL     1      48.179   2.347  16.526  0.00  0.00    +0.000 A 
ATOM     27  N   UNL     1      47.244   3.269  16.932  0.00  0.00    +0.000 N 
ATOM     28  C   UNL     1      47.577   4.444  17.580  0.00  0.00    +0.000 A 
ATOM     29  O   UNL     1      46.732   5.162  18.089  0.00  0.00    +0.000 OA
ATOM     30  C   UNL     1      49.013   4.648  17.699  0.00  0.00    +0.000 A 
ATOM     31  H   UNL     1      46.261   3.062  16.855  0.00  0.00    +0.000 HD
ENDBRANCH  19  21
ENDBRANCH   1  18
TORSDOF 7
ENDMDL
MODEL 5
REMARK VINA RESULT:    -6.689      3.746      6.339
REMARK INTER + INTRA:         -10.652
REMARK INTER:                  -9.310
REMARK INTRA:                  -1.342
REMARK UNBOUND:                -1.227
REMARK  Name = 
REMARK  8 active torsions:
REMARK  status: ('A' for Active; 'I' for Inactive)
REMARK    1  A    between atoms: C_1  and  N_2
REMARK    2  A    between atoms: N_2  and  C_3
REMARK    3  A    between atoms: C_3  and  C_4
REMARK    4  A    between atoms: C_8  and  C_9
REMARK    5  A    between atoms: C_9  and  O_10
REMARK    6  A    between atoms: O_10  and  C_11
REMARK    7  A    between atoms: C_11  and  C_12
REMARK    8  A    between atoms: C_19  and  C_21
REMARK                            x       y       z     vdW  Elec       q    Type
REMARK                         _______ _______ _______ _____ _____    ______ ____
ROOT
ATOM      1  C   UNL     1      50.302   7.030  16.033  0.00  0.00    +0.000 C 
ENDROOT
BRANCH   1   2
ATOM      2  C   UNL     1      49.411   6.965  14.827  0.00  0.00    +0.000 A 
ATOM      3  C   UNL     1      49.776   7.600  13.641  0.00  0.00    +0.000 A 
ATOM      4  N   UNL     1      49.066   7.531  12.496  0.00  0.00    +0.000 NA
ATOM      5  C   UNL     1      47.926   6.813  12.529  0.00  0.00    +0.000 A 
ATOM      6  C   UNL     1      47.433   6.171  13.679  0.00  0.00    +0.000 A 
ATOM      7  C   UNL     1      48.196   6.262  14.833  0.00  0.00    +0.000 A 
BRANCH   6   8
ATOM      8  C   UNL     1      46.110   5.461  13.621  0.00  0.00    +0.000 C 
BRANCH   8   9
ATOM      9  O   UNL     1      46.124   4.534  12.540  0.00  0.00    +0.000 OA
BRANCH   9  10
ATOM     10  C   UNL     1      44.822   4.330  11.990  0.00  0.00    +0.000 C 
BRANCH  10  11
ATOM     11  C   UNL     1      44.931   3.992  10.539  0.00  0.00    +0.000 A 
ATOM     12  C   UNL     1      45.503   4.864   9.632  0.00  0.00    +0.000 A 
ATOM     13  N   UNL     1      45.631   4.609   8.314  0.00  0.00    +0.000 NA
ATOM     14  C   UNL     1      45.166   3.418   7.908  0.00  0.00    +0.000 A 
ATOM     15  N   UNL     1      44.617   2.478   8.690  0.00  0.00    +0.000 NA
ATOM     16  C   UNL     1      44.514   2.791   9.998  0.00  0.00    +0.000 A 
ENDBRANCH  10  11
ENDBRANCH   9  10
ENDBRANCH   8   9
ENDBRANCH   6   8
ENDBRANCH   1   2
BRANCH   1  18
ATOM     17  C   UNL     1      48.783   8.561  17.391  0.00  0.00    +0.000 C 
ATOM     18  N   UNL     1      49.624   7.367  17.291  0.00  0.00    +0.000 N 
ATOM     19  C   UNL     1      49.711   6.574  18.446  0.00  0.00    +0.000 C 
ATOM     20  O   UNL     1      49.402   7.009  19.553  0.00  0.00    +0.000 OA
BRANCH  19  21
ATOM     21  C   UNL     1      50.015   5.147  18.310  0.00  0.00    +0.000 A 
ATOM     22  C   UNL     1      51.271   4.604  18.522  0.00  0.00    +0.000 A 
ATOM     23  S   UNL     1      51.489   3.105  17.743  0.00  0.00    +0.000 S 
ATOM     24  C   UNL     1      49.872   3.095  17.216  0.00  0.00    +0.000 A 
ATOM     25  N   UNL     1      49.417   2.125  16.380  0.00  0.00    +0.000 NA
ATOM     26  C   UNL     1      48.153   2.209  16.122  0.00  0.00    +0.000 A 
ATOM     27  N   UNL     1      47.298   3.144  16.654  0.00  0.00    +0.000 N 
ATOM     28  C   UNL     1      47.713   4.137  17.522  0.00  0.00    +0.000 A 
ATOM     29  O   UNL     1      46.919   4.844  18.120  0.00  0.00    +0.000 OA
ATOM     30  C   UNL     1      49.151   4.150  17.735  0.00  0.00    +0.000 A 
ATOM     31  H   UNL     1      46.305   3.069  16.500  0.00  0.00    +0.000 HD
ENDBRANCH  19  21
ENDBRANCH   1  18
TORSDOF 7
ENDMDL
MODEL 6
REMARK VINA RESULT:    -6.658      3.671      5.992
REMARK INTER + INTRA:         -10.610
REMARK INTER:                 -10.146
REMARK INTRA:                  -0.464
REMARK UNBOUND:                -1.227
REMARK  Name = 
REMARK  8 active torsions:
REMARK  status: ('A' for Active; 'I' for Inactive)
REMARK    1  A    between atoms: C_1  and  N_2
REMARK    2  A    between atoms: N_2  and  C_3
REMARK    3  A    between atoms: C_3  and  C_4
REMARK    4  A    between atoms: C_8  and  C_9
REMARK    5  A    between atoms: C_9  and  O_10
REMARK    6  A    between atoms: O_10  and  C_11
REMARK    7  A    between atoms: C_11  and  C_12
REMARK    8  A    between atoms: C_19  and  C_21
REMARK                            x       y       z     vdW  Elec       q    Type
REMARK                         _______ _______ _______ _____ _____    ______ ____
ROOT
ATOM      1  C   UNL     1      48.007   5.770  15.129  0.00  0.00    +0.000 C 
ENDROOT
BRANCH   1   2
ATOM      2  C   UNL     1      47.578   6.201  13.757  0.00  0.00    +0.000 A 
ATOM      3  C   UNL     1      48.428   6.960  12.955  0.00  0.00    +0.000 A 
ATOM      4  N   UNL     1      48.147   7.328  11.688  0.00  0.00    +0.000 NA
ATOM      5  C   UNL     1      46.953   6.942  11.194  0.00  0.00    +0.000 A 
ATOM      6  C   UNL     1      45.996   6.217  11.925  0.00  0.00    +0.000 A 
ATOM      7  C   UNL     1      46.327   5.854  13.222  0.00  0.00    +0.000 A 
BRANCH   6   8
ATOM      8  C   UNL     1      44.666   5.905  11.299  0.00  0.00    +0.000 C 
BRANCH   8   9
ATOM      9  O   UNL     1      44.581   4.504  11.056  0.00  0.00    +0.000 OA
BRANCH   9  10
ATOM     10  C   UNL     1      44.036   4.213   9.769  0.00  0.00    +0.000 C 
BRANCH  10  11
ATOM     11  C   UNL     1      45.024   3.436   8.962  0.00  0.00    +0.000 A 
ATOM     12  C   UNL     1      45.162   2.069   9.106  0.00  0.00    +0.000 A 
ATOM     13  N   UNL     1      46.033   1.318   8.402  0.00  0.00    +0.000 NA
ATOM     14  C   UNL     1      46.784   1.985   7.512  0.00  0.00    +0.000 A 
ATOM     15  N   UNL     1      46.726   3.300   7.261  0.00  0.00    +0.000 NA
ATOM     16  C   UNL     1      45.837   3.999   7.998  0.00  0.00    +0.000 A 
ENDBRANCH  10  11
ENDBRANCH   9  10
ENDBRANCH   8   9
ENDBRANCH   6   8
ENDBRANCH   1   2
BRANCH   1  18
ATOM     17  C   UNL     1      47.286   3.388  14.582  0.00  0.00    +0.000 C 
ATOM     18  N   UNL     1      47.503   4.459  15.556  0.00  0.00    +0.000 N 
ATOM     19  C   UNL     1      47.227   4.141  16.895  0.00  0.00    +0.000 C 
ATOM     20  O   UNL     1      46.535   3.173  17.201  0.00  0.00    +0.000 OA
BRANCH  19  21
ATOM     21  C   UNL     1      47.917   4.877  17.959  0.00  0.00    +0.000 A 
ATOM     22  C   UNL     1      47.276   5.714  18.856  0.00  0.00    +0.000 A 
ATOM     23  S   UNL     1      48.320   6.862  19.560  0.00  0.00    +0.000 S 
ATOM     24  C   UNL     1      49.666   6.181  18.775  0.00  0.00    +0.000 A 
ATOM     25  N   UNL     1      50.890   6.767  18.855  0.00  0.00    +0.000 NA
ATOM     26  C   UNL     1      51.828   6.099  18.268  0.00  0.00    +0.000 A 
ATOM     27  N   UNL     1      51.665   4.884  17.647  0.00  0.00    +0.000 N 
ATOM     28  C   UNL     1      50.443   4.242  17.557  0.00  0.00    +0.000 A 
ATOM     29  O   UNL     1      50.345   3.092  17.164  0.00  0.00    +0.000 OA
ATOM     30  C   UNL     1      49.342   5.025  18.097  0.00  0.00    +0.000 A 
ATOM     31  H   UNL     1      52.467   4.370  17.319  0.00  0.00    +0.000 HD
ENDBRANCH  19  21
ENDBRANCH   1  18
TORSDOF 7
ENDMDL
MODEL 7
REMARK VINA RESULT:    -6.622      2.787      4.719
REMARK INTER + INTRA:         -10.559
REMARK INTER:                  -9.900
REMARK INTRA:                  -0.658
REMARK UNBOUND:                -1.227
REMARK  Name = 
REMARK  8 active torsions:
REMARK  status: ('A' for Active; 'I' for Inactive)
REMARK    1  A    between atoms: C_1  and  N_2
REMARK    2  A    between atoms: N_2  and  C_3
REMARK    3  A    between atoms: C_3  and  C_4
REMARK    4  A    between atoms: C_8  and  C_9
REMARK    5  A    between atoms: C_9  and  O_10
REMARK    6  A    between atoms: O_10  and  C_11
REMARK    7  A    between atoms: C_11  and  C_12
REMARK    8  A    between atoms: C_19  and  C_21
REMARK                            x       y       z     vdW  Elec       q    Type
REMARK                         _______ _______ _______ _____ _____    ______ ____
ROOT
ATOM      1  C   UNL     1      46.467   7.863  13.237  0.00  0.00    +0.000 C 
ENDROOT
BRANCH   1   2
ATOM      2  C   UNL     1      45.698   6.840  12.453  0.00  0.00    +0.000 A 
ATOM      3  C   UNL     1      44.516   6.301  12.958  0.00  0.00    +0.000 A 
ATOM      4  N   UNL     1      43.732   5.431  12.288  0.00  0.00    +0.000 NA
ATOM      5  C   UNL     1      44.149   5.058  11.061  0.00  0.00    +0.000 A 
ATOM      6  C   UNL     1      45.346   5.497  10.469  0.00  0.00    +0.000 A 
ATOM      7  C   UNL     1      46.120   6.395  11.189  0.00  0.00    +0.000 A 
BRANCH   6   8
ATOM      8  C   UNL     1      45.750   4.957   9.126  0.00  0.00    +0.000 C 
BRANCH   8   9
ATOM      9  O   UNL     1      44.801   3.980   8.711  0.00  0.00    +0.000 OA
BRANCH   9  10
ATOM     10  C   UNL     1      45.327   2.655   8.782  0.00  0.00    +0.000 C 
BRANCH  10  11
ATOM     11  C   UNL     1      46.186   2.384   7.589  0.00  0.00    +0.000 A 
ATOM     12  C   UNL     1      46.193   3.227   6.494  0.00  0.00    +0.000 A 
ATOM     13  N   UNL     1      46.950   3.034   5.396  0.00  0.00    +0.000 NA
ATOM     14  C   UNL     1      47.736   1.946   5.418  0.00  0.00    +0.000 A 
ATOM     15  N   UNL     1      47.838   1.069   6.427  0.00  0.00    +0.000 NA
ATOM     16  C   UNL     1      47.055   1.314   7.498  0.00  0.00    +0.000 A 
ENDBRANCH  10  11
ENDBRANCH   9  10
ENDBRANCH   8   9
ENDBRANCH   6   8
ENDBRANCH   1   2
BRANCH   1  18
ATOM     17  C   UNL     1      48.501   8.634  11.909  0.00  0.00    +0.000 C 
ATOM     18  N   UNL     1      47.917   7.862  13.007  0.00  0.00    +0.000 N 
ATOM     19  C   UNL     1      48.822   7.162  13.820  0.00  0.00    +0.000 C 
ATOM     20  O   UNL     1      49.970   6.922  13.451  0.00  0.00    +0.000 OA
BRANCH  19  21
ATOM     21  C   UNL     1      48.449   6.857  15.204  0.00  0.00    +0.000 A 
ATOM     22  C   UNL     1      48.614   7.740  16.258  0.00  0.00    +0.000 A 
ATOM     23  S   UNL     1      48.672   6.964  17.773  0.00  0.00    +0.000 S 
ATOM     24  C   UNL     1      48.353   5.454  17.061  0.00  0.00    +0.000 A 
ATOM     25  N   UNL     1      48.382   4.313  17.800  0.00  0.00    +0.000 NA
ATOM     26  C   UNL     1      48.051   3.254  17.139  0.00  0.00    +0.000 A 
ATOM     27  N   UNL     1      47.655   3.234  15.823  0.00  0.00    +0.000 N 
ATOM     28  C   UNL     1      47.592   4.371  15.038  0.00  0.00    +0.000 A 
ATOM     29  O   UNL     1      47.073   4.365  13.934  0.00  0.00    +0.000 OA
ATOM     30  C   UNL     1      48.079   5.563  15.714  0.00  0.00    +0.000 A 
ATOM     31  H   UNL     1      47.296   2.386  15.414  0.00  0.00    +0.000 HD
ENDBRANCH  19  21
ENDBRANCH   1  18
TORSDOF 7
ENDMDL
MODEL 8
REMARK VINA RESULT:    -6.485      4.223      7.267
REMARK INTER + INTRA:         -10.365
REMARK INTER:                  -9.638
REMARK INTRA:                  -0.727
REMARK UNBOUND:                -1.227
REMARK  Name = 
REMARK  8 active torsions:
REMARK  status: ('A' for Active; 'I' for Inactive)
REMARK    1  A    between atoms: C_1  and  N_2
REMARK    2  A    between atoms: N_2  and  C_3
REMARK    3  A    between atoms: C_3  and  C_4
REMARK    4  A    between atoms: C_8  and  C_9
REMARK    5  A    between atoms: C_9  and  O_10
REMARK    6  A    between atoms: O_10  and  C_11
REMARK    7  A    between atoms: C_11  and  C_12
REMARK    8  A    between atoms: C_19  and  C_21
REMARK                            x       y       z     vdW  Elec       q    Type
REMARK                         _______ _______ _______ _____ _____    ______ ____
ROOT
ATOM      1  C   UNL     1      48.740   6.012  15.684  0.00  0.00    +0.000 C 
ENDROOT
BRANCH   1   2
ATOM      2  C   UNL     1      48.556   6.917  14.501  0.00  0.00    +0.000 A 
ATOM      3  C   UNL     1      49.660   7.438  13.829  0.00  0.00    +0.000 A 
ATOM      4  N   UNL     1      49.581   8.200  12.718  0.00  0.00    +0.000 NA
ATOM      5  C   UNL     1      48.345   8.478  12.258  0.00  0.00    +0.000 A 
ATOM      6  C   UNL     1      47.159   8.049  12.880  0.00  0.00    +0.000 A 
ATOM      7  C   UNL     1      47.285   7.263  14.016  0.00  0.00    +0.000 A 
BRANCH   6   8
ATOM      8  C   UNL     1      45.832   8.482  12.323  0.00  0.00    +0.000 C 
BRANCH   8   9
ATOM      9  O   UNL     1      44.917   7.394  12.398  0.00  0.00    +0.000 OA
BRANCH   9  10
ATOM     10  C   UNL     1      44.877   6.639  11.187  0.00  0.00    +0.000 C 
BRANCH  10  11
ATOM     11  C   UNL     1      44.358   5.265  11.462  0.00  0.00    +0.000 A 
ATOM     12  C   UNL     1      44.119   4.823  12.749  0.00  0.00    +0.000 A 
ATOM     13  N   UNL     1      43.648   3.597  13.053  0.00  0.00    +0.000 NA
ATOM     14  C   UNL     1      43.402   2.795  12.006  0.00  0.00    +0.000 A 
ATOM     15  N   UNL     1      43.566   3.114  10.714  0.00  0.00    +0.000 NA
ATOM     16  C   UNL     1      44.043   4.354  10.472  0.00  0.00    +0.000 A 
ENDBRANCH  10  11
ENDBRANCH   9  10
ENDBRANCH   8   9
ENDBRANCH   6   8
ENDBRANCH   1   2
BRANCH   1  18
ATOM     17  C   UNL     1      47.206   4.336  14.530  0.00  0.00    +0.000 C 
ATOM     18  N   UNL     1      47.816   4.874  15.747  0.00  0.00    +0.000 N 
ATOM     19  C   UNL     1      47.482   4.221  16.944  0.00  0.00    +0.000 C 
ATOM     20  O   UNL     1      46.499   3.488  17.029  0.00  0.00    +0.000 OA
BRANCH  19  21
ATOM     21  C   UNL     1      48.417   4.278  18.072  0.00  0.00    +0.000 A 
ATOM     22  C   UNL     1      48.222   5.066  19.194  0.00  0.00    +0.000 A 
ATOM     23  S   UNL     1      49.668   5.405  20.029  0.00  0.00    +0.000 S 
ATOM     24  C   UNL     1      50.558   4.403  18.982  0.00  0.00    +0.000 A 
ATOM     25  N   UNL     1      51.912   4.331  19.069  0.00  0.00    +0.000 NA
ATOM     26  C   UNL     1      52.443   3.478  18.256  0.00  0.00    +0.000 A 
ATOM     27  N   UNL     1      51.745   2.662  17.398  0.00  0.00    +0.000 N 
ATOM     28  C   UNL     1      50.366   2.688  17.289  0.00  0.00    +0.000 A 
ATOM     29  O   UNL     1      49.753   1.843  16.658  0.00  0.00    +0.000 OA
ATOM     30  C   UNL     1      49.745   3.726  18.097  0.00  0.00    +0.000 A 
ATOM     31  H   UNL     1      52.222   1.938  16.884  0.00  0.00    +0.000 HD
ENDBRANCH  19  21
ENDBRANCH   1  18
TORSDOF 7
ENDMDL
MODEL 9
REMARK VINA RESULT:    -6.124      4.610      7.875
REMARK INTER + INTRA:          -9.856
REMARK INTER:                  -8.627
REMARK INTRA:                  -1.229
REMARK UNBOUND:                -1.227
REMARK  Name = 
REMARK  8 active torsions:
REMARK  status: ('A' for Active; 'I' for Inactive)
REMARK    1  A    between atoms: C_1  and  N_2
REMARK    2  A    between atoms: N_2  and  C_3
REMARK    3  A    between atoms: C_3  and  C_4
REMARK    4  A    between atoms: C_8  and  C_9
REMARK    5  A    between atoms: C_9  and  O_10
REMARK    6  A    between atoms: O_10  and  C_11
REMARK    7  A    between atoms: C_11  and  C_12
REMARK    8  A    between atoms: C_19  and  C_21
REMARK                            x       y       z     vdW  Elec       q    Type
REMARK                         _______ _______ _______ _____ _____    ______ ____
ROOT
ATOM      1  C   UNL     1      50.430   7.254  17.995  0.00  0.00    +0.000 C 
ENDROOT
BRANCH   1   2
ATOM      2  C   UNL     1      49.589   7.688  16.830  0.00  0.00    +0.000 A 
ATOM      3  C   UNL     1      48.794   8.829  16.917  0.00  0.00    +0.000 A 
ATOM      4  N   UNL     1      48.065   9.324  15.895  0.00  0.00    +0.000 NA
ATOM      5  C   UNL     1      48.107   8.643  14.732  0.00  0.00    +0.000 A 
ATOM      6  C   UNL     1      48.833   7.454  14.542  0.00  0.00    +0.000 A 
ATOM      7  C   UNL     1      49.574   6.983  15.616  0.00  0.00    +0.000 A 
BRANCH   6   8
ATOM      8  C   UNL     1      48.749   6.737  13.225  0.00  0.00    +0.000 C 
BRANCH   8   9
ATOM      9  O   UNL     1      47.557   5.957  13.193  0.00  0.00    +0.000 OA
BRANCH   9  10
ATOM     10  C   UNL     1      46.741   6.267  12.064  0.00  0.00    +0.000 C 
BRANCH  10  11
ATOM     11  C   UNL     1      45.620   5.285  11.961  0.00  0.00    +0.000 A 
ATOM     12  C   UNL     1      45.440   4.289  12.902  0.00  0.00    +0.000 A 
ATOM     13  N   UNL     1      44.445   3.380  12.862  0.00  0.00    +0.000 NA
ATOM     14  C   UNL     1      43.597   3.497  11.828  0.00  0.00    +0.000 A 
ATOM     15  N   UNL     1      43.648   4.432  10.869  0.00  0.00    +0.000 NA
ATOM     16  C   UNL     1      44.667   5.311  10.962  0.00  0.00    +0.000 A 
ENDBRANCH  10  11
ENDBRANCH   9  10
ENDBRANCH   8   9
ENDBRANCH   6   8
ENDBRANCH   1   2
BRANCH   1  18
ATOM     17  C   UNL     1      49.120   7.720  20.131  0.00  0.00    +0.000 C 
ATOM     18  N   UNL     1      49.679   6.776  19.162  0.00  0.00    +0.000 N 
ATOM     19  C   UNL     1      49.427   5.417  19.408  0.00  0.00    +0.000 C 
ATOM     20  O   UNL     1      49.074   5.015  20.515  0.00  0.00    +0.000 OA
BRANCH  19  21
ATOM     21  C   UNL     1      49.420   4.478  18.283  0.00  0.00    +0.000 A 
ATOM     22  C   UNL     1      48.300   4.203  17.516  0.00  0.00    +0.000 A 
ATOM     23  S   UNL     1      48.395   2.705  16.711  0.00  0.00    +0.000 S 
ATOM     24  C   UNL     1      49.982   2.457  17.270  0.00  0.00    +0.000 A 
ATOM     25  N   UNL     1      50.629   1.284  17.035  0.00  0.00    +0.000 NA
ATOM     26  C   UNL     1      51.850   1.268  17.458  0.00  0.00    +0.000 A 
ATOM     27  N   UNL     1      52.495   2.326  18.053  0.00  0.00    +0.000 N 
ATOM     28  C   UNL     1      51.883   3.542  18.295  0.00  0.00    +0.000 A 
ATOM     29  O   UNL     1      52.514   4.521  18.658  0.00  0.00    +0.000 OA
ATOM     30  C   UNL     1      50.471   3.554  17.947  0.00  0.00    +0.000 A 
ATOM     31  H   UNL     1      53.483   2.275  18.245  0.00  0.00    +0.000 HD
ENDBRANCH  19  21
ENDBRANCH   1  18
TORSDOF 7
ENDMDL
