MODEL 1
REMARK VINA RESULT:    -8.449      0.000      0.000
REMARK INTER + INTRA:         -12.957
REMARK INTER:                 -11.907
REMARK INTRA:                  -1.050
REMARK UNBOUND:                -1.050
REMARK  Name = 
REMARK  7 active torsions:
REMARK  status: ('A' for Active; 'I' for Inactive)
REMARK    1  A    between atoms: C_2  and  C_4
REMARK    2  A    between atoms: C_8  and  O_9
REMARK    3  A    between atoms: O_9  and  C_10
REMARK    4  A    between atoms: C_10  and  C_11
REMARK    5  A    between atoms: C_11  and  C_12
REMARK    6  A    between atoms: C_14  and  C_15
REMARK    7  A    between atoms: C_24  and  C_25
REMARK                            x       y       z     vdW  Elec       q    Type
REMARK                         _______ _______ _______ _____ _____    ______ ____
ROOT
ATOM      1  C   UNL     1      44.966   5.290  10.708  0.00  0.00    +0.000 A 
ATOM      2  C   UNL     1      45.571   4.639   9.609  0.00  0.00    +0.000 A 
ATOM      3  C   UNL     1      45.282   3.308   9.248  0.00  0.00    +0.000 A 
ATOM      4  C   UNL     1      44.331   2.640  10.029  0.00  0.00    +0.000 A 
ATOM      5  C   UNL     1      43.672   3.284  11.082  0.00  0.00    +0.000 A 
ATOM      6  C   UNL     1      43.961   4.618  11.430  0.00  0.00    +0.000 A 
ENDROOT
BRANCH   3   7
ATOM      7  C   UNL     1      45.961   2.648   8.103  0.00  0.00    +0.000 A 
ATOM      8  C   UNL     1      46.484   3.387   7.022  0.00  0.00    +0.000 A 
ATOM      9  C   UNL     1      47.135   2.765   5.949  0.00  0.00    +0.000 A 
ATOM     10  C   UNL     1      47.293   1.383   5.937  0.00  0.00    +0.000 A 
ATOM     11  C   UNL     1      46.787   0.631   6.991  0.00  0.00    +0.000 A 
ATOM     12 CL   UNL     1      46.987  -1.078   6.994  0.00  0.00    +0.000 Cl
ATOM     13  C   UNL     1      46.120   1.250   8.051  0.00  0.00    +0.000 A 
ENDBRANCH   3   7
BRANCH   6  14
ATOM     14  C   UNL     1      43.145   5.218  12.558  0.00  0.00    +0.000 C 
ATOM     15  F   UNL     1      43.780   6.173  13.289  0.00  0.00    +0.000 F 
ATOM     16  F   UNL     1      42.014   5.823  12.092  0.00  0.00    +0.000 F 
ATOM     17  F   UNL     1      42.723   4.282  13.451  0.00  0.00    +0.000 F 
ENDBRANCH   6  14
BRANCH   1  18
ATOM     18  C   UNL     1      45.447   6.687  11.042  0.00  0.00    +0.000 C 
BRANCH  18  19
ATOM     19  C   UNL     1      46.683   6.683  11.937  0.00  0.00    +0.000 C 
BRANCH  19  20
ATOM     20  O   UNL     1      46.768   5.425  12.614  0.00  0.00    +0.000 OA
BRANCH  20  25
ATOM     21  C   UNL     1      47.558   4.815  16.180  0.00  0.00    +0.000 A 
ATOM     22  C   UNL     1      48.581   5.746  16.291  0.00  0.00    +0.000 A 
ATOM     23  N   UNL     1      49.014   6.506  15.256  0.00  0.00    +0.000 NA
ATOM     24  C   UNL     1      48.373   6.337  14.071  0.00  0.00    +0.000 A 
ATOM     25  C   UNL     1      47.318   5.455  13.866  0.00  0.00    +0.000 A 
ATOM     26  C   UNL     1      46.908   4.684  14.951  0.00  0.00    +0.000 A 
BRANCH  21  28
ATOM     27  N   UNL     1      47.491   4.529  18.589  0.00  0.00    +0.000 N 
ATOM     28  C   UNL     1      47.175   4.015  17.358  0.00  0.00    +0.000 C 
ATOM     29  O   UNL     1      46.573   2.958  17.247  0.00  0.00    +0.000 OA
ATOM     30  H   UNL     1      47.133   4.022  19.390  0.00  0.00    +0.000 HD
ATOM     31  H   UNL     1      47.740   5.497  18.733  0.00  0.00    +0.000 HD
ENDBRANCH  21  28
ENDBRANCH  20  25
ENDBRANCH  19  20
ENDBRANCH  18  19
ENDBRANCH   1  18
TORSDOF 7
ENDMDL
MODEL 2
REMARK VINA RESULT:    -8.399      4.567      7.710
REMARK INTER + INTRA:         -12.886
REMARK INTER:                 -11.581
REMARK INTRA:                  -1.305
REMARK UNBOUND:                -1.050
REMARK  Name = 
REMARK  7 active torsions:
REMARK  status: ('A' for Active; 'I' for Inactive)
REMARK    1  A    between atoms: C_2  and  C_4
REMARK    2  A    between atoms: C_8  and  O_9
REMARK    3  A    between atoms: O_9  and  C_10
REMARK    4  A    between atoms: C_10  and  C_11
REMARK    5  A    between atoms: C_11  and  C_12
REMARK    6  A    between atoms: C_14  and  C_15
REMARK    7  A    between atoms: C_24  and  C_25
REMARK                            x       y       z     vdW  Elec       q    Type
REMARK                         _______ _______ _______ _____ _____    ______ ____
ROOT
ATOM      1  C   UNL     1      44.664   5.744  12.543  0.00  0.00    +0.000 A 
ATOM      2  C   UNL     1      44.346   7.021  12.027  0.00  0.00    +0.000 A 
ATOM      3  C   UNL     1      45.232   8.115  12.080  0.00  0.00    +0.000 A 
ATOM      4  C   UNL     1      46.484   7.879  12.662  0.00  0.00    +0.000 A 
ATOM      5  C   UNL     1      46.845   6.607  13.121  0.00  0.00    +0.000 A 
ATOM      6  C   UNL     1      45.955   5.517  13.056  0.00  0.00    +0.000 A 
ENDROOT
BRANCH   3   7
ATOM      7  C   UNL     1      44.851   9.452  11.554  0.00  0.00    +0.000 A 
ATOM      8  C   UNL     1      45.705  10.568  11.673  0.00  0.00    +0.000 A 
ATOM      9  C   UNL     1      45.350  11.824  11.166  0.00  0.00    +0.000 A 
ATOM     10  C   UNL     1      44.134  11.994  10.511  0.00  0.00    +0.000 A 
ATOM     11  C   UNL     1      43.274  10.909  10.382  0.00  0.00    +0.000 A 
ATOM     12 CL   UNL     1      41.773  11.103   9.564  0.00  0.00    +0.000 Cl
ATOM     13  C   UNL     1      43.620   9.661  10.905  0.00  0.00    +0.000 A 
ENDBRANCH   3   7
BRANCH   6  14
ATOM     14  C   UNL     1      46.481   4.181  13.541  0.00  0.00    +0.000 C 
ATOM     15  F   UNL     1      46.247   3.906  14.852  0.00  0.00    +0.000 F 
ATOM     16  F   UNL     1      45.920   3.142  12.856  0.00  0.00    +0.000 F 
ATOM     17  F   UNL     1      47.825   4.056  13.366  0.00  0.00    +0.000 F 
ENDBRANCH   6  14
BRANCH   1  18
ATOM     18  C   UNL     1      43.576   4.689  12.510  0.00  0.00    +0.000 C 
BRANCH  18  19
ATOM     19  C   UNL     1      43.111   4.372  11.092  0.00  0.00    +0.000 C 
BRANCH  19  20
ATOM     20  O   UNL     1      43.645   3.105  10.695  0.00  0.00    +0.000 OA
BRANCH  20  25
ATOM     21  C   UNL     1      46.156   2.203   8.128  0.00  0.00    +0.000 A 
ATOM     22  C   UNL     1      46.308   3.470   7.583  0.00  0.00    +0.000 A 
ATOM     23  N   UNL     1      45.608   4.551   8.003  0.00  0.00    +0.000 NA
ATOM     24  C   UNL     1      44.740   4.351   9.028  0.00  0.00    +0.000 A 
ATOM     25  C   UNL     1      44.540   3.129   9.661  0.00  0.00    +0.000 A 
ATOM     26  C   UNL     1      45.271   2.038   9.195  0.00  0.00    +0.000 A 
BRANCH  21  28
ATOM     27  N   UNL     1      48.012   1.400   6.784  0.00  0.00    +0.000 N 
ATOM     28  C   UNL     1      46.945   1.081   7.585  0.00  0.00    +0.000 C 
ATOM     29  O   UNL     1      46.683  -0.079   7.861  0.00  0.00    +0.000 OA
ATOM     30  H   UNL     1      48.604   0.628   6.502  0.00  0.00    +0.000 HD
ATOM     31  H   UNL     1      48.414   2.325   6.749  0.00  0.00    +0.000 HD
ENDBRANCH  21  28
ENDBRANCH  20  25
ENDBRANCH  19  20
ENDBRANCH  18  19
ENDBRANCH   1  18
TORSDOF 7
ENDMDL
MODEL 3
REMARK VINA RESULT:    -7.994      4.192      7.975
REMARK INTER + INTRA:         -12.315
REMARK INTER:                 -11.434
REMARK INTRA:                  -0.881
REMARK UNBOUND:                -1.050
REMARK  Name = 
REMARK  7 active torsions:
REMARK  status: ('A' for Active; 'I' for Inactive)
REMARK    1  A    between atoms: C_2  and  C_4
REMARK    2  A    between atoms: C_8  and  O_9
REMARK    3  A    between atoms: O_9  and  C_10
REMARK    4  A    between atoms: C_10  and  C_11
REMARK    5  A    between atoms: C_11  and  C_12
REMARK    6  A    between atoms: C_14  and  C_15
REMARK    7  A    between atoms: C_24  and  C_25
REMARK                            x       y       z     vdW  Elec       q    Type
REMARK                         _______ _______ _______ _____ _____    ______ ____
ROOT
ATOM      1  C   UNL     1      45.296   5.111  13.094  0.00  0.00    +0.000 A 
ATOM      2  C   UNL     1      45.978   4.591  14.218  0.00  0.00    +0.000 A 
ATOM      3  C   UNL     1      47.172   5.147  14.720  0.00  0.00    +0.000 A 
ATOM      4  C   UNL     1      47.662   6.278  14.057  0.00  0.00    +0.000 A 
ATOM      5  C   UNL     1      46.971   6.850  12.982  0.00  0.00    +0.000 A 
ATOM      6  C   UNL     1      45.773   6.291  12.494  0.00  0.00    +0.000 A 
ENDROOT
BRANCH   3   7
ATOM      7  C   UNL     1      47.877   4.553  15.886  0.00  0.00    +0.000 A 
ATOM      8  C   UNL     1      47.750   3.188  16.215  0.00  0.00    +0.000 A 
ATOM      9  C   UNL     1      48.423   2.627  17.307  0.00  0.00    +0.000 A 
ATOM     10  C   UNL     1      49.257   3.417  18.092  0.00  0.00    +0.000 A 
ATOM     11  C   UNL     1      49.399   4.766  17.789  0.00  0.00    +0.000 A 
ATOM     12 CL   UNL     1      50.437   5.751  18.745  0.00  0.00    +0.000 Cl
ATOM     13  C   UNL     1      48.711   5.330  16.711  0.00  0.00    +0.000 A 
ENDBRANCH   3   7
BRANCH   6  14
ATOM     14  C   UNL     1      45.094   7.030  11.358  0.00  0.00    +0.000 C 
ATOM     15  F   UNL     1      43.735   7.053  11.411  0.00  0.00    +0.000 F 
ATOM     16  F   UNL     1      45.468   8.341  11.317  0.00  0.00    +0.000 F 
ATOM     17  F   UNL     1      45.412   6.516  10.138  0.00  0.00    +0.000 F 
ENDBRANCH   6  14
BRANCH   1  18
ATOM     18  C   UNL     1      44.081   4.351  12.604  0.00  0.00    +0.000 C 
BRANCH  18  19
ATOM     19  C   UNL     1      44.448   3.031  11.932  0.00  0.00    +0.000 C 
BRANCH  19  20
ATOM     20  O   UNL     1      43.791   2.951  10.663  0.00  0.00    +0.000 OA
BRANCH  20  25
ATOM     21  C   UNL     1      46.172   2.050   7.974  0.00  0.00    +0.000 A 
ATOM     22  C   UNL     1      46.188   3.283   7.338  0.00  0.00    +0.000 A 
ATOM     23  N   UNL     1      45.440   4.339   7.740  0.00  0.00    +0.000 NA
ATOM     24  C   UNL     1      44.666   4.151   8.840  0.00  0.00    +0.000 A 
ATOM     25  C   UNL     1      44.605   2.965   9.564  0.00  0.00    +0.000 A 
ATOM     26  C   UNL     1      45.381   1.899   9.115  0.00  0.00    +0.000 A 
BRANCH  21  28
ATOM     27  N   UNL     1      47.979   1.288   6.544  0.00  0.00    +0.000 N 
ATOM     28  C   UNL     1      47.003   0.952   7.446  0.00  0.00    +0.000 C 
ATOM     29  O   UNL     1      46.852  -0.202   7.818  0.00  0.00    +0.000 OA
ATOM     30  H   UNL     1      48.606   0.542   6.267  0.00  0.00    +0.000 HD
ATOM     31  H   UNL     1      48.305   2.234   6.415  0.00  0.00    +0.000 HD
ENDBRANCH  21  28
ENDBRANCH  20  25
ENDBRANCH  19  20
ENDBRANCH  18  19
ENDBRANCH   1  18
TORSDOF 7
ENDMDL
MODEL 4
REMARK VINA RESULT:    -7.848      4.098      7.569
REMARK INTER + INTRA:         -12.109
REMARK INTER:                 -10.787
REMARK INTRA:                  -1.322
REMARK UNBOUND:                -1.050
REMARK  Name = 
REMARK  7 active torsions:
REMARK  status: ('A' for Active; 'I' for Inactive)
REMARK    1  A    between atoms: C_2  and  C_4
REMARK    2  A    between atoms: C_8  and  O_9
REMARK    3  A    between atoms: O_9  and  C_10
REMARK    4  A    between atoms: C_10  and  C_11
REMARK    5  A    between atoms: C_11  and  C_12
REMARK    6  A    between atoms: C_14  and  C_15
REMARK    7  A    between atoms: C_24  and  C_25
REMARK                            x       y       z     vdW  Elec       q    Type
REMARK                         _______ _______ _______ _____ _____    ______ ____
ROOT
ATOM      1  C   UNL     1      45.114   5.308  12.661  0.00  0.00    +0.000 A 
ATOM      2  C   UNL     1      46.380   5.613  13.213  0.00  0.00    +0.000 A 
ATOM      3  C   UNL     1      47.008   6.864  13.052  0.00  0.00    +0.000 A 
ATOM      4  C   UNL     1      46.305   7.829  12.321  0.00  0.00    +0.000 A 
ATOM      5  C   UNL     1      45.024   7.571  11.819  0.00  0.00    +0.000 A 
ATOM      6  C   UNL     1      44.400   6.320  11.993  0.00  0.00    +0.000 A 
ENDROOT
BRANCH   3   7
ATOM      7  C   UNL     1      48.353   7.138  13.623  0.00  0.00    +0.000 A 
ATOM      8  C   UNL     1      49.384   7.713  12.852  0.00  0.00    +0.000 A 
ATOM      9  C   UNL     1      50.647   7.981  13.393  0.00  0.00    +0.000 A 
ATOM     10  C   UNL     1      50.908   7.695  14.730  0.00  0.00    +0.000 A 
ATOM     11  C   UNL     1      49.908   7.128  15.511  0.00  0.00    +0.000 A 
ATOM     12 CL   UNL     1      50.214   6.781  17.169  0.00  0.00    +0.000 Cl
ATOM     13  C   UNL     1      48.654   6.841  14.965  0.00  0.00    +0.000 A 
ENDBRANCH   3   7
BRANCH   6  14
ATOM     14  C   UNL     1      42.993   6.182  11.446  0.00  0.00    +0.000 C 
ATOM     15  F   UNL     1      42.854   5.301  10.419  0.00  0.00    +0.000 F 
ATOM     16  F   UNL     1      42.122   5.749  12.403  0.00  0.00    +0.000 F 
ATOM     17  F   UNL     1      42.490   7.363  10.996  0.00  0.00    +0.000 F 
ENDBRANCH   6  14
BRANCH   1  18
ATOM     18  C   UNL     1      44.606   3.890  12.826  0.00  0.00    +0.000 C 
BRANCH  18  19
ATOM     19  C   UNL     1      45.252   2.918  11.844  0.00  0.00    +0.000 C 
BRANCH  19  20
ATOM     20  O   UNL     1      44.516   2.931  10.617  0.00  0.00    +0.000 OA
BRANCH  20  25
ATOM     21  C   UNL     1      46.587   2.320   7.609  0.00  0.00    +0.000 A 
ATOM     22  C   UNL     1      46.728   3.645   7.224  0.00  0.00    +0.000 A 
ATOM     23  N   UNL     1      46.153   4.679   7.886  0.00  0.00    +0.000 NA
ATOM     24  C   UNL     1      45.429   4.364   8.991  0.00  0.00    +0.000 A 
ATOM     25  C   UNL     1      45.256   3.072   9.475  0.00  0.00    +0.000 A 
ATOM     26  C   UNL     1      45.854   2.035   8.763  0.00  0.00    +0.000 A 
BRANCH  21  28
ATOM     27  N   UNL     1      48.185   1.656   5.906  0.00  0.00    +0.000 N 
ATOM     28  C   UNL     1      47.230   1.261   6.808  0.00  0.00    +0.000 C 
ATOM     29  O   UNL     1      46.952   0.082   6.963  0.00  0.00    +0.000 OA
ATOM     30  H   UNL     1      48.689   0.912   5.438  0.00  0.00    +0.000 HD
ATOM     31  H   UNL     1      48.625   2.563   5.935  0.00  0.00    +0.000 HD
ENDBRANCH  21  28
ENDBRANCH  20  25
ENDBRANCH  19  20
ENDBRANCH  18  19
ENDBRANCH   1  18
TORSDOF 7
ENDMDL
MODEL 5
REMARK VINA RESULT:    -7.510      4.816      8.104
REMARK INTER + INTRA:         -11.633
REMARK INTER:                 -10.604
REMARK INTRA:                  -1.029
REMARK UNBOUND:                -1.050
REMARK  Name = 
REMARK  7 active torsions:
REMARK  status: ('A' for Active; 'I' for Inactive)
REMARK    1  A    between atoms: C_2  and  C_4
REMARK    2  A    between atoms: C_8  and  O_9
REMARK    3  A    between atoms: O_9  and  C_10
REMARK    4  A    between atoms: C_10  and  C_11
REMARK    5  A    between atoms: C_11  and  C_12
REMARK    6  A    between atoms: C_14  and  C_15
REMARK    7  A    between atoms: C_24  and  C_25
REMARK                            x       y       z     vdW  Elec       q    Type
REMARK                         _______ _______ _______ _____ _____    ______ ____
ROOT
ATOM      1  C   UNL     1      46.872   6.141  12.345  0.00  0.00    +0.000 A 
ATOM      2  C   UNL     1      47.492   7.247  11.719  0.00  0.00    +0.000 A 
ATOM      3  C   UNL     1      48.510   8.006  12.329  0.00  0.00    +0.000 A 
ATOM      4  C   UNL     1      48.911   7.601  13.608  0.00  0.00    +0.000 A 
ATOM      5  C   UNL     1      48.358   6.472  14.222  0.00  0.00    +0.000 A 
ATOM      6  C   UNL     1      47.346   5.714  13.600  0.00  0.00    +0.000 A 
ENDROOT
BRANCH   3   7
ATOM      7  C   UNL     1      49.117   9.181  11.650  0.00  0.00    +0.000 A 
ATOM      8  C   UNL     1      50.488   9.224  11.324  0.00  0.00    +0.000 A 
ATOM      9  C   UNL     1      51.057  10.326  10.674  0.00  0.00    +0.000 A 
ATOM     10  C   UNL     1      50.262  11.412  10.319  0.00  0.00    +0.000 A 
ATOM     11  C   UNL     1      48.908  11.394  10.630  0.00  0.00    +0.000 A 
ATOM     12 CL   UNL     1      47.912  12.725  10.184  0.00  0.00    +0.000 Cl
ATOM     13  C   UNL     1      48.345  10.303  11.296  0.00  0.00    +0.000 A 
ENDBRANCH   3   7
BRANCH   6  14
ATOM     14  C   UNL     1      46.863   4.486  14.345  0.00  0.00    +0.000 C 
ATOM     15  F   UNL     1      47.331   4.356  15.615  0.00  0.00    +0.000 F 
ATOM     16  F   UNL     1      45.504   4.473  14.465  0.00  0.00    +0.000 F 
ATOM     17  F   UNL     1      47.189   3.328  13.707  0.00  0.00    +0.000 F 
ENDBRANCH   6  14
BRANCH   1  18
ATOM     18  C   UNL     1      45.721   5.481  11.613  0.00  0.00    +0.000 C 
BRANCH  18  19
ATOM     19  C   UNL     1      45.722   5.791  10.119  0.00  0.00    +0.000 C 
BRANCH  19  20
ATOM     20  O   UNL     1      44.777   4.942   9.462  0.00  0.00    +0.000 OA
BRANCH  20  25
ATOM     21  C   UNL     1      46.555   2.574   7.239  0.00  0.00    +0.000 A 
ATOM     22  C   UNL     1      46.148   1.407   7.870  0.00  0.00    +0.000 A 
ATOM     23  N   UNL     1      45.367   1.391   8.977  0.00  0.00    +0.000 NA
ATOM     24  C   UNL     1      44.962   2.597   9.451  0.00  0.00    +0.000 A 
ATOM     25  C   UNL     1      45.289   3.819   8.872  0.00  0.00    +0.000 A 
ATOM     26  C   UNL     1      46.101   3.795   7.741  0.00  0.00    +0.000 A 
BRANCH  21  28
ATOM     27  N   UNL     1      48.781   2.514   6.273  0.00  0.00    +0.000 N 
ATOM     28  C   UNL     1      47.428   2.490   6.053  0.00  0.00    +0.000 C 
ATOM     29  O   UNL     1      46.970   2.370   4.927  0.00  0.00    +0.000 OA
ATOM     30  H   UNL     1      49.368   2.353   5.463  0.00  0.00    +0.000 HD
ATOM     31  H   UNL     1      49.193   2.345   7.179  0.00  0.00    +0.000 HD
ENDBRANCH  21  28
ENDBRANCH  20  25
ENDBRANCH  19  20
ENDBRANCH  18  19
ENDBRANCH   1  18
TORSDOF 7
ENDMDL
MODEL 6
REMARK VINA RESULT:    -7.351      3.480      4.839
REMARK INTER + INTRA:         -11.409
REMARK INTER:                  -9.705
REMARK INTRA:                  -1.704
REMARK UNBOUND:                -1.050
REMARK  Name = 
REMARK  7 active torsions:
REMARK  status: ('A' for Active; 'I' for Inactive)
REMARK    1  A    between atoms: C_2  and  C_4
REMARK    2  A    between atoms: C_8  and  O_9
REMARK    3  A    between atoms: O_9  and  C_10
REMARK    4  A    between atoms: C_10  and  C_11
REMARK    5  A    between atoms: C_11  and  C_12
REMARK    6  A    between atoms: C_14  and  C_15
REMARK    7  A    between atoms: C_24  and  C_25
REMARK                            x       y       z     vdW  Elec       q    Type
REMARK                         _______ _______ _______ _____ _____    ______ ____
ROOT
ATOM      1  C   UNL     1      47.599   8.095  11.956  0.00  0.00    +0.000 A 
ATOM      2  C   UNL     1      46.946   6.851  11.794  0.00  0.00    +0.000 A 
ATOM      3  C   UNL     1      45.545   6.708  11.821  0.00  0.00    +0.000 A 
ATOM      4  C   UNL     1      44.799   7.879  12.000  0.00  0.00    +0.000 A 
ATOM      5  C   UNL     1      45.420   9.130  12.098  0.00  0.00    +0.000 A 
ATOM      6  C   UNL     1      46.822   9.264  12.062  0.00  0.00    +0.000 A 
ENDROOT
BRANCH   3   7
ATOM      7  C   UNL     1      44.896   5.378  11.677  0.00  0.00    +0.000 A 
ATOM      8  C   UNL     1      44.141   4.803  12.720  0.00  0.00    +0.000 A 
ATOM      9  C   UNL     1      43.520   3.556  12.579  0.00  0.00    +0.000 A 
ATOM     10  C   UNL     1      43.625   2.856  11.381  0.00  0.00    +0.000 A 
ATOM     11  C   UNL     1      44.365   3.401  10.338  0.00  0.00    +0.000 A 
ATOM     12 CL   UNL     1      44.493   2.551   8.848  0.00  0.00    +0.000 Cl
ATOM     13  C   UNL     1      45.001   4.636  10.486  0.00  0.00    +0.000 A 
ENDBRANCH   3   7
BRANCH   6  14
ATOM     14  C   UNL     1      47.371  10.675  12.128  0.00  0.00    +0.000 C 
ATOM     15  F   UNL     1      48.164  11.039  11.085  0.00  0.00    +0.000 F 
ATOM     16  F   UNL     1      46.371  11.602  12.153  0.00  0.00    +0.000 F 
ATOM     17  F   UNL     1      48.107  10.895  13.252  0.00  0.00    +0.000 F 
ENDBRANCH   6  14
BRANCH   1  18
ATOM     18  C   UNL     1      49.113   8.085  12.008  0.00  0.00    +0.000 C 
BRANCH  18  19
ATOM     19  C   UNL     1      49.653   7.343  13.227  0.00  0.00    +0.000 C 
BRANCH  19  20
ATOM     20  O   UNL     1      49.111   7.933  14.413  0.00  0.00    +0.000 OA
BRANCH  20  25
ATOM     21  C   UNL     1      48.078   4.983  16.399  0.00  0.00    +0.000 A 
ATOM     22  C   UNL     1      48.236   5.556  17.653  0.00  0.00    +0.000 A 
ATOM     23  N   UNL     1      48.686   6.820  17.844  0.00  0.00    +0.000 NA
ATOM     24  C   UNL     1      48.964   7.540  16.727  0.00  0.00    +0.000 A 
ATOM     25  C   UNL     1      48.808   7.067  15.428  0.00  0.00    +0.000 A 
ATOM     26  C   UNL     1      48.353   5.761  15.272  0.00  0.00    +0.000 A 
BRANCH  21  28
ATOM     27  N   UNL     1      46.957   3.068  17.382  0.00  0.00    +0.000 N 
ATOM     28  C   UNL     1      47.607   3.590  16.294  0.00  0.00    +0.000 C 
ATOM     29  O   UNL     1      47.757   2.938  15.272  0.00  0.00    +0.000 OA
ATOM     30  H   UNL     1      46.550   2.148  17.260  0.00  0.00    +0.000 HD
ATOM     31  H   UNL     1      46.585   3.640  18.126  0.00  0.00    +0.000 HD
ENDBRANCH  21  28
ENDBRANCH  20  25
ENDBRANCH  19  20
ENDBRANCH  18  19
ENDBRANCH   1  18
TORSDOF 7
ENDMDL
MODEL 7
REMARK VINA RESULT:    -7.284      4.140      5.571
REMARK INTER + INTRA:         -11.314
REMARK INTER:                 -10.228
REMARK INTRA:                  -1.086
REMARK UNBOUND:                -1.050
REMARK  Name = 
REMARK  7 active torsions:
REMARK  status: ('A' for Active; 'I' for Inactive)
REMARK    1  A    between atoms: C_2  and  C_4
REMARK    2  A    between atoms: C_8  and  O_9
REMARK    3  A    between atoms: O_9  and  C_10
REMARK    4  A    between atoms: C_10  and  C_11
REMARK    5  A    between atoms: C_11  and  C_12
REMARK    6  A    between atoms: C_14  and  C_15
REMARK    7  A    between atoms: C_24  and  C_25
REMARK                            x       y       z     vdW  Elec       q    Type
REMARK                         _______ _______ _______ _____ _____    ______ ____
ROOT
ATOM      1  C   UNL     1      45.481   5.416  12.695  0.00  0.00    +0.000 A 
ATOM      2  C   UNL     1      46.587   6.294  12.628  0.00  0.00    +0.000 A 
ATOM      3  C   UNL     1      46.537   7.546  11.985  0.00  0.00    +0.000 A 
ATOM      4  C   UNL     1      45.310   7.909  11.415  0.00  0.00    +0.000 A 
ATOM      5  C   UNL     1      44.184   7.085  11.524  0.00  0.00    +0.000 A 
ATOM      6  C   UNL     1      44.242   5.838  12.177  0.00  0.00    +0.000 A 
ENDROOT
BRANCH   3   7
ATOM      7  C   UNL     1      47.729   8.430  11.908  0.00  0.00    +0.000 A 
ATOM      8  C   UNL     1      47.644   9.816  12.152  0.00  0.00    +0.000 A 
ATOM      9  C   UNL     1      48.770  10.646  12.092  0.00  0.00    +0.000 A 
ATOM     10  C   UNL     1      50.019  10.106  11.801  0.00  0.00    +0.000 A 
ATOM     11  C   UNL     1      50.130   8.742  11.556  0.00  0.00    +0.000 A 
ATOM     12 CL   UNL     1      51.671   8.061  11.206  0.00  0.00    +0.000 Cl
ATOM     13  C   UNL     1      49.003   7.918  11.596  0.00  0.00    +0.000 A 
ENDBRANCH   3   7
BRANCH   6  14
ATOM     14  C   UNL     1      42.944   5.061  12.271  0.00  0.00    +0.000 C 
ATOM     15  F   UNL     1      42.934   3.866  11.621  0.00  0.00    +0.000 F 
ATOM     16  F   UNL     1      42.631   4.762  13.565  0.00  0.00    +0.000 F 
ATOM     17  F   UNL     1      41.882   5.759  11.786  0.00  0.00    +0.000 F 
ENDBRANCH   6  14
BRANCH   1  18
ATOM     18  C   UNL     1      45.707   4.058  13.329  0.00  0.00    +0.000 C 
BRANCH  18  19
ATOM     19  C   UNL     1      46.951   4.025  14.213  0.00  0.00    +0.000 C 
BRANCH  19  20
ATOM     20  O   UNL     1      46.553   3.853  15.576  0.00  0.00    +0.000 OA
BRANCH  20  25
ATOM     21  C   UNL     1      49.635   3.072  17.475  0.00  0.00    +0.000 A 
ATOM     22  C   UNL     1      49.434   3.975  18.508  0.00  0.00    +0.000 A 
ATOM     23  N   UNL     1      48.373   4.816  18.569  0.00  0.00    +0.000 NA
ATOM     24  C   UNL     1      47.469   4.724  17.560  0.00  0.00    +0.000 A 
ATOM     25  C   UNL     1      47.564   3.832  16.497  0.00  0.00    +0.000 A 
ATOM     26  C   UNL     1      48.674   2.990  16.465  0.00  0.00    +0.000 A 
BRANCH  21  28
ATOM     27  N   UNL     1      51.870   2.601  18.297  0.00  0.00    +0.000 N 
ATOM     28  C   UNL     1      50.835   2.215  17.484  0.00  0.00    +0.000 C 
ATOM     29  O   UNL     1      50.896   1.190  16.824  0.00  0.00    +0.000 OA
ATOM     30  H   UNL     1      52.644   1.953  18.372  0.00  0.00    +0.000 HD
ATOM     31  H   UNL     1      51.761   3.275  19.041  0.00  0.00    +0.000 HD
ENDBRANCH  21  28
ENDBRANCH  20  25
ENDBRANCH  19  20
ENDBRANCH  18  19
ENDBRANCH   1  18
TORSDOF 7
ENDMDL
MODEL 8
REMARK VINA RESULT:    -7.179      4.250      5.961
REMARK INTER + INTRA:         -11.167
REMARK INTER:                 -10.142
REMARK INTRA:                  -1.025
REMARK UNBOUND:                -1.050
REMARK  Name = 
REMARK  7 active torsions:
REMARK  status: ('A' for Active; 'I' for Inactive)
REMARK    1  A    between atoms: C_2  and  C_4
REMARK    2  A    between atoms: C_8  and  O_9
REMARK    3  A    between atoms: O_9  and  C_10
REMARK    4  A    between atoms: C_10  and  C_11
REMARK    5  A    between atoms: C_11  and  C_12
REMARK    6  A    between atoms: C_14  and  C_15
REMARK    7  A    between atoms: C_24  and  C_25
REMARK                            x       y       z     vdW  Elec       q    Type
REMARK                         _______ _______ _______ _____ _____    ______ ____
ROOT
ATOM      1  C   UNL     1      46.251   4.826  13.135  0.00  0.00    +0.000 A 
ATOM      2  C   UNL     1      47.209   5.852  12.966  0.00  0.00    +0.000 A 
ATOM      3  C   UNL     1      47.064   6.892  12.027  0.00  0.00    +0.000 A 
ATOM      4  C   UNL     1      45.894   6.884  11.259  0.00  0.00    +0.000 A 
ATOM      5  C   UNL     1      44.902   5.916  11.453  0.00  0.00    +0.000 A 
ATOM      6  C   UNL     1      45.052   4.884  12.401  0.00  0.00    +0.000 A 
ENDROOT
BRANCH   3   7
ATOM      7  C   UNL     1      48.107   7.937  11.856  0.00  0.00    +0.000 A 
ATOM      8  C   UNL     1      49.470   7.608  11.699  0.00  0.00    +0.000 A 
ATOM      9  C   UNL     1      50.450   8.593  11.526  0.00  0.00    +0.000 A 
ATOM     10  C   UNL     1      50.091   9.937  11.491  0.00  0.00    +0.000 A 
ATOM     11  C   UNL     1      48.754  10.287  11.645  0.00  0.00    +0.000 A 
ATOM     12 CL   UNL     1      48.295  11.945  11.591  0.00  0.00    +0.000 Cl
ATOM     13  C   UNL     1      47.779   9.306  11.837  0.00  0.00    +0.000 A 
ENDBRANCH   3   7
BRANCH   6  14
ATOM     14  C   UNL     1      43.887   3.926  12.551  0.00  0.00    +0.000 C 
ATOM     15  F   UNL     1      43.225   3.999  13.737  0.00  0.00    +0.000 F 
ATOM     16  F   UNL     1      42.933   4.142  11.600  0.00  0.00    +0.000 F 
ATOM     17  F   UNL     1      44.261   2.625  12.412  0.00  0.00    +0.000 F 
ENDBRANCH   6  14
BRANCH   1  18
ATOM     18  C   UNL     1      46.586   3.715  14.110  0.00  0.00    +0.000 C 
BRANCH  18  19
ATOM     19  C   UNL     1      47.071   4.244  15.456  0.00  0.00    +0.000 C 
BRANCH  19  20
ATOM     20  O   UNL     1      47.531   3.148  16.253  0.00  0.00    +0.000 OA
BRANCH  20  25
ATOM     21  C   UNL     1      50.962   2.525  17.500  0.00  0.00    +0.000 A 
ATOM     22  C   UNL     1      51.227   3.817  17.928  0.00  0.00    +0.000 A 
ATOM     23  N   UNL     1      50.353   4.843  17.788  0.00  0.00    +0.000 NA
ATOM     24  C   UNL     1      49.157   4.548  17.217  0.00  0.00    +0.000 A 
ATOM     25  C   UNL     1      48.785   3.279  16.785  0.00  0.00    +0.000 A 
ATOM     26  C   UNL     1      49.713   2.252  16.936  0.00  0.00    +0.000 A 
BRANCH  21  28
ATOM     27  N   UNL     1      51.556   0.244  18.079  0.00  0.00    +0.000 N 
ATOM     28  C   UNL     1      51.988   1.480  17.672  0.00  0.00    +0.000 C 
ATOM     29  O   UNL     1      53.167   1.692  17.431  0.00  0.00    +0.000 OA
ATOM     30  H   UNL     1      52.255  -0.490  18.094  0.00  0.00    +0.000 HD
ATOM     31  H   UNL     1      50.590  -0.043  18.032  0.00  0.00    +0.000 HD
ENDBRANCH  21  28
ENDBRANCH  20  25
ENDBRANCH  19  20
ENDBRANCH  18  19
ENDBRANCH   1  18
TORSDOF 7
ENDMDL
MODEL 9
REMARK VINA RESULT:    -7.075      3.994      5.367
REMARK INTER + INTRA:         -11.020
REMARK INTER:                  -9.875
REMARK INTRA:                  -1.145
REMARK UNBOUND:                -1.050
REMARK  Name = 
REMARK  7 active torsions:
REMARK  status: ('A' for Active; 'I' for Inactive)
REMARK    1  A    between atoms: C_2  and  C_4
REMARK    2  A    between atoms: C_8  and  O_9
REMARK    3  A    between atoms: O_9  and  C_10
REMARK    4  A    between atoms: C_10  and  C_11
REMARK    5  A    between atoms: C_11  and  C_12
REMARK    6  A    between atoms: C_14  and  C_15
REMARK    7  A    between atoms: C_24  and  C_25
REMARK                            x       y       z     vdW  Elec       q    Type
REMARK                         _______ _______ _______ _____ _____    ______ ____
ROOT
ATOM      1  C   UNL     1      45.666   5.046  12.535  0.00  0.00    +0.000 A 
ATOM      2  C   UNL     1      46.766   5.932  12.463  0.00  0.00    +0.000 A 
ATOM      3  C   UNL     1      46.659   7.255  11.990  0.00  0.00    +0.000 A 
ATOM      4  C   UNL     1      45.383   7.680  11.602  0.00  0.00    +0.000 A 
ATOM      5  C   UNL     1      44.268   6.843  11.725  0.00  0.00    +0.000 A 
ATOM      6  C   UNL     1      44.383   5.524  12.206  0.00  0.00    +0.000 A 
ENDROOT
BRANCH   3   7
ATOM      7  C   UNL     1      47.845   8.147  11.901  0.00  0.00    +0.000 A 
ATOM      8  C   UNL     1      47.769   9.518  12.220  0.00  0.00    +0.000 A 
ATOM      9  C   UNL     1      48.889  10.355  12.146  0.00  0.00    +0.000 A 
ATOM     10  C   UNL     1      50.122   9.837  11.766  0.00  0.00    +0.000 A 
ATOM     11  C   UNL     1      50.224   8.488  11.445  0.00  0.00    +0.000 A 
ATOM     12 CL   UNL     1      51.747   7.833  10.985  0.00  0.00    +0.000 Cl
ATOM     13  C   UNL     1      49.102   7.658  11.499  0.00  0.00    +0.000 A 
ENDBRANCH   3   7
BRANCH   6  14
ATOM     14  C   UNL     1      43.096   4.735  12.339  0.00  0.00    +0.000 C 
ATOM     15  F   UNL     1      42.839   4.248  13.582  0.00  0.00    +0.000 F 
ATOM     16  F   UNL     1      42.007   5.494  12.024  0.00  0.00    +0.000 F 
ATOM     17  F   UNL     1      43.054   3.663  11.502  0.00  0.00    +0.000 F 
ENDBRANCH   6  14
BRANCH   1  18
ATOM     18  C   UNL     1      45.946   3.621  12.966  0.00  0.00    +0.000 C 
BRANCH  18  19
ATOM     19  C   UNL     1      47.054   3.533  14.012  0.00  0.00    +0.000 C 
BRANCH  19  20
ATOM     20  O   UNL     1      46.544   3.972  15.274  0.00  0.00    +0.000 OA
BRANCH  20  25
ATOM     21  C   UNL     1      48.315   4.399  18.498  0.00  0.00    +0.000 A 
ATOM     22  C   UNL     1      49.238   3.378  18.324  0.00  0.00    +0.000 A 
ATOM     23  N   UNL     1      49.262   2.571  17.235  0.00  0.00    +0.000 NA
ATOM     24  C   UNL     1      48.335   2.822  16.275  0.00  0.00    +0.000 A 
ATOM     25  C   UNL     1      47.390   3.841  16.341  0.00  0.00    +0.000 A 
ATOM     26  C   UNL     1      47.391   4.642  17.480  0.00  0.00    +0.000 A 
BRANCH  21  28
ATOM     27  N   UNL     1      48.157   4.545  20.915  0.00  0.00    +0.000 N 
ATOM     28  C   UNL     1      48.353   5.207  19.731  0.00  0.00    +0.000 C 
ATOM     29  O   UNL     1      48.581   6.407  19.705  0.00  0.00    +0.000 OA
ATOM     30  H   UNL     1      48.286   5.092  21.759  0.00  0.00    +0.000 HD
ATOM     31  H   UNL     1      48.230   3.542  21.002  0.00  0.00    +0.000 HD
ENDBRANCH  21  28
ENDBRANCH  20  25
ENDBRANCH  19  20
ENDBRANCH  18  19
ENDBRANCH   1  18
TORSDOF 7
ENDMDL
