MODEL 1
REMARK VINA RESULT:    -8.180      0.000      0.000
REMARK INTER + INTRA:         -12.741
REMARK INTER:                 -12.005
REMARK INTRA:                  -0.735
REMARK UNBOUND:                -0.735
REMARK  Name = 
REMARK  10 active torsions:
REMARK  status: ('A' for Active; 'I' for Inactive)
REMARK    1  A    between atoms: C_1  and  O_2
REMARK    2  A    between atoms: O_2  and  C_3
REMARK    3  A    between atoms: C_10  and  C_11
REMARK    4  A    between atoms: N_13  and  C_14
REMARK    5  A    between atoms: C_14  and  C_15
REMARK    6  A    between atoms: C_14  and  C_16
REMARK    7  A    between atoms: C_19  and  O_20
REMARK    8  A    between atoms: O_20  and  C_21
REMARK    9  A    between atoms: C_21  and  C_22
REMARK   10  A    between atoms: C_22  and  N_23
REMARK                            x       y       z     vdW  Elec       q    Type
REMARK                         _______ _______ _______ _____ _____    ______ ____
ROOT
ATOM      1  C   UNL     1      46.887   8.187  13.058  0.00  0.00    +0.000 C 
ATOM      2  C   UNL     1      48.058   8.687  12.203  0.00  0.00    +0.000 C 
ENDROOT
BRANCH   1   3
ATOM      3  C   UNL     1      46.036   7.204  12.271  0.00  0.00    +0.000 A 
ATOM      4  C   UNL     1      46.505   6.677  11.061  0.00  0.00    +0.000 A 
ATOM      5  C   UNL     1      45.784   5.681  10.387  0.00  0.00    +0.000 A 
ATOM      6  C   UNL     1      44.587   5.195  10.909  0.00  0.00    +0.000 A 
ATOM      7  C   UNL     1      44.079   5.763  12.077  0.00  0.00    +0.000 A 
ATOM      8  C   UNL     1      44.797   6.753  12.755  0.00  0.00    +0.000 A 
BRANCH   6   9
ATOM      9  O   UNL     1      43.833   4.191  10.345  0.00  0.00    +0.000 OA
BRANCH   9  10
ATOM     10  C   UNL     1      44.361   2.876  10.579  0.00  0.00    +0.000 C 
BRANCH  10  11
ATOM     11  C   UNL     1      44.454   2.074   9.266  0.00  0.00    +0.000 C 
BRANCH  11  12
ATOM     12  N   UNL     1      45.704   2.342   8.516  0.00  0.00    +0.000 NA
ATOM     13  C   UNL     1      46.275   1.109   7.948  0.00  0.00    +0.000 C 
ATOM     14  C   UNL     1      47.594   1.379   7.224  0.00  0.00    +0.000 C 
ATOM     15  C   UNL     1      47.417   2.421   6.131  0.00  0.00    +0.000 C 
ATOM     16  C   UNL     1      46.770   3.675   6.705  0.00  0.00    +0.000 C 
ATOM     17  C   UNL     1      45.478   3.346   7.461  0.00  0.00    +0.000 C 
ENDBRANCH  11  12
ENDBRANCH  10  11
ENDBRANCH   9  10
ENDBRANCH   6   9
ENDBRANCH   1   3
BRANCH   1  20
ATOM     18  C   UNL     1      48.456   6.781  14.344  0.00  0.00    +0.000 C 
ATOM     19  O   UNL     1      49.124   6.553  13.334  0.00  0.00    +0.000 OA
ATOM     20  N   UNL     1      47.364   7.604  14.303  0.00  0.00    +0.000 N 
ATOM     21  H   UNL     1      46.773   7.690  15.122  0.00  0.00    +0.000 HD
BRANCH  18  29
ATOM     22  C   UNL     1      47.158   4.175  16.229  0.00  0.00    +0.000 A 
ATOM     23  N   UNL     1      46.897   3.218  17.144  0.00  0.00    +0.000 NA
ATOM     24  C   UNL     1      47.664   3.150  18.233  0.00  0.00    +0.000 A 
ATOM     25  N   UNL     1      48.694   3.934  18.528  0.00  0.00    +0.000 NA
ATOM     26  C   UNL     1      48.935   4.861  17.586  0.00  0.00    +0.000 A 
ATOM     27  S   UNL     1      50.224   5.945  17.807  0.00  0.00    +0.000 S 
ATOM     28  C   UNL     1      49.897   6.708  16.330  0.00  0.00    +0.000 A 
ATOM     29  C   UNL     1      48.814   6.171  15.640  0.00  0.00    +0.000 A 
ATOM     30  C   UNL     1      48.236   5.063  16.396  0.00  0.00    +0.000 A 
BRANCH  22  32
ATOM     31  C   UNL     1      46.974   3.507  14.005  0.00  0.00    +0.000 C 
ATOM     32  O   UNL     1      46.364   4.201  15.098  0.00  0.00    +0.000 OA
ENDBRANCH  22  32
ENDBRANCH  18  29
ENDBRANCH   1  20
TORSDOF 8
ENDMDL
MODEL 2
REMARK VINA RESULT:    -7.584      2.038      2.706
REMARK INTER + INTRA:         -11.867
REMARK INTER:                 -10.250
REMARK INTRA:                  -1.616
REMARK UNBOUND:                -0.735
REMARK  Name = 
REMARK  10 active torsions:
REMARK  status: ('A' for Active; 'I' for Inactive)
REMARK    1  A    between atoms: C_1  and  O_2
REMARK    2  A    between atoms: O_2  and  C_3
REMARK    3  A    between atoms: C_10  and  C_11
REMARK    4  A    between atoms: N_13  and  C_14
REMARK    5  A    between atoms: C_14  and  C_15
REMARK    6  A    between atoms: C_14  and  C_16
REMARK    7  A    between atoms: C_19  and  O_20
REMARK    8  A    between atoms: O_20  and  C_21
REMARK    9  A    between atoms: C_21  and  C_22
REMARK   10  A    between atoms: C_22  and  N_23
REMARK                            x       y       z     vdW  Elec       q    Type
REMARK                         _______ _______ _______ _____ _____    ______ ____
ROOT
ATOM      1  C   UNL     1      48.435   7.659  13.120  0.00  0.00    +0.000 C 
ATOM      2  C   UNL     1      49.062   7.856  11.735  0.00  0.00    +0.000 C 
ENDROOT
BRANCH   1   3
ATOM      3  C   UNL     1      47.181   6.807  13.018  0.00  0.00    +0.000 A 
ATOM      4  C   UNL     1      47.199   5.471  13.441  0.00  0.00    +0.000 A 
ATOM      5  C   UNL     1      46.021   4.712  13.464  0.00  0.00    +0.000 A 
ATOM      6  C   UNL     1      44.808   5.272  13.070  0.00  0.00    +0.000 A 
ATOM      7  C   UNL     1      44.792   6.579  12.583  0.00  0.00    +0.000 A 
ATOM      8  C   UNL     1      45.964   7.341  12.562  0.00  0.00    +0.000 A 
BRANCH   6   9
ATOM      9  O   UNL     1      43.594   4.622  13.099  0.00  0.00    +0.000 OA
BRANCH   9  10
ATOM     10  C   UNL     1      43.038   4.384  11.798  0.00  0.00    +0.000 C 
BRANCH  10  11
ATOM     11  C   UNL     1      43.472   3.009  11.251  0.00  0.00    +0.000 C 
BRANCH  11  12
ATOM     12  N   UNL     1      44.596   3.102  10.290  0.00  0.00    +0.000 NA
ATOM     13  C   UNL     1      44.628   1.948   9.375  0.00  0.00    +0.000 C 
ATOM     14  C   UNL     1      45.821   2.016   8.422  0.00  0.00    +0.000 C 
ATOM     15  C   UNL     1      45.815   3.311   7.626  0.00  0.00    +0.000 C 
ATOM     16  C   UNL     1      45.720   4.504   8.569  0.00  0.00    +0.000 C 
ATOM     17  C   UNL     1      44.537   4.365   9.534  0.00  0.00    +0.000 C 
ENDBRANCH  11  12
ENDBRANCH  10  11
ENDBRANCH   9  10
ENDBRANCH   6   9
ENDBRANCH   1   3
BRANCH   1  20
ATOM     18  C   UNL     1      50.158   7.867  14.875  0.00  0.00    +0.000 C 
ATOM     19  O   UNL     1      50.012   9.090  14.913  0.00  0.00    +0.000 OA
ATOM     20  N   UNL     1      49.397   7.085  14.050  0.00  0.00    +0.000 N 
ATOM     21  H   UNL     1      49.608   6.099  13.963  0.00  0.00    +0.000 HD
BRANCH  18  29
ATOM     22  C   UNL     1      50.096   5.120  16.992  0.00  0.00    +0.000 A 
ATOM     23  N   UNL     1      50.376   4.107  17.839  0.00  0.00    +0.000 NA
ATOM     24  C   UNL     1      51.612   4.008  18.329  0.00  0.00    +0.000 A 
ATOM     25  N   UNL     1      52.637   4.811  18.066  0.00  0.00    +0.000 NA
ATOM     26  C   UNL     1      52.326   5.795  17.205  0.00  0.00    +0.000 A 
ATOM     27  S   UNL     1      53.527   6.909  16.759  0.00  0.00    +0.000 S 
ATOM     28  C   UNL     1      52.448   7.738  15.749  0.00  0.00    +0.000 A 
ATOM     29  C   UNL     1      51.164   7.201  15.725  0.00  0.00    +0.000 A 
ATOM     30  C   UNL     1      51.091   6.035  16.603  0.00  0.00    +0.000 A 
BRANCH  22  32
ATOM     31  C   UNL     1      48.012   4.082  16.927  0.00  0.00    +0.000 C 
ATOM     32  O   UNL     1      48.814   5.179  16.479  0.00  0.00    +0.000 OA
ENDBRANCH  22  32
ENDBRANCH  18  29
ENDBRANCH   1  20
TORSDOF 8
ENDMDL
MODEL 3
REMARK VINA RESULT:    -7.560      1.588      1.803
REMARK INTER + INTRA:         -11.830
REMARK INTER:                 -10.720
REMARK INTRA:                  -1.110
REMARK UNBOUND:                -0.735
REMARK  Name = 
REMARK  10 active torsions:
REMARK  status: ('A' for Active; 'I' for Inactive)
REMARK    1  A    between atoms: C_1  and  O_2
REMARK    2  A    between atoms: O_2  and  C_3
REMARK    3  A    between atoms: C_10  and  C_11
REMARK    4  A    between atoms: N_13  and  C_14
REMARK    5  A    between atoms: C_14  and  C_15
REMARK    6  A    between atoms: C_14  and  C_16
REMARK    7  A    between atoms: C_19  and  O_20
REMARK    8  A    between atoms: O_20  and  C_21
REMARK    9  A    between atoms: C_21  and  C_22
REMARK   10  A    between atoms: C_22  and  N_23
REMARK                            x       y       z     vdW  Elec       q    Type
REMARK                         _______ _______ _______ _____ _____    ______ ____
ROOT
ATOM      1  C   UNL     1      47.835   7.274  13.453  0.00  0.00    +0.000 C 
ATOM      2  C   UNL     1      49.159   6.913  12.768  0.00  0.00    +0.000 C 
ENDROOT
BRANCH   1   3
ATOM      3  C   UNL     1      46.698   6.441  12.883  0.00  0.00    +0.000 A 
ATOM      4  C   UNL     1      46.057   6.839  11.703  0.00  0.00    +0.000 A 
ATOM      5  C   UNL     1      45.090   6.019  11.103  0.00  0.00    +0.000 A 
ATOM      6  C   UNL     1      44.749   4.793  11.669  0.00  0.00    +0.000 A 
ATOM      7  C   UNL     1      45.333   4.421  12.880  0.00  0.00    +0.000 A 
ATOM      8  C   UNL     1      46.301   5.233  13.479  0.00  0.00    +0.000 A 
BRANCH   6   9
ATOM      9  O   UNL     1      43.847   3.902  11.132  0.00  0.00    +0.000 OA
BRANCH   9  10
ATOM     10  C   UNL     1      44.014   3.695   9.722  0.00  0.00    +0.000 C 
BRANCH  10  11
ATOM     11  C   UNL     1      44.662   2.327   9.434  0.00  0.00    +0.000 C 
BRANCH  11  12
ATOM     12  N   UNL     1      45.841   2.426   8.540  0.00  0.00    +0.000 NA
ATOM     13  C   UNL     1      46.227   1.112   7.999  0.00  0.00    +0.000 C 
ATOM     14  C   UNL     1      47.477   1.207   7.124  0.00  0.00    +0.000 C 
ATOM     15  C   UNL     1      47.278   2.198   5.988  0.00  0.00    +0.000 C 
ATOM     16  C   UNL     1      46.818   3.541   6.542  0.00  0.00    +0.000 C 
ATOM     17  C   UNL     1      45.593   3.386   7.450  0.00  0.00    +0.000 C 
ENDBRANCH  11  12
ENDBRANCH  10  11
ENDBRANCH   9  10
ENDBRANCH   6   9
ENDBRANCH   1   3
BRANCH   1  20
ATOM     18  C   UNL     1      48.752   7.921  15.651  0.00  0.00    +0.000 C 
ATOM     19  O   UNL     1      49.384   8.851  15.145  0.00  0.00    +0.000 OA
ATOM     20  N   UNL     1      47.937   7.122  14.897  0.00  0.00    +0.000 N 
ATOM     21  H   UNL     1      47.513   6.304  15.317  0.00  0.00    +0.000 HD
BRANCH  18  29
ATOM     22  C   UNL     1      48.634   5.029  17.562  0.00  0.00    +0.000 A 
ATOM     23  N   UNL     1      48.654   4.097  18.538  0.00  0.00    +0.000 NA
ATOM     24  C   UNL     1      48.804   4.499  19.801  0.00  0.00    +0.000 A 
ATOM     25  N   UNL     1      48.948   5.750  20.224  0.00  0.00    +0.000 NA
ATOM     26  C   UNL     1      48.942   6.647  19.224  0.00  0.00    +0.000 A 
ATOM     27  S   UNL     1      49.120   8.294  19.594  0.00  0.00    +0.000 S 
ATOM     28  C   UNL     1      49.023   8.720  17.956  0.00  0.00    +0.000 A 
ATOM     29  C   UNL     1      48.853   7.639  17.096  0.00  0.00    +0.000 A 
ATOM     30  C   UNL     1      48.801   6.394  17.859  0.00  0.00    +0.000 A 
BRANCH  22  32
ATOM     31  C   UNL     1      47.942   3.266  16.206  0.00  0.00    +0.000 C 
ATOM     32  O   UNL     1      48.508   4.579  16.261  0.00  0.00    +0.000 OA
ENDBRANCH  22  32
ENDBRANCH  18  29
ENDBRANCH   1  20
TORSDOF 8
ENDMDL
MODEL 4
REMARK VINA RESULT:    -7.262      2.290      3.035
REMARK INTER + INTRA:         -11.393
REMARK INTER:                 -10.208
REMARK INTRA:                  -1.185
REMARK UNBOUND:                -0.735
REMARK  Name = 
REMARK  10 active torsions:
REMARK  status: ('A' for Active; 'I' for Inactive)
REMARK    1  A    between atoms: C_1  and  O_2
REMARK    2  A    between atoms: O_2  and  C_3
REMARK    3  A    between atoms: C_10  and  C_11
REMARK    4  A    between atoms: N_13  and  C_14
REMARK    5  A    between atoms: C_14  and  C_15
REMARK    6  A    between atoms: C_14  and  C_16
REMARK    7  A    between atoms: C_19  and  O_20
REMARK    8  A    between atoms: O_20  and  C_21
REMARK    9  A    between atoms: C_21  and  C_22
REMARK   10  A    between atoms: C_22  and  N_23
REMARK                            x       y       z     vdW  Elec       q    Type
REMARK                         _______ _______ _______ _____ _____    ______ ____
ROOT
ATOM      1  C   UNL     1      48.868   7.614  15.224  0.00  0.00    +0.000 C 
ATOM      2  C   UNL     1      49.647   8.770  14.586  0.00  0.00    +0.000 C 
ENDROOT
BRANCH   1   3
ATOM      3  C   UNL     1      47.849   7.056  14.245  0.00  0.00    +0.000 A 
ATOM      4  C   UNL     1      47.595   5.678  14.200  0.00  0.00    +0.000 A 
ATOM      5  C   UNL     1      46.574   5.165  13.388  0.00  0.00    +0.000 A 
ATOM      6  C   UNL     1      45.790   6.015  12.610  0.00  0.00    +0.000 A 
ATOM      7  C   UNL     1      46.081   7.379  12.596  0.00  0.00    +0.000 A 
ATOM      8  C   UNL     1      47.095   7.896  13.408  0.00  0.00    +0.000 A 
BRANCH   6   9
ATOM      9  O   UNL     1      44.739   5.611  11.818  0.00  0.00    +0.000 OA
BRANCH   9  10
ATOM     10  C   UNL     1      45.130   5.259  10.482  0.00  0.00    +0.000 C 
BRANCH  10  11
ATOM     11  C   UNL     1      44.169   4.215   9.879  0.00  0.00    +0.000 C 
BRANCH  11  12
ATOM     12  N   UNL     1      44.782   3.442   8.773  0.00  0.00    +0.000 NA
ATOM     13  C   UNL     1      45.794   4.231   8.051  0.00  0.00    +0.000 C 
ATOM     14  C   UNL     1      46.383   3.452   6.875  0.00  0.00    +0.000 C 
ATOM     15  C   UNL     1      46.984   2.134   7.336  0.00  0.00    +0.000 C 
ATOM     16  C   UNL     1      45.957   1.343   8.136  0.00  0.00    +0.000 C 
ATOM     17  C   UNL     1      45.362   2.183   9.272  0.00  0.00    +0.000 C 
ENDBRANCH  11  12
ENDBRANCH  10  11
ENDBRANCH   9  10
ENDBRANCH   6   9
ENDBRANCH   1   3
BRANCH   1  20
ATOM     18  C   UNL     1      49.863   6.258  17.030  0.00  0.00    +0.000 C 
ATOM     19  O   UNL     1      49.133   6.788  17.869  0.00  0.00    +0.000 OA
ATOM     20  N   UNL     1      49.772   6.579  15.703  0.00  0.00    +0.000 N 
ATOM     21  H   UNL     1      50.452   6.207  15.052  0.00  0.00    +0.000 HD
BRANCH  18  29
ATOM     22  C   UNL     1      49.994   2.794  16.914  0.00  0.00    +0.000 A 
ATOM     23  N   UNL     1      50.333   1.489  16.973  0.00  0.00    +0.000 NA
ATOM     24  C   UNL     1      51.516   1.160  17.493  0.00  0.00    +0.000 A 
ATOM     25  N   UNL     1      52.434   1.994  17.968  0.00  0.00    +0.000 NA
ATOM     26  C   UNL     1      52.070   3.284  17.875  0.00  0.00    +0.000 A 
ATOM     27  S   UNL     1      53.134   4.483  18.434  0.00  0.00    +0.000 S 
ATOM     28  C   UNL     1      52.050   5.712  18.002  0.00  0.00    +0.000 A 
ATOM     29  C   UNL     1      50.867   5.253  17.431  0.00  0.00    +0.000 A 
ATOM     30  C   UNL     1      50.879   3.794  17.358  0.00  0.00    +0.000 A 
BRANCH  22  32
ATOM     31  C   UNL     1      47.729   3.157  17.320  0.00  0.00    +0.000 C 
ATOM     32  O   UNL     1      48.774   3.105  16.343  0.00  0.00    +0.000 OA
ENDBRANCH  22  32
ENDBRANCH  18  29
ENDBRANCH   1  20
TORSDOF 8
ENDMDL
MODEL 5
REMARK VINA RESULT:    -7.184      2.712      3.799
REMARK INTER + INTRA:         -11.279
REMARK INTER:                 -10.164
REMARK INTRA:                  -1.116
REMARK UNBOUND:                -0.735
REMARK  Name = 
REMARK  10 active torsions:
REMARK  status: ('A' for Active; 'I' for Inactive)
REMARK    1  A    between atoms: C_1  and  O_2
REMARK    2  A    between atoms: O_2  and  C_3
REMARK    3  A    between atoms: C_10  and  C_11
REMARK    4  A    between atoms: N_13  and  C_14
REMARK    5  A    between atoms: C_14  and  C_15
REMARK    6  A    between atoms: C_14  and  C_16
REMARK    7  A    between atoms: C_19  and  O_20
REMARK    8  A    between atoms: O_20  and  C_21
REMARK    9  A    between atoms: C_21  and  C_22
REMARK   10  A    between atoms: C_22  and  N_23
REMARK                            x       y       z     vdW  Elec       q    Type
REMARK                         _______ _______ _______ _____ _____    ______ ____
ROOT
ATOM      1  C   UNL     1      47.728   4.894  14.887  0.00  0.00    +0.000 C 
ATOM      2  C   UNL     1      47.329   3.901  15.984  0.00  0.00    +0.000 C 
ENDROOT
BRANCH   1   3
ATOM      3  C   UNL     1      46.788   4.779  13.698  0.00  0.00    +0.000 A 
ATOM      4  C   UNL     1      46.279   3.529  13.320  0.00  0.00    +0.000 A 
ATOM      5  C   UNL     1      45.319   3.426  12.303  0.00  0.00    +0.000 A 
ATOM      6  C   UNL     1      44.851   4.563  11.650  0.00  0.00    +0.000 A 
ATOM      7  C   UNL     1      45.402   5.804  11.973  0.00  0.00    +0.000 A 
ATOM      8  C   UNL     1      46.356   5.912  12.989  0.00  0.00    +0.000 A 
BRANCH   6   9
ATOM      9  O   UNL     1      43.881   4.567  10.673  0.00  0.00    +0.000 OA
BRANCH   9  10
ATOM     10  C   UNL     1      44.059   3.544   9.683  0.00  0.00    +0.000 C 
BRANCH  10  11
ATOM     11  C   UNL     1      44.768   4.098   8.431  0.00  0.00    +0.000 C 
BRANCH  11  12
ATOM     12  N   UNL     1      45.466   3.047   7.653  0.00  0.00    +0.000 NA
ATOM     13  C   UNL     1      46.594   3.598   6.883  0.00  0.00    +0.000 C 
ATOM     14  C   UNL     1      47.278   2.523   6.038  0.00  0.00    +0.000 C 
ATOM     15  C   UNL     1      47.754   1.365   6.900  0.00  0.00    +0.000 C 
ATOM     16  C   UNL     1      46.602   0.835   7.743  0.00  0.00    +0.000 C 
ATOM     17  C   UNL     1      45.920   1.957   8.534  0.00  0.00    +0.000 C 
ENDBRANCH  11  12
ENDBRANCH  10  11
ENDBRANCH   9  10
ENDBRANCH   6   9
ENDBRANCH   1   3
BRANCH   1  20
ATOM     18  C   UNL     1      48.920   6.799  15.907  0.00  0.00    +0.000 C 
ATOM     19  O   UNL     1      49.987   6.183  15.880  0.00  0.00    +0.000 OA
ATOM     20  N   UNL     1      47.770   6.253  15.405  0.00  0.00    +0.000 N 
ATOM     21  H   UNL     1      46.890   6.737  15.535  0.00  0.00    +0.000 HD
BRANCH  18  29
ATOM     22  C   UNL     1      47.634   8.103  18.853  0.00  0.00    +0.000 A 
ATOM     23  N   UNL     1      47.258   8.874  19.895  0.00  0.00    +0.000 NA
ATOM     24  C   UNL     1      47.497  10.184  19.838  0.00  0.00    +0.000 A 
ATOM     25  N   UNL     1      48.089  10.841  18.847  0.00  0.00    +0.000 NA
ATOM     26  C   UNL     1      48.466  10.039  17.837  0.00  0.00    +0.000 A 
ATOM     27  S   UNL     1      49.242  10.720  16.489  0.00  0.00    +0.000 S 
ATOM     28  C   UNL     1      49.381   9.204  15.744  0.00  0.00    +0.000 A 
ATOM     29  C   UNL     1      48.847   8.155  16.486  0.00  0.00    +0.000 A 
ATOM     30  C   UNL     1      48.295   8.658  17.742  0.00  0.00    +0.000 A 
BRANCH  22  32
ATOM     31  C   UNL     1      47.744   6.241  20.248  0.00  0.00    +0.000 C 
ATOM     32  O   UNL     1      47.398   6.744  18.954  0.00  0.00    +0.000 OA
ENDBRANCH  22  32
ENDBRANCH  18  29
ENDBRANCH   1  20
TORSDOF 8
ENDMDL
MODEL 6
REMARK VINA RESULT:    -6.928      2.183      3.377
REMARK INTER + INTRA:         -10.904
REMARK INTER:                  -9.819
REMARK INTRA:                  -1.084
REMARK UNBOUND:                -0.735
REMARK  Name = 
REMARK  10 active torsions:
REMARK  status: ('A' for Active; 'I' for Inactive)
REMARK    1  A    between atoms: C_1  and  O_2
REMARK    2  A    between atoms: O_2  and  C_3
REMARK    3  A    between atoms: C_10  and  C_11
REMARK    4  A    between atoms: N_13  and  C_14
REMARK    5  A    between atoms: C_14  and  C_15
REMARK    6  A    between atoms: C_14  and  C_16
REMARK    7  A    between atoms: C_19  and  O_20
REMARK    8  A    between atoms: O_20  and  C_21
REMARK    9  A    between atoms: C_21  and  C_22
REMARK   10  A    between atoms: C_22  and  N_23
REMARK                            x       y       z     vdW  Elec       q    Type
REMARK                         _______ _______ _______ _____ _____    ______ ____
ROOT
ATOM      1  C   UNL     1      47.030   7.443  13.305  0.00  0.00    +0.000 C 
ATOM      2  C   UNL     1      47.726   8.163  12.144  0.00  0.00    +0.000 C 
ENDROOT
BRANCH   1   3
ATOM      3  C   UNL     1      45.989   6.469  12.779  0.00  0.00    +0.000 A 
ATOM      4  C   UNL     1      44.906   6.935  12.022  0.00  0.00    +0.000 A 
ATOM      5  C   UNL     1      44.007   6.036  11.431  0.00  0.00    +0.000 A 
ATOM      6  C   UNL     1      44.174   4.661  11.584  0.00  0.00    +0.000 A 
ATOM      7  C   UNL     1      45.209   4.191  12.393  0.00  0.00    +0.000 A 
ATOM      8  C   UNL     1      46.110   5.084  12.980  0.00  0.00    +0.000 A 
BRANCH   6   9
ATOM      9  O   UNL     1      43.372   3.702  11.007  0.00  0.00    +0.000 OA
BRANCH   9  10
ATOM     10  C   UNL     1      44.062   2.864  10.069  0.00  0.00    +0.000 C 
BRANCH  10  11
ATOM     11  C   UNL     1      44.486   3.662   8.819  0.00  0.00    +0.000 C 
BRANCH  11  12
ATOM     12  N   UNL     1      45.312   2.865   7.882  0.00  0.00    +0.000 NA
ATOM     13  C   UNL     1      46.358   3.683   7.245  0.00  0.00    +0.000 C 
ATOM     14  C   UNL     1      47.172   2.874   6.236  0.00  0.00    +0.000 C 
ATOM     15  C   UNL     1      47.796   1.651   6.889  0.00  0.00    +0.000 C 
ATOM     16  C   UNL     1      46.725   0.835   7.601  0.00  0.00    +0.000 C 
ATOM     17  C   UNL     1      45.905   1.701   8.565  0.00  0.00    +0.000 C 
ENDBRANCH  11  12
ENDBRANCH  10  11
ENDBRANCH   9  10
ENDBRANCH   6   9
ENDBRANCH   1   3
BRANCH   1  20
ATOM     18  C   UNL     1      48.583   7.416  15.223  0.00  0.00    +0.000 C 
ATOM     19  O   UNL     1      48.260   8.562  15.538  0.00  0.00    +0.000 OA
ATOM     20  N   UNL     1      48.000   6.778  14.163  0.00  0.00    +0.000 N 
ATOM     21  H   UNL     1      48.357   5.879  13.863  0.00  0.00    +0.000 HD
BRANCH  18  29
ATOM     22  C   UNL     1      52.019   7.746  15.560  0.00  0.00    +0.000 A 
ATOM     23  N   UNL     1      53.322   7.648  15.899  0.00  0.00    +0.000 NA
ATOM     24  C   UNL     1      53.693   6.677  16.735  0.00  0.00    +0.000 A 
ATOM     25  N   UNL     1      52.903   5.770  17.297  0.00  0.00    +0.000 NA
ATOM     26  C   UNL     1      51.612   5.911  16.952  0.00  0.00    +0.000 A 
ATOM     27  S   UNL     1      50.466   4.832  17.589  0.00  0.00    +0.000 S 
ATOM     28  C   UNL     1      49.208   5.606  16.759  0.00  0.00    +0.000 A 
ATOM     29  C   UNL     1      49.617   6.687  15.985  0.00  0.00    +0.000 A 
ATOM     30  C   UNL     1      51.062   6.868  16.099  0.00  0.00    +0.000 A 
BRANCH  22  32
ATOM     31  C   UNL     1      51.695   8.381  13.342  0.00  0.00    +0.000 C 
ATOM     32  O   UNL     1      51.662   8.781  14.716  0.00  0.00    +0.000 OA
ENDBRANCH  22  32
ENDBRANCH  18  29
ENDBRANCH   1  20
TORSDOF 8
ENDMDL
MODEL 7
REMARK VINA RESULT:    -6.810      4.004      6.713
REMARK INTER + INTRA:         -10.730
REMARK INTER:                  -9.448
REMARK INTRA:                  -1.282
REMARK UNBOUND:                -0.735
REMARK  Name = 
REMARK  10 active torsions:
REMARK  status: ('A' for Active; 'I' for Inactive)
REMARK    1  A    between atoms: C_1  and  O_2
REMARK    2  A    between atoms: O_2  and  C_3
REMARK    3  A    between atoms: C_10  and  C_11
REMARK    4  A    between atoms: N_13  and  C_14
REMARK    5  A    between atoms: C_14  and  C_15
REMARK    6  A    between atoms: C_14  and  C_16
REMARK    7  A    between atoms: C_19  and  O_20
REMARK    8  A    between atoms: O_20  and  C_21
REMARK    9  A    between atoms: C_21  and  C_22
REMARK   10  A    between atoms: C_22  and  N_23
REMARK                            x       y       z     vdW  Elec       q    Type
REMARK                         _______ _______ _______ _____ _____    ______ ____
ROOT
ATOM      1  C   UNL     1      45.603   5.198  13.046  0.00  0.00    +0.000 C 
ATOM      2  C   UNL     1      44.293   4.411  13.172  0.00  0.00    +0.000 C 
ENDROOT
BRANCH   1   3
ATOM      3  C   UNL     1      45.334   6.595  12.511  0.00  0.00    +0.000 A 
ATOM      4  C   UNL     1      44.386   6.791  11.498  0.00  0.00    +0.000 A 
ATOM      5  C   UNL     1      44.043   8.085  11.080  0.00  0.00    +0.000 A 
ATOM      6  C   UNL     1      44.637   9.201  11.665  0.00  0.00    +0.000 A 
ATOM      7  C   UNL     1      45.631   9.013  12.626  0.00  0.00    +0.000 A 
ATOM      8  C   UNL     1      45.973   7.724  13.048  0.00  0.00    +0.000 A 
BRANCH   6   9
ATOM      9  O   UNL     1      44.334  10.508  11.355  0.00  0.00    +0.000 OA
BRANCH   9  10
ATOM     10  C   UNL     1      43.036  10.672  10.764  0.00  0.00    +0.000 C 
BRANCH  10  11
ATOM     11  C   UNL     1      42.226  11.760  11.495  0.00  0.00    +0.000 C 
BRANCH  11  12
ATOM     12  N   UNL     1      40.939  11.256  12.031  0.00  0.00    +0.000 NA
ATOM     13  C   UNL     1      40.163  12.325  12.682  0.00  0.00    +0.000 C 
ATOM     14  C   UNL     1      38.863  11.793  13.283  0.00  0.00    +0.000 C 
ATOM     15  C   UNL     1      38.013  11.102  12.229  0.00  0.00    +0.000 C 
ATOM     16  C   UNL     1      38.833  10.037  11.512  0.00  0.00    +0.000 C 
ATOM     17  C   UNL     1      40.147  10.610  10.970  0.00  0.00    +0.000 C 
ENDBRANCH  11  12
ENDBRANCH  10  11
ENDBRANCH   9  10
ENDBRANCH   6   9
ENDBRANCH   1   3
BRANCH   1  20
ATOM     18  C   UNL     1      47.101   4.207  14.738  0.00  0.00    +0.000 C 
ATOM     19  O   UNL     1      47.302   3.222  14.024  0.00  0.00    +0.000 OA
ATOM     20  N   UNL     1      46.310   5.240  14.318  0.00  0.00    +0.000 N 
ATOM     21  H   UNL     1      46.078   5.985  14.963  0.00  0.00    +0.000 HD
BRANCH  18  29
ATOM     22  C   UNL     1      48.819   6.695  16.436  0.00  0.00    +0.000 A 
ATOM     23  N   UNL     1      49.478   7.461  17.331  0.00  0.00    +0.000 NA
ATOM     24  C   UNL     1      49.780   6.938  18.520  0.00  0.00    +0.000 A 
ATOM     25  N   UNL     1      49.492   5.712  18.943  0.00  0.00    +0.000 NA
ATOM     26  C   UNL     1      48.821   4.986  18.034  0.00  0.00    +0.000 A 
ATOM     27  S   UNL     1      48.371   3.395  18.419  0.00  0.00    +0.000 S 
ATOM     28  C   UNL     1      47.635   3.187  16.906  0.00  0.00    +0.000 A 
ATOM     29  C   UNL     1      47.712   4.304  16.079  0.00  0.00    +0.000 A 
ATOM     30  C   UNL     1      48.427   5.383  16.756  0.00  0.00    +0.000 A 
BRANCH  22  32
ATOM     31  C   UNL     1      49.609   7.290  14.327  0.00  0.00    +0.000 C 
ATOM     32  O   UNL     1      48.495   7.276  15.225  0.00  0.00    +0.000 OA
ENDBRANCH  22  32
ENDBRANCH  18  29
ENDBRANCH   1  20
TORSDOF 8
ENDMDL
MODEL 8
REMARK VINA RESULT:    -6.791      3.017      7.637
REMARK INTER + INTRA:         -10.702
REMARK INTER:                  -8.861
REMARK INTRA:                  -1.841
REMARK UNBOUND:                -0.735
REMARK  Name = 
REMARK  10 active torsions:
REMARK  status: ('A' for Active; 'I' for Inactive)
REMARK    1  A    between atoms: C_1  and  O_2
REMARK    2  A    between atoms: O_2  and  C_3
REMARK    3  A    between atoms: C_10  and  C_11
REMARK    4  A    between atoms: N_13  and  C_14
REMARK    5  A    between atoms: C_14  and  C_15
REMARK    6  A    between atoms: C_14  and  C_16
REMARK    7  A    between atoms: C_19  and  O_20
REMARK    8  A    between atoms: O_20  and  C_21
REMARK    9  A    between atoms: C_21  and  C_22
REMARK   10  A    between atoms: C_22  and  N_23
REMARK                            x       y       z     vdW  Elec       q    Type
REMARK                         _______ _______ _______ _____ _____    ______ ____
ROOT
ATOM      1  C   UNL     1      47.555   8.452  12.867  0.00  0.00    +0.000 C 
ATOM      2  C   UNL     1      46.833   9.803  12.811  0.00  0.00    +0.000 C 
ENDROOT
BRANCH   1   3
ATOM      3  C   UNL     1      48.046   8.170  14.277  0.00  0.00    +0.000 A 
ATOM      4  C   UNL     1      48.725   6.978  14.563  0.00  0.00    +0.000 A 
ATOM      5  C   UNL     1      49.286   6.760  15.828  0.00  0.00    +0.000 A 
ATOM      6  C   UNL     1      49.183   7.726  16.827  0.00  0.00    +0.000 A 
ATOM      7  C   UNL     1      48.450   8.885  16.573  0.00  0.00    +0.000 A 
ATOM      8  C   UNL     1      47.892   9.109  15.311  0.00  0.00    +0.000 A 
BRANCH   6   9
ATOM      9  O   UNL     1      49.737   7.622  18.083  0.00  0.00    +0.000 OA
BRANCH   9  10
ATOM     10  C   UNL     1      49.060   6.686  18.935  0.00  0.00    +0.000 C 
BRANCH  10  11
ATOM     11  C   UNL     1      49.993   5.527  19.339  0.00  0.00    +0.000 C 
BRANCH  11  12
ATOM     12  N   UNL     1      49.562   4.222  18.782  0.00  0.00    +0.000 NA
ATOM     13  C   UNL     1      48.203   4.292  18.218  0.00  0.00    +0.000 C 
ATOM     14  C   UNL     1      47.739   2.933  17.696  0.00  0.00    +0.000 C 
ATOM     15  C   UNL     1      48.705   2.383  16.658  0.00  0.00    +0.000 C 
ATOM     16  C   UNL     1      50.121   2.368  17.220  0.00  0.00    +0.000 C 
ATOM     17  C   UNL     1      50.521   3.740  17.773  0.00  0.00    +0.000 C 
ENDBRANCH  11  12
ENDBRANCH  10  11
ENDBRANCH   9  10
ENDBRANCH   6   9
ENDBRANCH   1   3
BRANCH   1  20
ATOM     18  C   UNL     1      47.008   6.671  11.249  0.00  0.00    +0.000 C 
ATOM     19  O   UNL     1      48.062   6.861  10.639  0.00  0.00    +0.000 OA
ATOM     20  N   UNL     1      46.699   7.382  12.375  0.00  0.00    +0.000 N 
ATOM     21  H   UNL     1      45.783   7.280  12.795  0.00  0.00    +0.000 HD
BRANCH  18  29
ATOM     22  C   UNL     1      44.905   4.419  12.842  0.00  0.00    +0.000 A 
ATOM     23  N   UNL     1      43.989   3.485  13.175  0.00  0.00    +0.000 NA
ATOM     24  C   UNL     1      43.356   2.836  12.197  0.00  0.00    +0.000 A 
ATOM     25  N   UNL     1      43.521   3.013  10.891  0.00  0.00    +0.000 NA
ATOM     26  C   UNL     1      44.424   3.964  10.599  0.00  0.00    +0.000 A 
ATOM     27  S   UNL     1      44.751   4.318   8.971  0.00  0.00    +0.000 S 
ATOM     28  C   UNL     1      45.879   5.505   9.407  0.00  0.00    +0.000 A 
ATOM     29  C   UNL     1      46.038   5.661  10.781  0.00  0.00    +0.000 A 
ATOM     30  C   UNL     1      45.166   4.732  11.496  0.00  0.00    +0.000 A 
BRANCH  22  32
ATOM     31  C   UNL     1      46.623   4.354  14.414  0.00  0.00    +0.000 C 
ATOM     32  O   UNL     1      45.523   5.095  13.878  0.00  0.00    +0.000 OA
ENDBRANCH  22  32
ENDBRANCH  18  29
ENDBRANCH   1  20
TORSDOF 8
ENDMDL
MODEL 9
REMARK VINA RESULT:    -6.388      2.220      2.819
REMARK INTER + INTRA:         -10.111
REMARK INTER:                  -9.131
REMARK INTRA:                  -0.979
REMARK UNBOUND:                -0.735
REMARK  Name = 
REMARK  10 active torsions:
REMARK  status: ('A' for Active; 'I' for Inactive)
REMARK    1  A    between atoms: C_1  and  O_2
REMARK    2  A    between atoms: O_2  and  C_3
REMARK    3  A    between atoms: C_10  and  C_11
REMARK    4  A    between atoms: N_13  and  C_14
REMARK    5  A    between atoms: C_14  and  C_15
REMARK    6  A    between atoms: C_14  and  C_16
REMARK    7  A    between atoms: C_19  and  O_20
REMARK    8  A    between atoms: O_20  and  C_21
REMARK    9  A    between atoms: C_21  and  C_22
REMARK   10  A    between atoms: C_22  and  N_23
REMARK                            x       y       z     vdW  Elec       q    Type
REMARK                         _______ _______ _______ _____ _____    ______ ____
ROOT
ATOM      1  C   UNL     1      47.290   8.136  13.639  0.00  0.00    +0.000 C 
ATOM      2  C   UNL     1      48.053   9.037  12.662  0.00  0.00    +0.000 C 
ENDROOT
BRANCH   1   3
ATOM      3  C   UNL     1      46.460   7.112  12.881  0.00  0.00    +0.000 A 
ATOM      4  C   UNL     1      46.518   5.757  13.234  0.00  0.00    +0.000 A 
ATOM      5  C   UNL     1      45.671   4.822  12.624  0.00  0.00    +0.000 A 
ATOM      6  C   UNL     1      44.752   5.222  11.655  0.00  0.00    +0.000 A 
ATOM      7  C   UNL     1      44.736   6.557  11.249  0.00  0.00    +0.000 A 
ATOM      8  C   UNL     1      45.576   7.493  11.859  0.00  0.00    +0.000 A 
BRANCH   6   9
ATOM      9  O   UNL     1      43.851   4.388  11.033  0.00  0.00    +0.000 OA
BRANCH   9  10
ATOM     10  C   UNL     1      44.465   3.286  10.349  0.00  0.00    +0.000 C 
BRANCH  10  11
ATOM     11  C   UNL     1      44.681   3.609   8.857  0.00  0.00    +0.000 C 
BRANCH  11  12
ATOM     12  N   UNL     1      45.851   2.906   8.281  0.00  0.00    +0.000 NA
ATOM     13  C   UNL     1      45.669   1.445   8.290  0.00  0.00    +0.000 C 
ATOM     14  C   UNL     1      46.900   0.719   7.748  0.00  0.00    +0.000 C 
ATOM     15  C   UNL     1      47.242   1.191   6.343  0.00  0.00    +0.000 C 
ATOM     16  C   UNL     1      47.370   2.709   6.319  0.00  0.00    +0.000 C 
ATOM     17  C   UNL     1      46.132   3.388   6.917  0.00  0.00    +0.000 C 
ENDBRANCH  11  12
ENDBRANCH  10  11
ENDBRANCH   9  10
ENDBRANCH   6   9
ENDBRANCH   1   3
BRANCH   1  20
ATOM     18  C   UNL     1      48.532   8.078  15.771  0.00  0.00    +0.000 C 
ATOM     19  O   UNL     1      48.020   9.140  16.130  0.00  0.00    +0.000 OA
ATOM     20  N   UNL     1      48.200   7.497  14.578  0.00  0.00    +0.000 N 
ATOM     21  H   UNL     1      48.711   6.682  14.260  0.00  0.00    +0.000 HD
BRANCH  18  29
ATOM     22  C   UNL     1      48.712   7.326  19.152  0.00  0.00    +0.000 A 
ATOM     23  N   UNL     1      49.041   6.885  20.384  0.00  0.00    +0.000 NA
ATOM     24  C   UNL     1      50.203   6.252  20.547  0.00  0.00    +0.000 A 
ATOM     25  N   UNL     1      51.101   5.988  19.605  0.00  0.00    +0.000 NA
ATOM     26  C   UNL     1      50.731   6.424  18.389  0.00  0.00    +0.000 A 
ATOM     27  S   UNL     1      51.767   6.163  17.069  0.00  0.00    +0.000 S 
ATOM     28  C   UNL     1      50.686   6.926  16.010  0.00  0.00    +0.000 A 
ATOM     29  C   UNL     1      49.527   7.395  16.621  0.00  0.00    +0.000 A 
ATOM     30  C   UNL     1      49.556   7.096  18.050  0.00  0.00    +0.000 A 
BRANCH  22  32
ATOM     31  C   UNL     1      47.396   9.128  19.820  0.00  0.00    +0.000 C 
ATOM     32  O   UNL     1      47.487   7.952  19.010  0.00  0.00    +0.000 OA
ENDBRANCH  22  32
ENDBRANCH  18  29
ENDBRANCH   1  20
TORSDOF 8
ENDMDL
