MODEL 1
REMARK VINA RESULT:    -7.668      0.000      0.000
REMARK INTER + INTRA:         -11.923
REMARK INTER:                 -10.805
REMARK INTRA:                  -1.118
REMARK UNBOUND:                -1.118
REMARK  Name = 
REMARK  8 active torsions:
REMARK  status: ('A' for Active; 'I' for Inactive)
REMARK    1  A    between atoms: C_1  and  C_2
REMARK    2  A    between atoms: C_6  and  C_7
REMARK    3  A    between atoms: C_7  and  O_8
REMARK    4  A    between atoms: O_8  and  C_9
REMARK    5  A    between atoms: C_9  and  C_10
REMARK    6  A    between atoms: C_13  and  C_14
REMARK    7  A    between atoms: C_14  and  N_15
REMARK    8  A    between atoms: C_16  and  C_18
REMARK                            x       y       z     vdW  Elec       q    Type
REMARK                         _______ _______ _______ _____ _____    ______ ____
ROOT
ATOM      1  C   UNL     1      44.725   4.080  12.586  0.00  0.00    +0.000 A 
ATOM      2  C   UNL     1      45.939   3.592  12.993  0.00  0.00    +0.000 A 
ATOM      3  N   UNL     1      46.970   4.372  13.373  0.00  0.00    +0.000 NA
ATOM      4  C   UNL     1      46.760   5.703  13.371  0.00  0.00    +0.000 A 
ATOM      5  N   UNL     1      45.624   6.288  12.942  0.00  0.00    +0.000 NA
ATOM      6  C   UNL     1      44.631   5.457  12.569  0.00  0.00    +0.000 A 
ENDROOT
BRANCH   1   7
ATOM      7  C   UNL     1      43.585   3.204  12.188  0.00  0.00    +0.000 C 
BRANCH   7   8
ATOM      8  O   UNL     1      43.425   3.276  10.775  0.00  0.00    +0.000 OA
BRANCH   8   9
ATOM      9  C   UNL     1      44.096   2.207  10.105  0.00  0.00    +0.000 C 
BRANCH   9  15
ATOM     10  C   UNL     1      47.628   1.375   6.828  0.00  0.00    +0.000 C 
ATOM     11  C   UNL     1      46.728   2.343   7.525  0.00  0.00    +0.000 A 
ATOM     12  C   UNL     1      46.768   3.702   7.235  0.00  0.00    +0.000 A 
ATOM     13  N   UNL     1      45.974   4.606   7.852  0.00  0.00    +0.000 NA
ATOM     14  C   UNL     1      45.120   4.094   8.769  0.00  0.00    +0.000 A 
ATOM     15  C   UNL     1      45.049   2.736   9.065  0.00  0.00    +0.000 A 
ATOM     16  N   UNL     1      45.871   1.842   8.450  0.00  0.00    +0.000 NA
ENDBRANCH   9  15
ENDBRANCH   8   9
ENDBRANCH   7   8
ENDBRANCH   1   7
BRANCH   4  17
ATOM     17  C   UNL     1      47.882   6.580  13.873  0.00  0.00    +0.000 C 
BRANCH  17  18
ATOM     18  N   UNL     1      47.897   6.756  15.308  0.00  0.00    +0.000 N 
ATOM     19  C   UNL     1      49.108   6.765  15.953  0.00  0.00    +0.000 C 
ATOM     20  O   UNL     1      50.152   6.464  15.380  0.00  0.00    +0.000 OA
ATOM     21  H   UNL     1      47.144   7.320  15.690  0.00  0.00    +0.000 HD
BRANCH  19  22
ATOM     22  C   UNL     1      49.076   7.046  17.385  0.00  0.00    +0.000 A 
ATOM     23  C   UNL     1      49.561   8.247  17.888  0.00  0.00    +0.000 A 
ATOM     24  S   UNL     1      49.958   8.127  19.548  0.00  0.00    +0.000 S 
ATOM     25  C   UNL     1      49.292   6.563  19.647  0.00  0.00    +0.000 A 
ATOM     26  N   UNL     1      49.399   5.795  20.761  0.00  0.00    +0.000 NA
ATOM     27  C   UNL     1      48.770   4.667  20.687  0.00  0.00    +0.000 A 
ATOM     28  N   UNL     1      47.987   4.261  19.633  0.00  0.00    +0.000 N 
ATOM     29  C   UNL     1      47.851   5.006  18.488  0.00  0.00    +0.000 A 
ATOM     30  O   UNL     1      47.073   4.695  17.592  0.00  0.00    +0.000 OA
ATOM     31  C   UNL     1      48.664   6.206  18.470  0.00  0.00    +0.000 A 
ATOM     32  H   UNL     1      47.446   3.412  19.683  0.00  0.00    +0.000 HD
ENDBRANCH  19  22
ENDBRANCH  17  18
ENDBRANCH   4  17
TORSDOF 7
ENDMDL
MODEL 2
REMARK VINA RESULT:    -7.624      1.725      1.993
REMARK INTER + INTRA:         -11.862
REMARK INTER:                 -10.825
REMARK INTRA:                  -1.037
REMARK UNBOUND:                -1.118
REMARK  Name = 
REMARK  8 active torsions:
REMARK  status: ('A' for Active; 'I' for Inactive)
REMARK    1  A    between atoms: C_1  and  C_2
REMARK    2  A    between atoms: C_6  and  C_7
REMARK    3  A    between atoms: C_7  and  O_8
REMARK    4  A    between atoms: O_8  and  C_9
REMARK    5  A    between atoms: C_9  and  C_10
REMARK    6  A    between atoms: C_13  and  C_14
REMARK    7  A    between atoms: C_14  and  N_15
REMARK    8  A    between atoms: C_16  and  C_18
REMARK                            x       y       z     vdW  Elec       q    Type
REMARK                         _______ _______ _______ _____ _____    ______ ____
ROOT
ATOM      1  C   UNL     1      44.359   4.930  12.470  0.00  0.00    +0.000 A 
ATOM      2  C   UNL     1      44.468   6.278  12.246  0.00  0.00    +0.000 A 
ATOM      3  N   UNL     1      45.518   7.021  12.647  0.00  0.00    +0.000 NA
ATOM      4  C   UNL     1      46.518   6.373  13.276  0.00  0.00    +0.000 A 
ATOM      5  N   UNL     1      46.489   5.063  13.590  0.00  0.00    +0.000 NA
ATOM      6  C   UNL     1      45.411   4.374  13.168  0.00  0.00    +0.000 A 
ENDROOT
BRANCH   1   7
ATOM      7  C   UNL     1      43.200   4.117  12.002  0.00  0.00    +0.000 C 
BRANCH   7   8
ATOM      8  O   UNL     1      43.325   3.908  10.599  0.00  0.00    +0.000 OA
BRANCH   8   9
ATOM      9  C   UNL     1      44.079   2.732  10.298  0.00  0.00    +0.000 C 
BRANCH   9  15
ATOM     10  C   UNL     1      47.295   1.002   7.047  0.00  0.00    +0.000 C 
ATOM     11  C   UNL     1      46.580   2.170   7.646  0.00  0.00    +0.000 A 
ATOM     12  C   UNL     1      46.804   3.463   7.192  0.00  0.00    +0.000 A 
ATOM     13  N   UNL     1      46.180   4.542   7.717  0.00  0.00    +0.000 NA
ATOM     14  C   UNL     1      45.305   4.275   8.714  0.00  0.00    +0.000 A 
ATOM     15  C   UNL     1      45.050   2.987   9.175  0.00  0.00    +0.000 A 
ATOM     16  N   UNL     1      45.703   1.914   8.650  0.00  0.00    +0.000 NA
ENDBRANCH   9  15
ENDBRANCH   8   9
ENDBRANCH   7   8
ENDBRANCH   1   7
BRANCH   4  17
ATOM     17  C   UNL     1      47.735   7.183  13.655  0.00  0.00    +0.000 C 
BRANCH  17  18
ATOM     18  N   UNL     1      48.615   6.523  14.593  0.00  0.00    +0.000 N 
ATOM     19  C   UNL     1      48.866   7.136  15.795  0.00  0.00    +0.000 C 
ATOM     20  O   UNL     1      48.508   8.288  16.024  0.00  0.00    +0.000 OA
ATOM     21  H   UNL     1      48.608   5.508  14.563  0.00  0.00    +0.000 HD
BRANCH  19  22
ATOM     22  C   UNL     1      49.678   6.383  16.747  0.00  0.00    +0.000 A 
ATOM     23  C   UNL     1      50.759   6.975  17.387  0.00  0.00    +0.000 A 
ATOM     24  S   UNL     1      51.869   5.809  17.969  0.00  0.00    +0.000 S 
ATOM     25  C   UNL     1      50.818   4.532  17.565  0.00  0.00    +0.000 A 
ATOM     26  N   UNL     1      51.181   3.229  17.671  0.00  0.00    +0.000 NA
ATOM     27  C   UNL     1      50.234   2.392  17.394  0.00  0.00    +0.000 A 
ATOM     28  N   UNL     1      48.938   2.731  17.088  0.00  0.00    +0.000 N 
ATOM     29  C   UNL     1      48.528   4.036  16.971  0.00  0.00    +0.000 A 
ATOM     30  O   UNL     1      47.352   4.340  16.800  0.00  0.00    +0.000 OA
ATOM     31  C   UNL     1      49.597   5.003  17.122  0.00  0.00    +0.000 A 
ATOM     32  H   UNL     1      48.227   2.026  16.980  0.00  0.00    +0.000 HD
ENDBRANCH  19  22
ENDBRANCH  17  18
ENDBRANCH   4  17
TORSDOF 7
ENDMDL
MODEL 3
REMARK VINA RESULT:    -7.537      3.272      4.193
REMARK INTER + INTRA:         -11.740
REMARK INTER:                 -10.726
REMARK INTRA:                  -1.014
REMARK UNBOUND:                -1.118
REMARK  Name = 
REMARK  8 active torsions:
REMARK  status: ('A' for Active; 'I' for Inactive)
REMARK    1  A    between atoms: C_1  and  C_2
REMARK    2  A    between atoms: C_6  and  C_7
REMARK    3  A    between atoms: C_7  and  O_8
REMARK    4  A    between atoms: O_8  and  C_9
REMARK    5  A    between atoms: C_9  and  C_10
REMARK    6  A    between atoms: C_13  and  C_14
REMARK    7  A    between atoms: C_14  and  N_15
REMARK    8  A    between atoms: C_16  and  C_18
REMARK                            x       y       z     vdW  Elec       q    Type
REMARK                         _______ _______ _______ _____ _____    ______ ____
ROOT
ATOM      1  C   UNL     1      47.129   5.276  13.585  0.00  0.00    +0.000 A 
ATOM      2  C   UNL     1      46.961   3.917  13.610  0.00  0.00    +0.000 A 
ATOM      3  N   UNL     1      47.248   3.146  14.677  0.00  0.00    +0.000 NA
ATOM      4  C   UNL     1      47.698   3.776  15.780  0.00  0.00    +0.000 A 
ATOM      5  N   UNL     1      47.946   5.099  15.846  0.00  0.00    +0.000 NA
ATOM      6  C   UNL     1      47.645   5.816  14.746  0.00  0.00    +0.000 A 
ENDROOT
BRANCH   1   7
ATOM      7  C   UNL     1      46.787   6.119  12.403  0.00  0.00    +0.000 C 
BRANCH   7   8
ATOM      8  O   UNL     1      45.371   6.152  12.260  0.00  0.00    +0.000 OA
BRANCH   8   9
ATOM      9  C   UNL     1      44.975   6.329  10.898  0.00  0.00    +0.000 C 
BRANCH   9  15
ATOM     10  C   UNL     1      46.203   3.516   7.092  0.00  0.00    +0.000 C 
ATOM     11  C   UNL     1      45.459   3.680   8.378  0.00  0.00    +0.000 A 
ATOM     12  C   UNL     1      44.696   2.645   8.907  0.00  0.00    +0.000 A 
ATOM     13  N   UNL     1      44.005   2.762  10.063  0.00  0.00    +0.000 NA
ATOM     14  C   UNL     1      44.117   3.960  10.684  0.00  0.00    +0.000 A 
ATOM     15  C   UNL     1      44.888   5.005  10.185  0.00  0.00    +0.000 A 
ATOM     16  N   UNL     1      45.560   4.878   9.008  0.00  0.00    +0.000 NA
ENDBRANCH   9  15
ENDBRANCH   8   9
ENDBRANCH   7   8
ENDBRANCH   1   7
BRANCH   4  17
ATOM     17  C   UNL     1      47.944   2.930  17.007  0.00  0.00    +0.000 C 
BRANCH  17  18
ATOM     18  N   UNL     1      49.276   3.058  17.555  0.00  0.00    +0.000 N 
ATOM     19  C   UNL     1      50.300   2.373  16.950  0.00  0.00    +0.000 C 
ATOM     20  O   UNL     1      50.094   1.535  16.076  0.00  0.00    +0.000 OA
ATOM     21  H   UNL     1      49.486   3.949  17.994  0.00  0.00    +0.000 HD
BRANCH  19  22
ATOM     22  C   UNL     1      51.639   2.615  17.477  0.00  0.00    +0.000 A 
ATOM     23  C   UNL     1      52.513   1.562  17.714  0.00  0.00    +0.000 A 
ATOM     24  S   UNL     1      53.737   1.990  18.831  0.00  0.00    +0.000 S 
ATOM     25  C   UNL     1      53.236   3.617  18.834  0.00  0.00    +0.000 A 
ATOM     26  N   UNL     1      53.766   4.541  19.675  0.00  0.00    +0.000 NA
ATOM     27  C   UNL     1      53.322   5.742  19.488  0.00  0.00    +0.000 A 
ATOM     28  N   UNL     1      52.451   6.123  18.495  0.00  0.00    +0.000 N 
ATOM     29  C   UNL     1      51.893   5.221  17.623  0.00  0.00    +0.000 A 
ATOM     30  O   UNL     1      51.198   5.572  16.675  0.00  0.00    +0.000 OA
ATOM     31  C   UNL     1      52.245   3.842  17.898  0.00  0.00    +0.000 A 
ATOM     32  H   UNL     1      52.223   7.093  18.346  0.00  0.00    +0.000 HD
ENDBRANCH  19  22
ENDBRANCH  17  18
ENDBRANCH   4  17
TORSDOF 7
ENDMDL
MODEL 4
REMARK VINA RESULT:    -7.383      3.329      8.426
REMARK INTER + INTRA:         -11.521
REMARK INTER:                 -10.167
REMARK INTRA:                  -1.354
REMARK UNBOUND:                -1.118
REMARK  Name = 
REMARK  8 active torsions:
REMARK  status: ('A' for Active; 'I' for Inactive)
REMARK    1  A    between atoms: C_1  and  C_2
REMARK    2  A    between atoms: C_6  and  C_7
REMARK    3  A    between atoms: C_7  and  O_8
REMARK    4  A    between atoms: O_8  and  C_9
REMARK    5  A    between atoms: C_9  and  C_10
REMARK    6  A    between atoms: C_13  and  C_14
REMARK    7  A    between atoms: C_14  and  N_15
REMARK    8  A    between atoms: C_16  and  C_18
REMARK                            x       y       z     vdW  Elec       q    Type
REMARK                         _______ _______ _______ _____ _____    ______ ____
ROOT
ATOM      1  C   UNL     1      49.259   7.815  16.312  0.00  0.00    +0.000 A 
ATOM      2  C   UNL     1      48.573   8.927  15.900  0.00  0.00    +0.000 A 
ATOM      3  N   UNL     1      48.147   9.118  14.636  0.00  0.00    +0.000 NA
ATOM      4  C   UNL     1      48.396   8.132  13.753  0.00  0.00    +0.000 A 
ATOM      5  N   UNL     1      49.105   7.022  14.042  0.00  0.00    +0.000 NA
ATOM      6  C   UNL     1      49.509   6.889  15.320  0.00  0.00    +0.000 A 
ENDROOT
BRANCH   1   7
ATOM      7  C   UNL     1      49.706   7.607  17.720  0.00  0.00    +0.000 C 
BRANCH   7   8
ATOM      8  O   UNL     1      48.570   7.299  18.520  0.00  0.00    +0.000 OA
BRANCH   8   9
ATOM      9  C   UNL     1      48.742   6.081  19.248  0.00  0.00    +0.000 C 
BRANCH   9  15
ATOM     10  C   UNL     1      50.306   2.000  17.057  0.00  0.00    +0.000 C 
ATOM     11  C   UNL     1      49.197   2.964  17.330  0.00  0.00    +0.000 A 
ATOM     12  C   UNL     1      47.930   2.777  16.792  0.00  0.00    +0.000 A 
ATOM     13  N   UNL     1      46.907   3.633  17.012  0.00  0.00    +0.000 NA
ATOM     14  C   UNL     1      47.198   4.687  17.811  0.00  0.00    +0.000 A 
ATOM     15  C   UNL     1      48.453   4.887  18.376  0.00  0.00    +0.000 A 
ATOM     16  N   UNL     1      49.478   4.027  18.126  0.00  0.00    +0.000 NA
ENDBRANCH   9  15
ENDBRANCH   8   9
ENDBRANCH   7   8
ENDBRANCH   1   7
BRANCH   4  17
ATOM     17  C   UNL     1      47.851   8.301  12.355  0.00  0.00    +0.000 C 
BRANCH  17  18
ATOM     18  N   UNL     1      47.450   7.063  11.725  0.00  0.00    +0.000 N 
ATOM     19  C   UNL     1      46.111   6.771  11.653  0.00  0.00    +0.000 C 
ATOM     20  O   UNL     1      45.267   7.436  12.249  0.00  0.00    +0.000 OA
ATOM     21  H   UNL     1      48.055   6.733  10.979  0.00  0.00    +0.000 HD
BRANCH  19  22
ATOM     22  C   UNL     1      45.751   5.561  10.918  0.00  0.00    +0.000 A 
ATOM     23  C   UNL     1      45.920   5.485   9.542  0.00  0.00    +0.000 A 
ATOM     24  S   UNL     1      44.932   4.274   8.847  0.00  0.00    +0.000 S 
ATOM     25  C   UNL     1      44.448   3.716  10.380  0.00  0.00    +0.000 A 
ATOM     26  N   UNL     1      43.494   2.763  10.541  0.00  0.00    +0.000 NA
ATOM     27  C   UNL     1      43.307   2.406  11.771  0.00  0.00    +0.000 A 
ATOM     28  N   UNL     1      44.029   2.858  12.849  0.00  0.00    +0.000 N 
ATOM     29  C   UNL     1      45.002   3.819  12.731  0.00  0.00    +0.000 A 
ATOM     30  O   UNL     1      45.715   4.149  13.673  0.00  0.00    +0.000 OA
ATOM     31  C   UNL     1      45.136   4.358  11.391  0.00  0.00    +0.000 A 
ATOM     32  H   UNL     1      43.896   2.464  13.767  0.00  0.00    +0.000 HD
ENDBRANCH  19  22
ENDBRANCH  17  18
ENDBRANCH   4  17
TORSDOF 7
ENDMDL
MODEL 5
REMARK VINA RESULT:    -7.166      0.913      1.612
REMARK INTER + INTRA:         -11.216
REMARK INTER:                 -10.417
REMARK INTRA:                  -0.799
REMARK UNBOUND:                -1.118
REMARK  Name = 
REMARK  8 active torsions:
REMARK  status: ('A' for Active; 'I' for Inactive)
REMARK    1  A    between atoms: C_1  and  C_2
REMARK    2  A    between atoms: C_6  and  C_7
REMARK    3  A    between atoms: C_7  and  O_8
REMARK    4  A    between atoms: O_8  and  C_9
REMARK    5  A    between atoms: C_9  and  C_10
REMARK    6  A    between atoms: C_13  and  C_14
REMARK    7  A    between atoms: C_14  and  N_15
REMARK    8  A    between atoms: C_16  and  C_18
REMARK                            x       y       z     vdW  Elec       q    Type
REMARK                         _______ _______ _______ _____ _____    ______ ____
ROOT
ATOM      1  C   UNL     1      44.371   5.303  11.807  0.00  0.00    +0.000 A 
ATOM      2  C   UNL     1      44.553   6.659  11.737  0.00  0.00    +0.000 A 
ATOM      3  N   UNL     1      45.604   7.302  12.282  0.00  0.00    +0.000 NA
ATOM      4  C   UNL     1      46.529   6.543  12.901  0.00  0.00    +0.000 A 
ATOM      5  N   UNL     1      46.422   5.210  13.069  0.00  0.00    +0.000 NA
ATOM      6  C   UNL     1      45.347   4.624  12.507  0.00  0.00    +0.000 A 
ENDROOT
BRANCH   1   7
ATOM      7  C   UNL     1      43.212   4.602  11.179  0.00  0.00    +0.000 C 
BRANCH   7   8
ATOM      8  O   UNL     1      43.708   3.613  10.283  0.00  0.00    +0.000 OA
BRANCH   8   9
ATOM      9  C   UNL     1      44.298   4.194   9.119  0.00  0.00    +0.000 C 
BRANCH   9  15
ATOM     10  C   UNL     1      47.228   3.102   5.359  0.00  0.00    +0.000 C 
ATOM     11  C   UNL     1      46.577   2.688   6.640  0.00  0.00    +0.000 A 
ATOM     12  C   UNL     1      46.786   1.425   7.180  0.00  0.00    +0.000 A 
ATOM     13  N   UNL     1      46.206   1.016   8.331  0.00  0.00    +0.000 NA
ATOM     14  C   UNL     1      45.413   1.931   8.936  0.00  0.00    +0.000 A 
ATOM     15  C   UNL     1      45.202   3.208   8.424  0.00  0.00    +0.000 A 
ATOM     16  N   UNL     1      45.775   3.596   7.252  0.00  0.00    +0.000 NA
ENDBRANCH   9  15
ENDBRANCH   8   9
ENDBRANCH   7   8
ENDBRANCH   1   7
BRANCH   4  17
ATOM     17  C   UNL     1      47.751   7.246  13.443  0.00  0.00    +0.000 C 
BRANCH  17  18
ATOM     18  N   UNL     1      47.735   7.435  14.876  0.00  0.00    +0.000 N 
ATOM     19  C   UNL     1      48.795   6.961  15.609  0.00  0.00    +0.000 C 
ATOM     20  O   UNL     1      49.659   6.244  15.112  0.00  0.00    +0.000 OA
ATOM     21  H   UNL     1      47.258   8.269  15.204  0.00  0.00    +0.000 HD
BRANCH  19  22
ATOM     22  C   UNL     1      48.781   7.265  17.036  0.00  0.00    +0.000 A 
ATOM     23  C   UNL     1      49.128   8.527  17.501  0.00  0.00    +0.000 A 
ATOM     24  S   UNL     1      49.599   8.492  19.145  0.00  0.00    +0.000 S 
ATOM     25  C   UNL     1      49.142   6.859  19.295  0.00  0.00    +0.000 A 
ATOM     26  N   UNL     1      49.386   6.134  20.415  0.00  0.00    +0.000 NA
ATOM     27  C   UNL     1      48.903   4.934  20.384  0.00  0.00    +0.000 A 
ATOM     28  N   UNL     1      48.139   4.411  19.369  0.00  0.00    +0.000 N 
ATOM     29  C   UNL     1      47.867   5.110  18.219  0.00  0.00    +0.000 A 
ATOM     30  O   UNL     1      47.102   4.684  17.360  0.00  0.00    +0.000 OA
ATOM     31  C   UNL     1      48.520   6.402  18.149  0.00  0.00    +0.000 A 
ATOM     32  H   UNL     1      47.713   3.502  19.454  0.00  0.00    +0.000 HD
ENDBRANCH  19  22
ENDBRANCH  17  18
ENDBRANCH   4  17
TORSDOF 7
ENDMDL
MODEL 6
REMARK VINA RESULT:    -7.087      1.708      2.202
REMARK INTER + INTRA:         -11.105
REMARK INTER:                 -10.221
REMARK INTRA:                  -0.884
REMARK UNBOUND:                -1.118
REMARK  Name = 
REMARK  8 active torsions:
REMARK  status: ('A' for Active; 'I' for Inactive)
REMARK    1  A    between atoms: C_1  and  C_2
REMARK    2  A    between atoms: C_6  and  C_7
REMARK    3  A    between atoms: C_7  and  O_8
REMARK    4  A    between atoms: O_8  and  C_9
REMARK    5  A    between atoms: C_9  and  C_10
REMARK    6  A    between atoms: C_13  and  C_14
REMARK    7  A    between atoms: C_14  and  N_15
REMARK    8  A    between atoms: C_16  and  C_18
REMARK                            x       y       z     vdW  Elec       q    Type
REMARK                         _______ _______ _______ _____ _____    ______ ____
ROOT
ATOM      1  C   UNL     1      45.630   5.053  12.789  0.00  0.00    +0.000 A 
ATOM      2  C   UNL     1      46.390   4.335  13.675  0.00  0.00    +0.000 A 
ATOM      3  N   UNL     1      47.420   4.856  14.370  0.00  0.00    +0.000 NA
ATOM      4  C   UNL     1      47.680   6.165  14.187  0.00  0.00    +0.000 A 
ATOM      5  N   UNL     1      47.027   6.948  13.304  0.00  0.00    +0.000 NA
ATOM      6  C   UNL     1      46.011   6.370  12.635  0.00  0.00    +0.000 A 
ENDROOT
BRANCH   1   7
ATOM      7  C   UNL     1      44.478   4.468  12.042  0.00  0.00    +0.000 C 
BRANCH   7   8
ATOM      8  O   UNL     1      44.865   3.200  11.526  0.00  0.00    +0.000 OA
BRANCH   8   9
ATOM      9  C   UNL     1      44.176   2.882  10.315  0.00  0.00    +0.000 C 
BRANCH   9  15
ATOM     10  C   UNL     1      47.202   0.662   7.181  0.00  0.00    +0.000 C 
ATOM     11  C   UNL     1      46.543   1.916   7.656  0.00  0.00    +0.000 A 
ATOM     12  C   UNL     1      46.779   3.136   7.033  0.00  0.00    +0.000 A 
ATOM     13  N   UNL     1      46.206   4.290   7.442  0.00  0.00    +0.000 NA
ATOM     14  C   UNL     1      45.369   4.176   8.499  0.00  0.00    +0.000 A 
ATOM     15  C   UNL     1      45.103   2.965   9.129  0.00  0.00    +0.000 A 
ATOM     16  N   UNL     1      45.705   1.815   8.719  0.00  0.00    +0.000 NA
ENDBRANCH   9  15
ENDBRANCH   8   9
ENDBRANCH   7   8
ENDBRANCH   1   7
BRANCH   4  17
ATOM     17  C   UNL     1      48.780   6.775  15.023  0.00  0.00    +0.000 C 
BRANCH  17  18
ATOM     18  N   UNL     1      48.588   6.628  16.448  0.00  0.00    +0.000 N 
ATOM     19  C   UNL     1      49.498   5.882  17.155  0.00  0.00    +0.000 C 
ATOM     20  O   UNL     1      50.359   5.207  16.598  0.00  0.00    +0.000 OA
ATOM     21  H   UNL     1      48.141   7.410  16.915  0.00  0.00    +0.000 HD
BRANCH  19  22
ATOM     22  C   UNL     1      49.318   5.847  18.604  0.00  0.00    +0.000 A 
ATOM     23  C   UNL     1      49.497   4.668  19.317  0.00  0.00    +0.000 A 
ATOM     24  S   UNL     1      48.696   4.712  20.828  0.00  0.00    +0.000 S 
ATOM     25  C   UNL     1      48.298   6.355  20.627  0.00  0.00    +0.000 A 
ATOM     26  N   UNL     1      47.492   7.020  21.494  0.00  0.00    +0.000 NA
ATOM     27  C   UNL     1      47.358   8.280  21.230  0.00  0.00    +0.000 A 
ATOM     28  N   UNL     1      48.005   8.954  20.223  0.00  0.00    +0.000 N 
ATOM     29  C   UNL     1      48.829   8.321  19.325  0.00  0.00    +0.000 A 
ATOM     30  O   UNL     1      49.485   8.936  18.492  0.00  0.00    +0.000 OA
ATOM     31  C   UNL     1      48.884   6.882  19.494  0.00  0.00    +0.000 A 
ATOM     32  H   UNL     1      47.930   9.955  20.135  0.00  0.00    +0.000 HD
ENDBRANCH  19  22
ENDBRANCH  17  18
ENDBRANCH   4  17
TORSDOF 7
ENDMDL
MODEL 7
REMARK VINA RESULT:    -7.086      1.928      3.007
REMARK INTER + INTRA:         -11.104
REMARK INTER:                 -10.076
REMARK INTRA:                  -1.028
REMARK UNBOUND:                -1.118
REMARK  Name = 
REMARK  8 active torsions:
REMARK  status: ('A' for Active; 'I' for Inactive)
REMARK    1  A    between atoms: C_1  and  C_2
REMARK    2  A    between atoms: C_6  and  C_7
REMARK    3  A    between atoms: C_7  and  O_8
REMARK    4  A    between atoms: O_8  and  C_9
REMARK    5  A    between atoms: C_9  and  C_10
REMARK    6  A    between atoms: C_13  and  C_14
REMARK    7  A    between atoms: C_14  and  N_15
REMARK    8  A    between atoms: C_16  and  C_18
REMARK                            x       y       z     vdW  Elec       q    Type
REMARK                         _______ _______ _______ _____ _____    ______ ____
ROOT
ATOM      1  C   UNL     1      45.305   4.132  12.632  0.00  0.00    +0.000 A 
ATOM      2  C   UNL     1      45.187   5.464  12.331  0.00  0.00    +0.000 A 
ATOM      3  N   UNL     1      46.089   6.396  12.694  0.00  0.00    +0.000 NA
ATOM      4  C   UNL     1      47.174   5.965  13.367  0.00  0.00    +0.000 A 
ATOM      5  N   UNL     1      47.363   4.689  13.756  0.00  0.00    +0.000 NA
ATOM      6  C   UNL     1      46.425   3.803  13.369  0.00  0.00    +0.000 A 
ENDROOT
BRANCH   1   7
ATOM      7  C   UNL     1      44.308   3.108  12.205  0.00  0.00    +0.000 C 
BRANCH   7   8
ATOM      8  O   UNL     1      43.843   3.439  10.901  0.00  0.00    +0.000 OA
BRANCH   8   9
ATOM      9  C   UNL     1      44.094   2.392   9.961  0.00  0.00    +0.000 C 
BRANCH   9  15
ATOM     10  C   UNL     1      47.642   1.204   6.814  0.00  0.00    +0.000 C 
ATOM     11  C   UNL     1      46.802   2.258   7.460  0.00  0.00    +0.000 A 
ATOM     12  C   UNL     1      46.957   3.601   7.140  0.00  0.00    +0.000 A 
ATOM     13  N   UNL     1      46.219   4.580   7.712  0.00  0.00    +0.000 NA
ATOM     14  C   UNL     1      45.302   4.159   8.614  0.00  0.00    +0.000 A 
ATOM     15  C   UNL     1      45.115   2.819   8.939  0.00  0.00    +0.000 A 
ATOM     16  N   UNL     1      45.882   1.849   8.370  0.00  0.00    +0.000 NA
ENDBRANCH   9  15
ENDBRANCH   8   9
ENDBRANCH   7   8
ENDBRANCH   1   7
BRANCH   4  17
ATOM     17  C   UNL     1      48.229   6.991  13.706  0.00  0.00    +0.000 C 
BRANCH  17  18
ATOM     18  N   UNL     1      48.085   7.573  15.021  0.00  0.00    +0.000 N 
ATOM     19  C   UNL     1      48.956   7.181  16.008  0.00  0.00    +0.000 C 
ATOM     20  O   UNL     1      49.732   6.242  15.854  0.00  0.00    +0.000 OA
ATOM     21  H   UNL     1      47.727   8.522  15.046  0.00  0.00    +0.000 HD
BRANCH  19  22
ATOM     22  C   UNL     1      48.834   7.870  17.289  0.00  0.00    +0.000 A 
ATOM     23  C   UNL     1      48.869   7.165  18.485  0.00  0.00    +0.000 A 
ATOM     24  S   UNL     1      48.147   8.045  19.762  0.00  0.00    +0.000 S 
ATOM     25  C   UNL     1      47.985   9.430  18.786  0.00  0.00    +0.000 A 
ATOM     26  N   UNL     1      47.323  10.540  19.200  0.00  0.00    +0.000 NA
ATOM     27  C   UNL     1      47.362  11.523  18.360  0.00  0.00    +0.000 A 
ATOM     28  N   UNL     1      48.058  11.529  17.175  0.00  0.00    +0.000 N 
ATOM     29  C   UNL     1      48.742  10.429  16.719  0.00  0.00    +0.000 A 
ATOM     30  O   UNL     1      49.446  10.466  15.716  0.00  0.00    +0.000 OA
ATOM     31  C   UNL     1      48.594   9.256  17.558  0.00  0.00    +0.000 A 
ATOM     32  H   UNL     1      48.127  12.364  16.616  0.00  0.00    +0.000 HD
ENDBRANCH  19  22
ENDBRANCH  17  18
ENDBRANCH   4  17
TORSDOF 7
ENDMDL
MODEL 8
REMARK VINA RESULT:    -6.701      4.370      5.652
REMARK INTER + INTRA:         -10.560
REMARK INTER:                  -9.449
REMARK INTRA:                  -1.111
REMARK UNBOUND:                -1.118
REMARK  Name = 
REMARK  8 active torsions:
REMARK  status: ('A' for Active; 'I' for Inactive)
REMARK    1  A    between atoms: C_1  and  C_2
REMARK    2  A    between atoms: C_6  and  C_7
REMARK    3  A    between atoms: C_7  and  O_8
REMARK    4  A    between atoms: O_8  and  C_9
REMARK    5  A    between atoms: C_9  and  C_10
REMARK    6  A    between atoms: C_13  and  C_14
REMARK    7  A    between atoms: C_14  and  N_15
REMARK    8  A    between atoms: C_16  and  C_18
REMARK                            x       y       z     vdW  Elec       q    Type
REMARK                         _______ _______ _______ _____ _____    ______ ____
ROOT
ATOM      1  C   UNL     1      44.702   5.314  12.440  0.00  0.00    +0.000 A 
ATOM      2  C   UNL     1      44.111   6.333  11.740  0.00  0.00    +0.000 A 
ATOM      3  N   UNL     1      44.598   7.589  11.690  0.00  0.00    +0.000 NA
ATOM      4  C   UNL     1      45.748   7.823  12.352  0.00  0.00    +0.000 A 
ATOM      5  N   UNL     1      46.382   6.907  13.112  0.00  0.00    +0.000 NA
ATOM      6  C   UNL     1      45.845   5.672  13.127  0.00  0.00    +0.000 A 
ENDROOT
BRANCH   1   7
ATOM      7  C   UNL     1      44.163   3.924  12.469  0.00  0.00    +0.000 C 
BRANCH   7   8
ATOM      8  O   UNL     1      44.888   3.133  11.533  0.00  0.00    +0.000 OA
BRANCH   8   9
ATOM      9  C   UNL     1      44.201   3.015  10.286  0.00  0.00    +0.000 C 
BRANCH   9  15
ATOM     10  C   UNL     1      47.153   0.750   7.113  0.00  0.00    +0.000 C 
ATOM     11  C   UNL     1      46.571   2.022   7.639  0.00  0.00    +0.000 A 
ATOM     12  C   UNL     1      46.910   3.252   7.089  0.00  0.00    +0.000 A 
ATOM     13  N   UNL     1      46.408   4.422   7.545  0.00  0.00    +0.000 NA
ATOM     14  C   UNL     1      45.534   4.314   8.573  0.00  0.00    +0.000 A 
ATOM     15  C   UNL     1      45.165   3.093   9.130  0.00  0.00    +0.000 A 
ATOM     16  N   UNL     1      45.697   1.926   8.673  0.00  0.00    +0.000 NA
ENDBRANCH   9  15
ENDBRANCH   8   9
ENDBRANCH   7   8
ENDBRANCH   1   7
BRANCH   4  17
ATOM     17  C   UNL     1      46.343   9.205  12.235  0.00  0.00    +0.000 C 
BRANCH  17  18
ATOM     18  N   UNL     1      47.788   9.230  12.262  0.00  0.00    +0.000 N 
ATOM     19  C   UNL     1      48.438  10.234  11.588  0.00  0.00    +0.000 C 
ATOM     20  O   UNL     1      47.844  11.000  10.834  0.00  0.00    +0.000 OA
ATOM     21  H   UNL     1      48.219   8.859  13.103  0.00  0.00    +0.000 HD
BRANCH  19  22
ATOM     22  C   UNL     1      49.890  10.273  11.729  0.00  0.00    +0.000 A 
ATOM     23  C   UNL     1      50.539  11.441  12.109  0.00  0.00    +0.000 A 
ATOM     24  S   UNL     1      52.188  11.429  11.654  0.00  0.00    +0.000 S 
ATOM     25  C   UNL     1      52.091   9.805  11.151  0.00  0.00    +0.000 A 
ATOM     26  N   UNL     1      53.116   9.174  10.525  0.00  0.00    +0.000 NA
ATOM     27  C   UNL     1      52.896   7.922  10.282  0.00  0.00    +0.000 A 
ATOM     28  N   UNL     1      51.778   7.222  10.666  0.00  0.00    +0.000 N 
ATOM     29  C   UNL     1      50.718   7.821  11.302  0.00  0.00    +0.000 A 
ATOM     30  O   UNL     1      49.767   7.180  11.735  0.00  0.00    +0.000 OA
ATOM     31  C   UNL     1      50.860   9.256  11.454  0.00  0.00    +0.000 A 
ATOM     32  H   UNL     1      51.715   6.226  10.530  0.00  0.00    +0.000 HD
ENDBRANCH  19  22
ENDBRANCH  17  18
ENDBRANCH   4  17
TORSDOF 7
ENDMDL
MODEL 9
REMARK VINA RESULT:    -6.538      3.436      9.072
REMARK INTER + INTRA:         -10.331
REMARK INTER:                  -9.484
REMARK INTRA:                  -0.847
REMARK UNBOUND:                -1.118
REMARK  Name = 
REMARK  8 active torsions:
REMARK  status: ('A' for Active; 'I' for Inactive)
REMARK    1  A    between atoms: C_1  and  C_2
REMARK    2  A    between atoms: C_6  and  C_7
REMARK    3  A    between atoms: C_7  and  O_8
REMARK    4  A    between atoms: O_8  and  C_9
REMARK    5  A    between atoms: C_9  and  C_10
REMARK    6  A    between atoms: C_13  and  C_14
REMARK    7  A    between atoms: C_14  and  N_15
REMARK    8  A    between atoms: C_16  and  C_18
REMARK                            x       y       z     vdW  Elec       q    Type
REMARK                         _______ _______ _______ _____ _____    ______ ____
ROOT
ATOM      1  C   UNL     1      50.141   7.278  16.702  0.00  0.00    +0.000 A 
ATOM      2  C   UNL     1      49.185   6.357  16.362  0.00  0.00    +0.000 A 
ATOM      3  N   UNL     1      48.695   6.213  15.115  0.00  0.00    +0.000 NA
ATOM      4  C   UNL     1      49.211   7.012  14.161  0.00  0.00    +0.000 A 
ATOM      5  N   UNL     1      50.116   7.982  14.398  0.00  0.00    +0.000 NA
ATOM      6  C   UNL     1      50.564   8.082  15.664  0.00  0.00    +0.000 A 
ENDROOT
BRANCH   1   7
ATOM      7  C   UNL     1      50.689   7.413  18.084  0.00  0.00    +0.000 C 
BRANCH   7   8
ATOM      8  O   UNL     1      50.654   6.137  18.714  0.00  0.00    +0.000 OA
BRANCH   8   9
ATOM      9  C   UNL     1      51.917   5.471  18.645  0.00  0.00    +0.000 C 
BRANCH   9  15
ATOM     10  C   UNL     1      49.144   2.020  16.568  0.00  0.00    +0.000 C 
ATOM     11  C   UNL     1      50.432   2.410  17.219  0.00  0.00    +0.000 A 
ATOM     12  C   UNL     1      51.452   1.486  17.413  0.00  0.00    +0.000 A 
ATOM     13  N   UNL     1      52.625   1.804  18.005  0.00  0.00    +0.000 NA
ATOM     14  C   UNL     1      52.747   3.096  18.388  0.00  0.00    +0.000 A 
ATOM     15  C   UNL     1      51.749   4.044  18.190  0.00  0.00    +0.000 A 
ATOM     16  N   UNL     1      50.565   3.703  17.612  0.00  0.00    +0.000 NA
ENDBRANCH   9  15
ENDBRANCH   8   9
ENDBRANCH   7   8
ENDBRANCH   1   7
BRANCH   4  17
ATOM     17  C   UNL     1      48.727   6.800  12.747  0.00  0.00    +0.000 C 
BRANCH  17  18
ATOM     18  N   UNL     1      47.486   6.064  12.651  0.00  0.00    +0.000 N 
ATOM     19  C   UNL     1      46.437   6.637  11.977  0.00  0.00    +0.000 C 
ATOM     20  O   UNL     1      46.465   7.807  11.605  0.00  0.00    +0.000 OA
ATOM     21  H   UNL     1      47.575   5.053  12.633  0.00  0.00    +0.000 HD
BRANCH  19  22
ATOM     22  C   UNL     1      45.242   5.814  11.821  0.00  0.00    +0.000 A 
ATOM     23  C   UNL     1      44.249   5.807  12.792  0.00  0.00    +0.000 A 
ATOM     24  S   UNL     1      43.280   4.400  12.701  0.00  0.00    +0.000 S 
ATOM     25  C   UNL     1      44.035   3.911  11.255  0.00  0.00    +0.000 A 
ATOM     26  N   UNL     1      43.786   2.711  10.673  0.00  0.00    +0.000 NA
ATOM     27  C   UNL     1      44.390   2.538   9.541  0.00  0.00    +0.000 A 
ATOM     28  N   UNL     1      45.165   3.475   8.902  0.00  0.00    +0.000 N 
ATOM     29  C   UNL     1      45.441   4.701   9.454  0.00  0.00    +0.000 A 
ATOM     30  O   UNL     1      46.045   5.574   8.841  0.00  0.00    +0.000 OA
ATOM     31  C   UNL     1      44.909   4.875  10.792  0.00  0.00    +0.000 A 
ATOM     32  H   UNL     1      45.525   3.308   7.975  0.00  0.00    +0.000 HD
ENDBRANCH  19  22
ENDBRANCH  17  18
ENDBRANCH   4  17
TORSDOF 7
ENDMDL
