MODEL 1
REMARK VINA RESULT:    -8.186      0.000      0.000
REMARK INTER + INTRA:         -11.576
REMARK INTER:                 -10.579
REMARK INTRA:                  -0.998
REMARK UNBOUND:                -0.998
REMARK  Name = 
REMARK  5 active torsions:
REMARK  status: ('A' for Active; 'I' for Inactive)
REMARK    1  A    between atoms: C_2  and  C_19
REMARK    2  A    between atoms: N_3  and  C_4
REMARK    3  A    between atoms: C_4  and  C_5
REMARK    4  A    between atoms: C_8  and  C_9
REMARK    5  A    between atoms: C_9  and  C_10
REMARK                            x       y       z     vdW  Elec       q    Type
REMARK                         _______ _______ _______ _____ _____    ______ ____
ROOT
ATOM      1  C   UNL     1      46.126   7.449  12.726  0.00  0.00    +0.000 C 
ENDROOT
BRANCH   1   2
ATOM      2  C   UNL     1      45.733   6.336  11.801  0.00  0.00    +0.000 A 
ATOM      3  C   UNL     1      44.930   5.273  12.221  0.00  0.00    +0.000 A 
ATOM      4  C   UNL     1      44.595   4.261  11.323  0.00  0.00    +0.000 A 
ATOM      5  C   UNL     1      45.066   4.338  10.013  0.00  0.00    +0.000 A 
ATOM      6  N   UNL     1      45.821   5.375   9.577  0.00  0.00    +0.000 NA
ATOM      7  C   UNL     1      46.132   6.343  10.471  0.00  0.00    +0.000 A 
BRANCH   5   8
ATOM      8  C   UNL     1      44.778   3.236   9.016  0.00  0.00    +0.000 C 
BRANCH   8   9
ATOM      9  C   UNL     1      45.320   3.509   7.636  0.00  0.00    +0.000 C 
ATOM     10  C   UNL     1      46.355   2.898   7.029  0.00  0.00    +0.000 C 
ATOM     11  C   UNL     1      46.778   3.242   5.613  0.00  0.00    +0.000 C 
ATOM     12  C   UNL     1      46.766   1.978   4.737  0.00  0.00    +0.000 C 
ATOM     13  N   UNL     1      47.568   0.875   5.299  0.00  0.00    +0.000 NA
ATOM     14  C   UNL     1      47.105   0.554   6.659  0.00  0.00    +0.000 C 
ATOM     15  C   UNL     1      47.173   1.764   7.602  0.00  0.00    +0.000 C 
ATOM     16  H   UNL     1      48.539   1.186   5.359  0.00  0.00    +0.000 HD
ENDBRANCH   8   9
ENDBRANCH   5   8
ENDBRANCH   1   2
BRANCH   1  19
ATOM     17  O   UNL     1      48.761   6.478  12.915  0.00  0.00    +0.000 OA
ATOM     18  C   UNL     1      48.078   6.551  13.933  0.00  0.00    +0.000 C 
ATOM     19  N   UNL     1      46.765   6.946  13.913  0.00  0.00    +0.000 N 
ATOM     20  H   UNL     1      46.314   7.187  14.789  0.00  0.00    +0.000 HD
BRANCH  18  21
ATOM     21  C   UNL     1      48.607   6.166  15.243  0.00  0.00    +0.000 A 
ATOM     22  C   UNL     1      49.618   6.906  15.840  0.00  0.00    +0.000 A 
ATOM     23  S   UNL     1      50.105   6.290  17.356  0.00  0.00    +0.000 S 
ATOM     24  C   UNL     1      48.955   5.037  17.281  0.00  0.00    +0.000 A 
ATOM     25  N   UNL     1      48.825   4.139  18.293  0.00  0.00    +0.000 NA
ATOM     26  C   UNL     1      47.885   3.266  18.112  0.00  0.00    +0.000 A 
ATOM     27  N   UNL     1      47.070   3.207  17.014  0.00  0.00    +0.000 N 
ATOM     28  C   UNL     1      47.216   4.050  15.940  0.00  0.00    +0.000 A 
ATOM     29  O   UNL     1      46.559   3.879  14.916  0.00  0.00    +0.000 OA
ATOM     30  C   UNL     1      48.225   5.077  16.103  0.00  0.00    +0.000 A 
ATOM     31  H   UNL     1      46.378   2.484  16.916  0.00  0.00    +0.000 HD
ENDBRANCH  18  21
ENDBRANCH   1  19
TORSDOF 5
ENDMDL
MODEL 2
REMARK VINA RESULT:    -7.619      2.205      3.139
REMARK INTER + INTRA:         -10.844
REMARK INTER:                 -10.013
REMARK INTRA:                  -0.831
REMARK UNBOUND:                -0.998
REMARK  Name = 
REMARK  5 active torsions:
REMARK  status: ('A' for Active; 'I' for Inactive)
REMARK    1  A    between atoms: C_2  and  C_19
REMARK    2  A    between atoms: N_3  and  C_4
REMARK    3  A    between atoms: C_4  and  C_5
REMARK    4  A    between atoms: C_8  and  C_9
REMARK    5  A    between atoms: C_9  and  C_10
REMARK                            x       y       z     vdW  Elec       q    Type
REMARK                         _______ _______ _______ _____ _____    ______ ____
ROOT
ATOM      1  C   UNL     1      48.433   6.774  13.955  0.00  0.00    +0.000 C 
ENDROOT
BRANCH   1   2
ATOM      2  C   UNL     1      47.283   6.109  13.259  0.00  0.00    +0.000 A 
ATOM      3  C   UNL     1      46.790   6.572  12.037  0.00  0.00    +0.000 A 
ATOM      4  C   UNL     1      45.716   5.919  11.431  0.00  0.00    +0.000 A 
ATOM      5  C   UNL     1      45.160   4.808  12.061  0.00  0.00    +0.000 A 
ATOM      6  N   UNL     1      45.641   4.325  13.232  0.00  0.00    +0.000 NA
ATOM      7  C   UNL     1      46.683   4.978  13.798  0.00  0.00    +0.000 A 
BRANCH   5   8
ATOM      8  C   UNL     1      43.957   4.101  11.473  0.00  0.00    +0.000 C 
BRANCH   8   9
ATOM      9  C   UNL     1      44.306   2.870  10.676  0.00  0.00    +0.000 C 
ATOM     10  C   UNL     1      44.613   2.804   9.366  0.00  0.00    +0.000 C 
ATOM     11  C   UNL     1      44.986   1.500   8.689  0.00  0.00    +0.000 C 
ATOM     12  C   UNL     1      46.365   1.627   8.019  0.00  0.00    +0.000 C 
ATOM     13  N   UNL     1      46.457   2.773   7.095  0.00  0.00    +0.000 NA
ATOM     14  C   UNL     1      46.117   4.021   7.800  0.00  0.00    +0.000 C 
ATOM     15  C   UNL     1      44.714   3.979   8.421  0.00  0.00    +0.000 C 
ATOM     16  H   UNL     1      45.775   2.636   6.348  0.00  0.00    +0.000 HD
ENDBRANCH   8   9
ENDBRANCH   5   8
ENDBRANCH   1   2
BRANCH   1  19
ATOM     17  O   UNL     1      50.263   6.149  16.000  0.00  0.00    +0.000 OA
ATOM     18  C   UNL     1      49.169   6.619  16.303  0.00  0.00    +0.000 C 
ATOM     19  N   UNL     1      48.198   6.883  15.370  0.00  0.00    +0.000 N 
ATOM     20  H   UNL     1      47.406   7.456  15.640  0.00  0.00    +0.000 HD
BRANCH  18  21
ATOM     21  C   UNL     1      48.803   6.882  17.696  0.00  0.00    +0.000 A 
ATOM     22  C   UNL     1      48.477   8.166  18.108  0.00  0.00    +0.000 A 
ATOM     23  S   UNL     1      48.092   8.269  19.768  0.00  0.00    +0.000 S 
ATOM     24  C   UNL     1      48.312   6.594  19.981  0.00  0.00    +0.000 A 
ATOM     25  N   UNL     1      48.118   6.006  21.191  0.00  0.00    +0.000 NA
ATOM     26  C   UNL     1      48.287   4.722  21.192  0.00  0.00    +0.000 A 
ATOM     27  N   UNL     1      48.635   3.976  20.099  0.00  0.00    +0.000 N 
ATOM     28  C   UNL     1      48.910   4.540  18.878  0.00  0.00    +0.000 A 
ATOM     29  O   UNL     1      49.353   3.855  17.959  0.00  0.00    +0.000 OA
ATOM     30  C   UNL     1      48.696   5.971  18.803  0.00  0.00    +0.000 A 
ATOM     31  H   UNL     1      48.784   2.983  20.171  0.00  0.00    +0.000 HD
ENDBRANCH  18  21
ENDBRANCH   1  19
TORSDOF 5
ENDMDL
MODEL 3
REMARK VINA RESULT:    -7.387      2.874      3.861
REMARK INTER + INTRA:         -10.544
REMARK INTER:                  -9.542
REMARK INTRA:                  -1.002
REMARK UNBOUND:                -0.998
REMARK  Name = 
REMARK  5 active torsions:
REMARK  status: ('A' for Active; 'I' for Inactive)
REMARK    1  A    between atoms: C_2  and  C_19
REMARK    2  A    between atoms: N_3  and  C_4
REMARK    3  A    between atoms: C_4  and  C_5
REMARK    4  A    between atoms: C_8  and  C_9
REMARK    5  A    between atoms: C_9  and  C_10
REMARK                            x       y       z     vdW  Elec       q    Type
REMARK                         _______ _______ _______ _____ _____    ______ ____
ROOT
ATOM      1  C   UNL     1      48.416   6.690  14.139  0.00  0.00    +0.000 C 
ENDROOT
BRANCH   1   2
ATOM      2  C   UNL     1      47.310   6.066  13.341  0.00  0.00    +0.000 A 
ATOM      3  C   UNL     1      46.931   6.559  12.090  0.00  0.00    +0.000 A 
ATOM      4  C   UNL     1      45.894   5.944  11.389  0.00  0.00    +0.000 A 
ATOM      5  C   UNL     1      45.260   4.839  11.953  0.00  0.00    +0.000 A 
ATOM      6  N   UNL     1      45.631   4.327  13.152  0.00  0.00    +0.000 NA
ATOM      7  C   UNL     1      46.640   4.944  13.812  0.00  0.00    +0.000 A 
BRANCH   5   8
ATOM      8  C   UNL     1      44.092   4.172  11.259  0.00  0.00    +0.000 C 
BRANCH   8   9
ATOM      9  C   UNL     1      44.461   2.903  10.534  0.00  0.00    +0.000 C 
ATOM     10  C   UNL     1      44.776   2.767   9.232  0.00  0.00    +0.000 C 
ATOM     11  C   UNL     1      45.169   1.431   8.631  0.00  0.00    +0.000 C 
ATOM     12  C   UNL     1      46.550   1.538   7.963  0.00  0.00    +0.000 C 
ATOM     13  N   UNL     1      46.634   2.630   6.976  0.00  0.00    +0.000 NA
ATOM     14  C   UNL     1      46.275   3.912   7.607  0.00  0.00    +0.000 C 
ATOM     15  C   UNL     1      44.869   3.888   8.222  0.00  0.00    +0.000 C 
ATOM     16  H   UNL     1      45.958   2.442   6.234  0.00  0.00    +0.000 HD
ENDBRANCH   8   9
ENDBRANCH   5   8
ENDBRANCH   1   2
BRANCH   1  19
ATOM     17  O   UNL     1      49.896   5.673  16.306  0.00  0.00    +0.000 OA
ATOM     18  C   UNL     1      48.879   6.323  16.533  0.00  0.00    +0.000 C 
ATOM     19  N   UNL     1      48.067   6.792  15.531  0.00  0.00    +0.000 N 
ATOM     20  H   UNL     1      47.366   7.490  15.757  0.00  0.00    +0.000 HD
BRANCH  18  21
ATOM     21  C   UNL     1      48.430   6.601  17.899  0.00  0.00    +0.000 A 
ATOM     22  C   UNL     1      48.370   5.584  18.841  0.00  0.00    +0.000 A 
ATOM     23  S   UNL     1      47.811   6.104  20.367  0.00  0.00    +0.000 S 
ATOM     24  C   UNL     1      47.669   7.714  19.830  0.00  0.00    +0.000 A 
ATOM     25  N   UNL     1      47.250   8.701  20.665  0.00  0.00    +0.000 NA
ATOM     26  C   UNL     1      47.226   9.878  20.126  0.00  0.00    +0.000 A 
ATOM     27  N   UNL     1      47.576  10.157  18.832  0.00  0.00    +0.000 N 
ATOM     28  C   UNL     1      47.935   9.179  17.938  0.00  0.00    +0.000 A 
ATOM     29  O   UNL     1      48.108   9.449  16.752  0.00  0.00    +0.000 OA
ATOM     30  C   UNL     1      48.022   7.844  18.495  0.00  0.00    +0.000 A 
ATOM     31  H   UNL     1      47.504  11.090  18.461  0.00  0.00    +0.000 HD
ENDBRANCH  18  21
ENDBRANCH   1  19
TORSDOF 5
ENDMDL
MODEL 4
REMARK VINA RESULT:    -7.370      2.795      4.060
REMARK INTER + INTRA:         -10.522
REMARK INTER:                  -9.573
REMARK INTRA:                  -0.949
REMARK UNBOUND:                -0.998
REMARK  Name = 
REMARK  5 active torsions:
REMARK  status: ('A' for Active; 'I' for Inactive)
REMARK    1  A    between atoms: C_2  and  C_19
REMARK    2  A    between atoms: N_3  and  C_4
REMARK    3  A    between atoms: C_4  and  C_5
REMARK    4  A    between atoms: C_8  and  C_9
REMARK    5  A    between atoms: C_9  and  C_10
REMARK                            x       y       z     vdW  Elec       q    Type
REMARK                         _______ _______ _______ _____ _____    ______ ____
ROOT
ATOM      1  C   UNL     1      46.158   5.452  13.767  0.00  0.00    +0.000 C 
ENDROOT
BRANCH   1   2
ATOM      2  C   UNL     1      45.726   4.859  12.458  0.00  0.00    +0.000 A 
ATOM      3  C   UNL     1      45.585   5.634  11.305  0.00  0.00    +0.000 A 
ATOM      4  C   UNL     1      45.178   5.035  10.113  0.00  0.00    +0.000 A 
ATOM      5  C   UNL     1      44.927   3.664  10.099  0.00  0.00    +0.000 A 
ATOM      6  N   UNL     1      45.085   2.889  11.199  0.00  0.00    +0.000 NA
ATOM      7  C   UNL     1      45.481   3.496  12.342  0.00  0.00    +0.000 A 
BRANCH   5   8
ATOM      8  C   UNL     1      44.427   2.977   8.846  0.00  0.00    +0.000 C 
BRANCH   8   9
ATOM      9  C   UNL     1      45.165   3.384   7.595  0.00  0.00    +0.000 C 
ATOM     10  C   UNL     1      46.296   2.845   7.102  0.00  0.00    +0.000 C 
ATOM     11  C   UNL     1      46.919   3.324   5.805  0.00  0.00    +0.000 C 
ATOM     12  C   UNL     1      47.073   2.147   4.827  0.00  0.00    +0.000 C 
ATOM     13  N   UNL     1      47.811   1.007   5.403  0.00  0.00    +0.000 NA
ATOM     14  C   UNL     1      47.156   0.555   6.642  0.00  0.00    +0.000 C 
ATOM     15  C   UNL     1      47.047   1.673   7.689  0.00  0.00    +0.000 C 
ATOM     16  H   UNL     1      48.752   1.323   5.640  0.00  0.00    +0.000 HD
ENDBRANCH   8   9
ENDBRANCH   5   8
ENDBRANCH   1   2
BRANCH   1  19
ATOM     17  O   UNL     1      48.868   5.969  13.207  0.00  0.00    +0.000 OA
ATOM     18  C   UNL     1      48.078   6.909  13.249  0.00  0.00    +0.000 C 
ATOM     19  N   UNL     1      46.758   6.747  13.585  0.00  0.00    +0.000 N 
ATOM     20  H   UNL     1      46.111   7.507  13.403  0.00  0.00    +0.000 HD
BRANCH  18  21
ATOM     21  C   UNL     1      48.506   8.286  12.994  0.00  0.00    +0.000 A 
ATOM     22  C   UNL     1      48.811   8.702  11.707  0.00  0.00    +0.000 A 
ATOM     23  S   UNL     1      49.301  10.335  11.619  0.00  0.00    +0.000 S 
ATOM     24  C   UNL     1      49.084  10.549  13.294  0.00  0.00    +0.000 A 
ATOM     25  N   UNL     1      49.315  11.751  13.886  0.00  0.00    +0.000 NA
ATOM     26  C   UNL     1      49.073  11.772  15.159  0.00  0.00    +0.000 A 
ATOM     27  N   UNL     1      48.627  10.704  15.890  0.00  0.00    +0.000 N 
ATOM     28  C   UNL     1      48.451   9.457  15.344  0.00  0.00    +0.000 A 
ATOM     29  O   UNL     1      48.184   8.494  16.058  0.00  0.00    +0.000 OA
ATOM     30  C   UNL     1      48.665   9.381  13.913  0.00  0.00    +0.000 A 
ATOM     31  H   UNL     1      48.489  10.774  16.884  0.00  0.00    +0.000 HD
ENDBRANCH  18  21
ENDBRANCH   1  19
TORSDOF 5
ENDMDL
MODEL 5
REMARK VINA RESULT:    -7.122      3.473      8.187
REMARK INTER + INTRA:         -10.201
REMARK INTER:                  -9.479
REMARK INTRA:                  -0.722
REMARK UNBOUND:                -0.998
REMARK  Name = 
REMARK  5 active torsions:
REMARK  status: ('A' for Active; 'I' for Inactive)
REMARK    1  A    between atoms: C_2  and  C_19
REMARK    2  A    between atoms: N_3  and  C_4
REMARK    3  A    between atoms: C_4  and  C_5
REMARK    4  A    between atoms: C_8  and  C_9
REMARK    5  A    between atoms: C_9  and  C_10
REMARK                            x       y       z     vdW  Elec       q    Type
REMARK                         _______ _______ _______ _____ _____    ______ ____
ROOT
ATOM      1  C   UNL     1      48.505   8.018  11.860  0.00  0.00    +0.000 C 
ENDROOT
BRANCH   1   2
ATOM      2  C   UNL     1      49.099   7.705  13.201  0.00  0.00    +0.000 A 
ATOM      3  C   UNL     1      50.141   8.460  13.744  0.00  0.00    +0.000 A 
ATOM      4  C   UNL     1      50.661   8.126  14.995  0.00  0.00    +0.000 A 
ATOM      5  C   UNL     1      50.119   7.042  15.682  0.00  0.00    +0.000 A 
ATOM      6  N   UNL     1      49.088   6.314  15.187  0.00  0.00    +0.000 NA
ATOM      7  C   UNL     1      48.604   6.660  13.971  0.00  0.00    +0.000 A 
BRANCH   5   8
ATOM      8  C   UNL     1      50.685   6.604  17.016  0.00  0.00    +0.000 C 
BRANCH   8   9
ATOM      9  C   UNL     1      50.542   5.127  17.281  0.00  0.00    +0.000 C 
ATOM     10  C   UNL     1      49.485   4.491  17.821  0.00  0.00    +0.000 C 
ATOM     11  C   UNL     1      49.453   2.985  17.999  0.00  0.00    +0.000 C 
ATOM     12  C   UNL     1      48.222   2.396  17.289  0.00  0.00    +0.000 C 
ATOM     13  N   UNL     1      46.955   3.027  17.705  0.00  0.00    +0.000 NA
ATOM     14  C   UNL     1      47.019   4.482  17.487  0.00  0.00    +0.000 C 
ATOM     15  C   UNL     1      48.185   5.137  18.241  0.00  0.00    +0.000 C 
ATOM     16  H   UNL     1      46.830   2.861  18.704  0.00  0.00    +0.000 HD
ENDBRANCH   8   9
ENDBRANCH   5   8
ENDBRANCH   1   2
BRANCH   1  19
ATOM     17  O   UNL     1      45.702   7.787  11.965  0.00  0.00    +0.000 OA
ATOM     18  C   UNL     1      46.351   6.914  11.395  0.00  0.00    +0.000 C 
ATOM     19  N   UNL     1      47.722   6.919  11.362  0.00  0.00    +0.000 N 
ATOM     20  H   UNL     1      48.197   6.303  10.712  0.00  0.00    +0.000 HD
BRANCH  18  21
ATOM     21  C   UNL     1      45.702   5.771  10.751  0.00  0.00    +0.000 A 
ATOM     22  C   UNL     1      45.861   5.544   9.391  0.00  0.00    +0.000 A 
ATOM     23  S   UNL     1      45.017   4.171   8.828  0.00  0.00    +0.000 S 
ATOM     24  C   UNL     1      44.444   3.812  10.391  0.00  0.00    +0.000 A 
ATOM     25  N   UNL     1      43.660   2.726  10.621  0.00  0.00    +0.000 NA
ATOM     26  C   UNL     1      43.331   2.562  11.863  0.00  0.00    +0.000 A 
ATOM     27  N   UNL     1      43.709   3.384  12.890  0.00  0.00    +0.000 N 
ATOM     28  C   UNL     1      44.439   4.529  12.689  0.00  0.00    +0.000 A 
ATOM     29  O   UNL     1      44.640   5.312  13.613  0.00  0.00    +0.000 OA
ATOM     30  C   UNL     1      44.874   4.744  11.324  0.00  0.00    +0.000 A 
ATOM     31  H   UNL     1      43.393   3.221  13.832  0.00  0.00    +0.000 HD
ENDBRANCH  18  21
ENDBRANCH   1  19
TORSDOF 5
ENDMDL
MODEL 6
REMARK VINA RESULT:    -7.073      3.535      6.139
REMARK INTER + INTRA:         -10.138
REMARK INTER:                  -9.337
REMARK INTRA:                  -0.801
REMARK UNBOUND:                -0.998
REMARK  Name = 
REMARK  5 active torsions:
REMARK  status: ('A' for Active; 'I' for Inactive)
REMARK    1  A    between atoms: C_2  and  C_19
REMARK    2  A    between atoms: N_3  and  C_4
REMARK    3  A    between atoms: C_4  and  C_5
REMARK    4  A    between atoms: C_8  and  C_9
REMARK    5  A    between atoms: C_9  and  C_10
REMARK                            x       y       z     vdW  Elec       q    Type
REMARK                         _______ _______ _______ _____ _____    ______ ____
ROOT
ATOM      1  C   UNL     1      47.989   3.318  17.695  0.00  0.00    +0.000 C 
ENDROOT
BRANCH   1   2
ATOM      2  C   UNL     1      47.846   4.148  16.454  0.00  0.00    +0.000 A 
ATOM      3  C   UNL     1      47.026   3.759  15.393  0.00  0.00    +0.000 A 
ATOM      4  C   UNL     1      46.929   4.565  14.260  0.00  0.00    +0.000 A 
ATOM      5  C   UNL     1      47.654   5.755  14.215  0.00  0.00    +0.000 A 
ATOM      6  N   UNL     1      48.433   6.166  15.244  0.00  0.00    +0.000 NA
ATOM      7  C   UNL     1      48.508   5.363  16.332  0.00  0.00    +0.000 A 
BRANCH   5   8
ATOM      8  C   UNL     1      47.628   6.636  12.984  0.00  0.00    +0.000 C 
BRANCH   8   9
ATOM      9  C   UNL     1      46.253   7.142  12.628  0.00  0.00    +0.000 C 
ATOM     10  C   UNL     1      45.492   6.772  11.580  0.00  0.00    +0.000 C 
ATOM     11  C   UNL     1      44.101   7.333  11.355  0.00  0.00    +0.000 C 
ATOM     12  C   UNL     1      43.078   6.187  11.269  0.00  0.00    +0.000 C 
ATOM     13  N   UNL     1      43.431   5.169  10.261  0.00  0.00    +0.000 NA
ATOM     14  C   UNL     1      44.774   4.631  10.534  0.00  0.00    +0.000 C 
ATOM     15  C   UNL     1      45.851   5.725  10.552  0.00  0.00    +0.000 C 
ATOM     16  H   UNL     1      43.450   5.621   9.346  0.00  0.00    +0.000 HD
ENDBRANCH   8   9
ENDBRANCH   5   8
ENDBRANCH   1   2
BRANCH   1  19
ATOM     17  O   UNL     1      49.658   1.615  16.199  0.00  0.00    +0.000 OA
ATOM     18  C   UNL     1      50.132   2.227  17.152  0.00  0.00    +0.000 C 
ATOM     19  N   UNL     1      49.369   3.019  17.972  0.00  0.00    +0.000 N 
ATOM     20  H   UNL     1      49.836   3.658  18.606  0.00  0.00    +0.000 HD
BRANCH  18  21
ATOM     21  C   UNL     1      51.545   2.109  17.516  0.00  0.00    +0.000 A 
ATOM     22  C   UNL     1      52.151   0.864  17.596  0.00  0.00    +0.000 A 
ATOM     23  S   UNL     1      53.796   0.937  18.046  0.00  0.00    +0.000 S 
ATOM     24  C   UNL     1      53.762   2.638  18.111  0.00  0.00    +0.000 A 
ATOM     25  N   UNL     1      54.874   3.353  18.426  0.00  0.00    +0.000 NA
ATOM     26  C   UNL     1      54.705   4.637  18.400  0.00  0.00    +0.000 A 
ATOM     27  N   UNL     1      53.529   5.268  18.095  0.00  0.00    +0.000 N 
ATOM     28  C   UNL     1      52.368   4.582  17.843  0.00  0.00    +0.000 A 
ATOM     29  O   UNL     1      51.304   5.181  17.711  0.00  0.00    +0.000 OA
ATOM     30  C   UNL     1      52.504   3.140  17.815  0.00  0.00    +0.000 A 
ATOM     31  H   UNL     1      53.452   6.271  18.125  0.00  0.00    +0.000 HD
ENDBRANCH  18  21
ENDBRANCH   1  19
TORSDOF 5
ENDMDL
MODEL 7
REMARK VINA RESULT:    -7.003      4.464     10.274
REMARK INTER + INTRA:         -10.047
REMARK INTER:                  -9.317
REMARK INTRA:                  -0.730
REMARK UNBOUND:                -0.998
REMARK  Name = 
REMARK  5 active torsions:
REMARK  status: ('A' for Active; 'I' for Inactive)
REMARK    1  A    between atoms: C_2  and  C_19
REMARK    2  A    between atoms: N_3  and  C_4
REMARK    3  A    between atoms: C_4  and  C_5
REMARK    4  A    between atoms: C_8  and  C_9
REMARK    5  A    between atoms: C_9  and  C_10
REMARK                            x       y       z     vdW  Elec       q    Type
REMARK                         _______ _______ _______ _____ _____    ______ ____
ROOT
ATOM      1  C   UNL     1      47.593   3.635  16.405  0.00  0.00    +0.000 C 
ENDROOT
BRANCH   1   2
ATOM      2  C   UNL     1      47.830   4.277  17.740  0.00  0.00    +0.000 A 
ATOM      3  C   UNL     1      48.907   3.918  18.553  0.00  0.00    +0.000 A 
ATOM      4  C   UNL     1      49.081   4.544  19.788  0.00  0.00    +0.000 A 
ATOM      5  C   UNL     1      48.173   5.525  20.180  0.00  0.00    +0.000 A 
ATOM      6  N   UNL     1      47.138   5.909  19.394  0.00  0.00    +0.000 NA
ATOM      7  C   UNL     1      46.992   5.285  18.202  0.00  0.00    +0.000 A 
BRANCH   5   8
ATOM      8  C   UNL     1      48.285   6.193  21.534  0.00  0.00    +0.000 C 
BRANCH   8   9
ATOM      9  C   UNL     1      47.351   7.361  21.715  0.00  0.00    +0.000 C 
ATOM     10  C   UNL     1      47.581   8.650  21.396  0.00  0.00    +0.000 C 
ATOM     11  C   UNL     1      46.535   9.730  21.595  0.00  0.00    +0.000 C 
ATOM     12  C   UNL     1      46.263  10.452  20.264  0.00  0.00    +0.000 C 
ATOM     13  N   UNL     1      47.486  10.980  19.630  0.00  0.00    +0.000 NA
ATOM     14  C   UNL     1      48.461   9.895  19.429  0.00  0.00    +0.000 C 
ATOM     15  C   UNL     1      48.831   9.189  20.741  0.00  0.00    +0.000 C 
ATOM     16  H   UNL     1      47.902  11.666  20.262  0.00  0.00    +0.000 HD
ENDBRANCH   8   9
ENDBRANCH   5   8
ENDBRANCH   1   2
BRANCH   1  19
ATOM     17  O   UNL     1      46.962   3.109  13.713  0.00  0.00    +0.000 OA
ATOM     18  C   UNL     1      46.723   4.222  14.175  0.00  0.00    +0.000 C 
ATOM     19  N   UNL     1      47.066   4.577  15.455  0.00  0.00    +0.000 N 
ATOM     20  H   UNL     1      46.666   5.421  15.850  0.00  0.00    +0.000 HD
BRANCH  18  21
ATOM     21  C   UNL     1      46.100   5.273  13.368  0.00  0.00    +0.000 A 
ATOM     22  C   UNL     1      46.795   6.435  13.065  0.00  0.00    +0.000 A 
ATOM     23  S   UNL     1      45.894   7.540  12.127  0.00  0.00    +0.000 S 
ATOM     24  C   UNL     1      44.559   6.485  12.063  0.00  0.00    +0.000 A 
ATOM     25  N   UNL     1      43.430   6.818  11.383  0.00  0.00    +0.000 NA
ATOM     26  C   UNL     1      42.514   5.902  11.392  0.00  0.00    +0.000 A 
ATOM     27  N   UNL     1      42.622   4.691  12.020  0.00  0.00    +0.000 N 
ATOM     28  C   UNL     1      43.715   4.346  12.776  0.00  0.00    +0.000 A 
ATOM     29  O   UNL     1      43.717   3.310  13.437  0.00  0.00    +0.000 OA
ATOM     30  C   UNL     1      44.793   5.314  12.768  0.00  0.00    +0.000 A 
ATOM     31  H   UNL     1      41.861   4.033  12.019  0.00  0.00    +0.000 HD
ENDBRANCH  18  21
ENDBRANCH   1  19
TORSDOF 5
ENDMDL
MODEL 8
REMARK VINA RESULT:    -6.960      3.727      5.928
REMARK INTER + INTRA:          -9.992
REMARK INTER:                  -9.000
REMARK INTRA:                  -0.992
REMARK UNBOUND:                -0.998
REMARK  Name = 
REMARK  5 active torsions:
REMARK  status: ('A' for Active; 'I' for Inactive)
REMARK    1  A    between atoms: C_2  and  C_19
REMARK    2  A    between atoms: N_3  and  C_4
REMARK    3  A    between atoms: C_4  and  C_5
REMARK    4  A    between atoms: C_8  and  C_9
REMARK    5  A    between atoms: C_9  and  C_10
REMARK                            x       y       z     vdW  Elec       q    Type
REMARK                         _______ _______ _______ _____ _____    ______ ____
ROOT
ATOM      1  C   UNL     1      48.649   4.633  17.476  0.00  0.00    +0.000 C 
ENDROOT
BRANCH   1   2
ATOM      2  C   UNL     1      48.200   5.111  16.127  0.00  0.00    +0.000 A 
ATOM      3  C   UNL     1      47.270   4.403  15.363  0.00  0.00    +0.000 A 
ATOM      4  C   UNL     1      46.888   4.888  14.112  0.00  0.00    +0.000 A 
ATOM      5  C   UNL     1      47.441   6.082  13.654  0.00  0.00    +0.000 A 
ATOM      6  N   UNL     1      48.323   6.800  14.392  0.00  0.00    +0.000 NA
ATOM      7  C   UNL     1      48.677   6.305  15.601  0.00  0.00    +0.000 A 
BRANCH   5   8
ATOM      8  C   UNL     1      47.102   6.621  12.281  0.00  0.00    +0.000 C 
BRANCH   8   9
ATOM      9  C   UNL     1      45.624   6.801  12.047  0.00  0.00    +0.000 C 
ATOM     10  C   UNL     1      44.789   5.959  11.407  0.00  0.00    +0.000 C 
ATOM     11  C   UNL     1      43.305   6.242  11.272  0.00  0.00    +0.000 C 
ATOM     12  C   UNL     1      42.491   5.073  11.852  0.00  0.00    +0.000 C 
ATOM     13  N   UNL     1      42.857   3.767  11.273  0.00  0.00    +0.000 NA
ATOM     14  C   UNL     1      44.298   3.520  11.452  0.00  0.00    +0.000 C 
ATOM     15  C   UNL     1      45.164   4.618  10.819  0.00  0.00    +0.000 C 
ATOM     16  H   UNL     1      42.663   3.797  10.271  0.00  0.00    +0.000 HD
ENDBRANCH   8   9
ENDBRANCH   5   8
ENDBRANCH   1   2
BRANCH   1  19
ATOM     17  O   UNL     1      50.415   4.704  19.667  0.00  0.00    +0.000 OA
ATOM     18  C   UNL     1      50.813   4.255  18.595  0.00  0.00    +0.000 C 
ATOM     19  N   UNL     1      50.036   4.252  17.464  0.00  0.00    +0.000 N 
ATOM     20  H   UNL     1      50.329   3.690  16.673  0.00  0.00    +0.000 HD
BRANCH  18  21
ATOM     21  C   UNL     1      52.173   3.737  18.435  0.00  0.00    +0.000 A 
ATOM     22  C   UNL     1      53.267   4.500  18.818  0.00  0.00    +0.000 A 
ATOM     23  S   UNL     1      54.763   3.728  18.539  0.00  0.00    +0.000 S 
ATOM     24  C   UNL     1      53.996   2.333  17.934  0.00  0.00    +0.000 A 
ATOM     25  N   UNL     1      54.715   1.255  17.525  0.00  0.00    +0.000 NA
ATOM     26  C   UNL     1      53.994   0.256  17.123  0.00  0.00    +0.000 A 
ATOM     27  N   UNL     1      52.626   0.240  17.089  0.00  0.00    +0.000 N 
ATOM     28  C   UNL     1      51.866   1.333  17.426  0.00  0.00    +0.000 A 
ATOM     29  O   UNL     1      50.650   1.326  17.251  0.00  0.00    +0.000 OA
ATOM     30  C   UNL     1      52.616   2.468  17.924  0.00  0.00    +0.000 A 
ATOM     31  H   UNL     1      52.122  -0.556  16.735  0.00  0.00    +0.000 HD
ENDBRANCH  18  21
ENDBRANCH   1  19
TORSDOF 5
ENDMDL
MODEL 9
REMARK VINA RESULT:    -6.669      4.685      7.118
REMARK INTER + INTRA:          -9.616
REMARK INTER:                  -8.617
REMARK INTRA:                  -1.000
REMARK UNBOUND:                -0.998
REMARK  Name = 
REMARK  5 active torsions:
REMARK  status: ('A' for Active; 'I' for Inactive)
REMARK    1  A    between atoms: C_2  and  C_19
REMARK    2  A    between atoms: N_3  and  C_4
REMARK    3  A    between atoms: C_4  and  C_5
REMARK    4  A    between atoms: C_8  and  C_9
REMARK    5  A    between atoms: C_9  and  C_10
REMARK                            x       y       z     vdW  Elec       q    Type
REMARK                         _______ _______ _______ _____ _____    ______ ____
ROOT
ATOM      1  C   UNL     1      46.671   8.226  13.347  0.00  0.00    +0.000 C 
ENDROOT
BRANCH   1   2
ATOM      2  C   UNL     1      47.992   8.328  12.644  0.00  0.00    +0.000 A 
ATOM      3  C   UNL     1      48.889   7.259  12.595  0.00  0.00    +0.000 A 
ATOM      4  C   UNL     1      50.106   7.405  11.931  0.00  0.00    +0.000 A 
ATOM      5  C   UNL     1      50.398   8.623  11.320  0.00  0.00    +0.000 A 
ATOM      6  N   UNL     1      49.531   9.664  11.331  0.00  0.00    +0.000 NA
ATOM      7  C   UNL     1      48.357   9.494  11.983  0.00  0.00    +0.000 A 
BRANCH   5   8
ATOM      8  C   UNL     1      51.730   8.852  10.636  0.00  0.00    +0.000 C 
BRANCH   8   9
ATOM      9  C   UNL     1      52.611   7.629  10.598  0.00  0.00    +0.000 C 
ATOM     10  C   UNL     1      52.812   6.799   9.557  0.00  0.00    +0.000 C 
ATOM     11  C   UNL     1      53.760   5.618   9.638  0.00  0.00    +0.000 C 
ATOM     12  C   UNL     1      54.819   5.714   8.526  0.00  0.00    +0.000 C 
ATOM     13  N   UNL     1      54.234   5.858   7.179  0.00  0.00    +0.000 NA
ATOM     14  C   UNL     1      53.345   7.032   7.137  0.00  0.00    +0.000 C 
ATOM     15  C   UNL     1      52.218   6.951   8.176  0.00  0.00    +0.000 C 
ATOM     16  H   UNL     1      53.672   5.028   6.985  0.00  0.00    +0.000 HD
ENDBRANCH   8   9
ENDBRANCH   5   8
ENDBRANCH   1   2
BRANCH   1  19
ATOM     17  O   UNL     1      44.776   7.762  11.318  0.00  0.00    +0.000 OA
ATOM     18  C   UNL     1      45.152   6.819  12.009  0.00  0.00    +0.000 C 
ATOM     19  N   UNL     1      46.018   6.976  13.061  0.00  0.00    +0.000 N 
ATOM     20  H   UNL     1      46.455   6.153  13.461  0.00  0.00    +0.000 HD
BRANCH  18  21
ATOM     21  C   UNL     1      44.657   5.458  11.789  0.00  0.00    +0.000 A 
ATOM     22  C   UNL     1      43.918   4.811  12.768  0.00  0.00    +0.000 A 
ATOM     23  S   UNL     1      43.445   3.231  12.329  0.00  0.00    +0.000 S 
ATOM     24  C   UNL     1      44.181   3.374  10.800  0.00  0.00    +0.000 A 
ATOM     25  N   UNL     1      44.130   2.361   9.896  0.00  0.00    +0.000 NA
ATOM     26  C   UNL     1      44.702   2.628   8.765  0.00  0.00    +0.000 A 
ATOM     27  N   UNL     1      45.322   3.810   8.459  0.00  0.00    +0.000 N 
ATOM     28  C   UNL     1      45.456   4.830   9.368  0.00  0.00    +0.000 A 
ATOM     29  O   UNL     1      46.137   5.817   9.104  0.00  0.00    +0.000 OA
ATOM     30  C   UNL     1      44.798   4.606  10.639  0.00  0.00    +0.000 A 
ATOM     31  H   UNL     1      45.778   3.945   7.573  0.00  0.00    +0.000 HD
ENDBRANCH  18  21
ENDBRANCH   1  19
TORSDOF 5
ENDMDL
