MODEL 1
REMARK VINA RESULT:    -7.432      0.000      0.000
REMARK INTER + INTRA:         -10.817
REMARK INTER:                 -10.256
REMARK INTRA:                  -0.561
REMARK UNBOUND:                -0.561
REMARK  Name = 
REMARK  8 active torsions:
REMARK  status: ('A' for Active; 'I' for Inactive)
REMARK    1  A    between atoms: C_1  and  N_2
REMARK    2  A    between atoms: C_4  and  C_5
REMARK    3  A    between atoms: N_7  and  C_8
REMARK    4  A    between atoms: C_8  and  C_9
REMARK    5  A    between atoms: C_12  and  N_13
REMARK    6  A    between atoms: N_13  and  C_14
REMARK    7  A    between atoms: C_14  and  C_15
REMARK    8  A    between atoms: C_15  and  O_16
REMARK                            x       y       z     vdW  Elec       q    Type
REMARK                         _______ _______ _______ _____ _____    ______ ____
ROOT
ATOM      1  C   UNL     1      44.068   6.060  11.197  0.00  0.00    +0.000 C 
ATOM      2  O   UNL     1      42.915   5.778  11.497  0.00  0.00    +0.000 OA
ATOM      3  N   UNL     1      44.829   5.243  10.381  0.00  0.00    +0.000 N 
ATOM      4  H   UNL     1      45.749   5.535  10.084  0.00  0.00    +0.000 HD
ENDROOT
BRANCH   1   8
ATOM      5  C   UNL     1      45.238  10.875  11.790  0.00  0.00    +0.000 C 
ATOM      6  N   UNL     1      45.255   9.434  11.918  0.00  0.00    +0.000 N 
ATOM      7  C   UNL     1      44.374   8.566  11.329  0.00  0.00    +0.000 A 
ATOM      8  C   UNL     1      44.737   7.266  11.673  0.00  0.00    +0.000 A 
ATOM      9  C   UNL     1      45.901   7.379  12.522  0.00  0.00    +0.000 A 
ATOM     10  C   UNL     1      46.780   6.566  13.236  0.00  0.00    +0.000 A 
ATOM     11 CL   UNL     1      46.580   4.884  13.299  0.00  0.00    +0.000 Cl
ATOM     12  N   UNL     1      47.790   7.064  13.973  0.00  0.00    +0.000 NA
ATOM     13  C   UNL     1      47.932   8.394  13.984  0.00  0.00    +0.000 A 
ATOM     14  N   UNL     1      47.174   9.302  13.354  0.00  0.00    +0.000 NA
ATOM     15  C   UNL     1      46.178   8.739  12.646  0.00  0.00    +0.000 A 
ENDBRANCH   1   8
BRANCH   3  16
ATOM     16  C   UNL     1      44.237   4.064   9.793  0.00  0.00    +0.000 C 
BRANCH  16  17
ATOM     17  C   UNL     1      45.187   3.344   8.871  0.00  0.00    +0.000 A 
ATOM     18  C   UNL     1      45.942   4.052   7.930  0.00  0.00    +0.000 A 
ATOM     19  C   UNL     1      46.819   3.385   7.060  0.00  0.00    +0.000 A 
ATOM     20  C   UNL     1      46.977   1.996   7.112  0.00  0.00    +0.000 A 
ATOM     21  C   UNL     1      46.195   1.295   8.041  0.00  0.00    +0.000 A 
ATOM     22  C   UNL     1      45.321   1.953   8.916  0.00  0.00    +0.000 A 
BRANCH  20  23
ATOM     23  N   UNL     1      47.746   1.261   6.195  0.00  0.00    +0.000 N 
ATOM     24  H   UNL     1      48.732   1.294   6.451  0.00  0.00    +0.000 HD
BRANCH  23  25
ATOM     25  C   UNL     1      47.539   1.477   4.756  0.00  0.00    +0.000 C 
BRANCH  25  26
ATOM     26  C   UNL     1      46.993   0.190   4.120  0.00  0.00    +0.000 C 
BRANCH  26  27
ATOM     27  O   UNL     1      47.391   0.093   2.753  0.00  0.00    +0.000 OA
ATOM     28  H   UNL     1      47.861   0.926   2.555  0.00  0.00    +0.000 HD
ENDBRANCH  26  27
ENDBRANCH  25  26
ENDBRANCH  23  25
ENDBRANCH  20  23
ENDBRANCH  16  17
ENDBRANCH   3  16
TORSDOF 7
ENDMDL
MODEL 2
REMARK VINA RESULT:    -7.203      2.563      3.872
REMARK INTER + INTRA:         -10.501
REMARK INTER:                 -10.090
REMARK INTRA:                  -0.411
REMARK UNBOUND:                -0.561
REMARK  Name = 
REMARK  8 active torsions:
REMARK  status: ('A' for Active; 'I' for Inactive)
REMARK    1  A    between atoms: C_1  and  N_2
REMARK    2  A    between atoms: C_4  and  C_5
REMARK    3  A    between atoms: N_7  and  C_8
REMARK    4  A    between atoms: C_8  and  C_9
REMARK    5  A    between atoms: C_12  and  N_13
REMARK    6  A    between atoms: N_13  and  C_14
REMARK    7  A    between atoms: C_14  and  C_15
REMARK    8  A    between atoms: C_15  and  O_16
REMARK                            x       y       z     vdW  Elec       q    Type
REMARK                         _______ _______ _______ _____ _____    ______ ____
ROOT
ATOM      1  C   UNL     1      46.105   4.213  13.552  0.00  0.00    +0.000 C 
ATOM      2  O   UNL     1      46.221   3.040  13.222  0.00  0.00    +0.000 OA
ATOM      3  N   UNL     1      45.047   4.990  13.119  0.00  0.00    +0.000 N 
ATOM      4  H   UNL     1      44.929   5.930  13.467  0.00  0.00    +0.000 HD
ENDROOT
BRANCH   1   8
ATOM      5  C   UNL     1      48.800   5.387  17.585  0.00  0.00    +0.000 C 
ATOM      6  N   UNL     1      48.259   5.409  16.244  0.00  0.00    +0.000 N 
ATOM      7  C   UNL     1      47.356   4.517  15.728  0.00  0.00    +0.000 A 
ATOM      8  C   UNL     1      47.065   4.890  14.418  0.00  0.00    +0.000 A 
ATOM      9  C   UNL     1      47.850   6.073  14.146  0.00  0.00    +0.000 A 
ATOM     10  C   UNL     1      48.099   6.969  13.108  0.00  0.00    +0.000 A 
ATOM     11 CL   UNL     1      47.394   6.774  11.579  0.00  0.00    +0.000 Cl
ATOM     12  N   UNL     1      48.961   7.994  13.229  0.00  0.00    +0.000 NA
ATOM     13  C   UNL     1      49.573   8.135  14.410  0.00  0.00    +0.000 A 
ATOM     14  N   UNL     1      49.440   7.361  15.496  0.00  0.00    +0.000 NA
ATOM     15  C   UNL     1      48.573   6.350  15.305  0.00  0.00    +0.000 A 
ENDBRANCH   1   8
BRANCH   3  16
ATOM     16  C   UNL     1      43.999   4.396  12.321  0.00  0.00    +0.000 C 
BRANCH  16  17
ATOM     17  C   UNL     1      44.443   4.113  10.910  0.00  0.00    +0.000 A 
ATOM     18  C   UNL     1      44.221   2.859  10.329  0.00  0.00    +0.000 A 
ATOM     19  C   UNL     1      44.644   2.586   9.020  0.00  0.00    +0.000 A 
ATOM     20  C   UNL     1      45.290   3.557   8.246  0.00  0.00    +0.000 A 
ATOM     21  C   UNL     1      45.531   4.800   8.849  0.00  0.00    +0.000 A 
ATOM     22  C   UNL     1      45.108   5.083  10.154  0.00  0.00    +0.000 A 
BRANCH  20  23
ATOM     23  N   UNL     1      45.840   3.310   6.978  0.00  0.00    +0.000 N 
ATOM     24  H   UNL     1      45.196   2.760   6.413  0.00  0.00    +0.000 HD
BRANCH  23  25
ATOM     25  C   UNL     1      47.221   2.816   6.884  0.00  0.00    +0.000 C 
BRANCH  25  26
ATOM     26  C   UNL     1      47.557   2.514   5.416  0.00  0.00    +0.000 C 
BRANCH  26  27
ATOM     27  O   UNL     1      48.427   1.387   5.317  0.00  0.00    +0.000 OA
ATOM     28  H   UNL     1      49.041   1.460   6.074  0.00  0.00    +0.000 HD
ENDBRANCH  26  27
ENDBRANCH  25  26
ENDBRANCH  23  25
ENDBRANCH  20  23
ENDBRANCH  16  17
ENDBRANCH   3  16
TORSDOF 7
ENDMDL
MODEL 3
REMARK VINA RESULT:    -7.192      3.064      4.390
REMARK INTER + INTRA:         -10.485
REMARK INTER:                  -9.883
REMARK INTRA:                  -0.602
REMARK UNBOUND:                -0.561
REMARK  Name = 
REMARK  8 active torsions:
REMARK  status: ('A' for Active; 'I' for Inactive)
REMARK    1  A    between atoms: C_1  and  N_2
REMARK    2  A    between atoms: C_4  and  C_5
REMARK    3  A    between atoms: N_7  and  C_8
REMARK    4  A    between atoms: C_8  and  C_9
REMARK    5  A    between atoms: C_12  and  N_13
REMARK    6  A    between atoms: N_13  and  C_14
REMARK    7  A    between atoms: C_14  and  C_15
REMARK    8  A    between atoms: C_15  and  O_16
REMARK                            x       y       z     vdW  Elec       q    Type
REMARK                         _______ _______ _______ _____ _____    ______ ____
ROOT
ATOM      1  C   UNL     1      46.670   4.715  14.114  0.00  0.00    +0.000 C 
ATOM      2  O   UNL     1      46.772   3.497  14.054  0.00  0.00    +0.000 OA
ATOM      3  N   UNL     1      45.575   5.381  13.595  0.00  0.00    +0.000 N 
ATOM      4  H   UNL     1      45.475   6.377  13.727  0.00  0.00    +0.000 HD
ENDROOT
BRANCH   1   8
ATOM      5  C   UNL     1      50.101   8.294  14.679  0.00  0.00    +0.000 C 
ATOM      6  N   UNL     1      49.232   7.173  14.958  0.00  0.00    +0.000 N 
ATOM      7  C   UNL     1      48.299   6.649  14.103  0.00  0.00    +0.000 A 
ATOM      8  C   UNL     1      47.685   5.565  14.727  0.00  0.00    +0.000 A 
ATOM      9  C   UNL     1      48.294   5.449  16.033  0.00  0.00    +0.000 A 
ATOM     10  C   UNL     1      48.206   4.664  17.182  0.00  0.00    +0.000 A 
ATOM     11 CL   UNL     1      47.062   3.421  17.321  0.00  0.00    +0.000 Cl
ATOM     12  N   UNL     1      48.966   4.886  18.269  0.00  0.00    +0.000 NA
ATOM     13  C   UNL     1      49.837   5.899  18.202  0.00  0.00    +0.000 A 
ATOM     14  N   UNL     1      50.038   6.738  17.177  0.00  0.00    +0.000 NA
ATOM     15  C   UNL     1      49.240   6.468  16.128  0.00  0.00    +0.000 A 
ENDBRANCH   1   8
BRANCH   3  16
ATOM     16  C   UNL     1      44.476   4.629  13.036  0.00  0.00    +0.000 C 
BRANCH  16  17
ATOM     17  C   UNL     1      44.680   4.313  11.577  0.00  0.00    +0.000 A 
ATOM     18  C   UNL     1      44.333   3.059  11.063  0.00  0.00    +0.000 A 
ATOM     19  C   UNL     1      44.533   2.755   9.708  0.00  0.00    +0.000 A 
ATOM     20  C   UNL     1      45.074   3.695   8.824  0.00  0.00    +0.000 A 
ATOM     21  C   UNL     1      45.443   4.938   9.357  0.00  0.00    +0.000 A 
ATOM     22  C   UNL     1      45.243   5.252  10.707  0.00  0.00    +0.000 A 
BRANCH  20  23
ATOM     23  N   UNL     1      45.408   3.414   7.489  0.00  0.00    +0.000 N 
ATOM     24  H   UNL     1      45.082   2.484   7.230  0.00  0.00    +0.000 HD
BRANCH  23  25
ATOM     25  C   UNL     1      46.780   3.669   7.027  0.00  0.00    +0.000 C 
BRANCH  25  26
ATOM     26  C   UNL     1      47.518   2.333   6.856  0.00  0.00    +0.000 C 
BRANCH  26  27
ATOM     27  O   UNL     1      48.858   2.549   6.413  0.00  0.00    +0.000 OA
ATOM     28  H   UNL     1      49.259   3.152   7.069  0.00  0.00    +0.000 HD
ENDBRANCH  26  27
ENDBRANCH  25  26
ENDBRANCH  23  25
ENDBRANCH  20  23
ENDBRANCH  16  17
ENDBRANCH   3  16
TORSDOF 7
ENDMDL
MODEL 4
REMARK VINA RESULT:    -7.052      2.303      3.038
REMARK INTER + INTRA:         -10.293
REMARK INTER:                  -9.977
REMARK INTRA:                  -0.316
REMARK UNBOUND:                -0.561
REMARK  Name = 
REMARK  8 active torsions:
REMARK  status: ('A' for Active; 'I' for Inactive)
REMARK    1  A    between atoms: C_1  and  N_2
REMARK    2  A    between atoms: C_4  and  C_5
REMARK    3  A    between atoms: N_7  and  C_8
REMARK    4  A    between atoms: C_8  and  C_9
REMARK    5  A    between atoms: C_12  and  N_13
REMARK    6  A    between atoms: N_13  and  C_14
REMARK    7  A    between atoms: C_14  and  C_15
REMARK    8  A    between atoms: C_15  and  O_16
REMARK                            x       y       z     vdW  Elec       q    Type
REMARK                         _______ _______ _______ _____ _____    ______ ____
ROOT
ATOM      1  C   UNL     1      45.835   5.395  11.735  0.00  0.00    +0.000 C 
ATOM      2  O   UNL     1      45.831   6.391  11.025  0.00  0.00    +0.000 OA
ATOM      3  N   UNL     1      45.136   4.253  11.393  0.00  0.00    +0.000 N 
ATOM      4  H   UNL     1      45.219   3.417  11.954  0.00  0.00    +0.000 HD
ENDROOT
BRANCH   1   8
ATOM      5  C   UNL     1      47.100   4.077  16.380  0.00  0.00    +0.000 C 
ATOM      6  N   UNL     1      47.111   4.729  15.089  0.00  0.00    +0.000 N 
ATOM      7  C   UNL     1      46.245   4.481  14.057  0.00  0.00    +0.000 A 
ATOM      8  C   UNL     1      46.565   5.326  12.997  0.00  0.00    +0.000 A 
ATOM      9  C   UNL     1      47.695   6.117  13.433  0.00  0.00    +0.000 A 
ATOM     10  C   UNL     1      48.545   7.112  12.953  0.00  0.00    +0.000 A 
ATOM     11 CL   UNL     1      48.417   7.700  11.369  0.00  0.00    +0.000 Cl
ATOM     12  N   UNL     1      49.556   7.613  13.685  0.00  0.00    +0.000 NA
ATOM     13  C   UNL     1      49.711   7.122  14.920  0.00  0.00    +0.000 A 
ATOM     14  N   UNL     1      48.981   6.171  15.519  0.00  0.00    +0.000 NA
ATOM     15  C   UNL     1      47.996   5.706  14.730  0.00  0.00    +0.000 A 
ENDBRANCH   1   8
BRANCH   3  16
ATOM     16  C   UNL     1      44.443   4.188  10.126  0.00  0.00    +0.000 C 
BRANCH  16  17
ATOM     17  C   UNL     1      45.236   3.455   9.076  0.00  0.00    +0.000 A 
ATOM     18  C   UNL     1      45.836   4.150   8.020  0.00  0.00    +0.000 A 
ATOM     19  C   UNL     1      46.564   3.472   7.031  0.00  0.00    +0.000 A 
ATOM     20  C   UNL     1      46.726   2.082   7.073  0.00  0.00    +0.000 A 
ATOM     21  C   UNL     1      46.098   1.394   8.120  0.00  0.00    +0.000 A 
ATOM     22  C   UNL     1      45.372   2.064   9.114  0.00  0.00    +0.000 A 
BRANCH  20  23
ATOM     23  N   UNL     1      47.340   1.335   6.054  0.00  0.00    +0.000 N 
ATOM     24  H   UNL     1      48.294   1.091   6.319  0.00  0.00    +0.000 HD
BRANCH  23  25
ATOM     25  C   UNL     1      47.255   1.814   4.667  0.00  0.00    +0.000 C 
BRANCH  25  26
ATOM     26  C   UNL     1      46.865   0.647   3.747  0.00  0.00    +0.000 C 
BRANCH  26  27
ATOM     27  O   UNL     1      45.724   0.984   2.959  0.00  0.00    +0.000 OA
ATOM     28  H   UNL     1      45.941   0.707   2.048  0.00  0.00    +0.000 HD
ENDBRANCH  26  27
ENDBRANCH  25  26
ENDBRANCH  23  25
ENDBRANCH  20  23
ENDBRANCH  16  17
ENDBRANCH   3  16
TORSDOF 7
ENDMDL
MODEL 5
REMARK VINA RESULT:    -6.993      3.935      6.752
REMARK INTER + INTRA:         -10.211
REMARK INTER:                  -9.118
REMARK INTRA:                  -1.093
REMARK UNBOUND:                -0.561
REMARK  Name = 
REMARK  8 active torsions:
REMARK  status: ('A' for Active; 'I' for Inactive)
REMARK    1  A    between atoms: C_1  and  N_2
REMARK    2  A    between atoms: C_4  and  C_5
REMARK    3  A    between atoms: N_7  and  C_8
REMARK    4  A    between atoms: C_8  and  C_9
REMARK    5  A    between atoms: C_12  and  N_13
REMARK    6  A    between atoms: N_13  and  C_14
REMARK    7  A    between atoms: C_14  and  C_15
REMARK    8  A    between atoms: C_15  and  O_16
REMARK                            x       y       z     vdW  Elec       q    Type
REMARK                         _______ _______ _______ _____ _____    ______ ____
ROOT
ATOM      1  C   UNL     1      48.784   7.025  14.768  0.00  0.00    +0.000 C 
ATOM      2  O   UNL     1      49.633   6.934  13.890  0.00  0.00    +0.000 OA
ATOM      3  N   UNL     1      47.628   7.761  14.589  0.00  0.00    +0.000 N 
ATOM      4  H   UNL     1      46.907   7.757  15.296  0.00  0.00    +0.000 HD
ENDROOT
BRANCH   1   8
ATOM      5  C   UNL     1      50.413   5.987  19.370  0.00  0.00    +0.000 C 
ATOM      6  N   UNL     1      49.670   5.918  18.131  0.00  0.00    +0.000 N 
ATOM      7  C   UNL     1      49.775   6.794  17.083  0.00  0.00    +0.000 A 
ATOM      8  C   UNL     1      48.917   6.375  16.068  0.00  0.00    +0.000 A 
ATOM      9  C   UNL     1      48.265   5.180  16.553  0.00  0.00    +0.000 A 
ATOM     10  C   UNL     1      47.315   4.246  16.143  0.00  0.00    +0.000 A 
ATOM     11 CL   UNL     1      46.514   4.389  14.656  0.00  0.00    +0.000 Cl
ATOM     12  N   UNL     1      46.924   3.223  16.923  0.00  0.00    +0.000 NA
ATOM     13  C   UNL     1      47.501   3.123  18.126  0.00  0.00    +0.000 A 
ATOM     14  N   UNL     1      48.423   3.936  18.659  0.00  0.00    +0.000 NA
ATOM     15  C   UNL     1      48.761   4.943  17.833  0.00  0.00    +0.000 A 
ENDBRANCH   1   8
BRANCH   3  16
ATOM     16  C   UNL     1      47.361   8.381  13.311  0.00  0.00    +0.000 C 
BRANCH  16  17
ATOM     17  C   UNL     1      46.439   7.553  12.454  0.00  0.00    +0.000 A 
ATOM     18  C   UNL     1      45.051   7.685  12.565  0.00  0.00    +0.000 A 
ATOM     19  C   UNL     1      44.187   6.908  11.779  0.00  0.00    +0.000 A 
ATOM     20  C   UNL     1      44.683   5.985  10.850  0.00  0.00    +0.000 A 
ATOM     21  C   UNL     1      46.075   5.843  10.768  0.00  0.00    +0.000 A 
ATOM     22  C   UNL     1      46.944   6.618  11.546  0.00  0.00    +0.000 A 
BRANCH  20  23
ATOM     23  N   UNL     1      43.875   5.097  10.121  0.00  0.00    +0.000 N 
ATOM     24  H   UNL     1      42.897   5.379  10.179  0.00  0.00    +0.000 HD
BRANCH  23  25
ATOM     25  C   UNL     1      44.047   3.651  10.317  0.00  0.00    +0.000 C 
BRANCH  25  26
ATOM     26  C   UNL     1      43.505   3.254  11.698  0.00  0.00    +0.000 C 
BRANCH  26  27
ATOM     27  O   UNL     1      42.895   1.964  11.651  0.00  0.00    +0.000 OA
ATOM     28  H   UNL     1      42.976   1.668  10.723  0.00  0.00    +0.000 HD
ENDBRANCH  26  27
ENDBRANCH  25  26
ENDBRANCH  23  25
ENDBRANCH  20  23
ENDBRANCH  16  17
ENDBRANCH   3  16
TORSDOF 7
ENDMDL
MODEL 6
REMARK VINA RESULT:    -6.471      5.212      8.509
REMARK INTER + INTRA:          -9.491
REMARK INTER:                  -8.675
REMARK INTRA:                  -0.817
REMARK UNBOUND:                -0.561
REMARK  Name = 
REMARK  8 active torsions:
REMARK  status: ('A' for Active; 'I' for Inactive)
REMARK    1  A    between atoms: C_1  and  N_2
REMARK    2  A    between atoms: C_4  and  C_5
REMARK    3  A    between atoms: N_7  and  C_8
REMARK    4  A    between atoms: C_8  and  C_9
REMARK    5  A    between atoms: C_12  and  N_13
REMARK    6  A    between atoms: N_13  and  C_14
REMARK    7  A    between atoms: C_14  and  C_15
REMARK    8  A    between atoms: C_15  and  O_16
REMARK                            x       y       z     vdW  Elec       q    Type
REMARK                         _______ _______ _______ _____ _____    ______ ____
ROOT
ATOM      1  C   UNL     1      48.246   7.113  13.877  0.00  0.00    +0.000 C 
ATOM      2  O   UNL     1      49.310   6.857  13.329  0.00  0.00    +0.000 OA
ATOM      3  N   UNL     1      48.181   7.471  15.211  0.00  0.00    +0.000 N 
ATOM      4  H   UNL     1      47.302   7.754  15.620  0.00  0.00    +0.000 HD
ENDROOT
BRANCH   1   8
ATOM      5  C   UNL     1      44.250   8.533  11.245  0.00  0.00    +0.000 C 
ATOM      6  N   UNL     1      45.172   7.718  12.006  0.00  0.00    +0.000 N 
ATOM      7  C   UNL     1      46.394   8.118  12.480  0.00  0.00    +0.000 A 
ATOM      8  C   UNL     1      46.965   7.058  13.181  0.00  0.00    +0.000 A 
ATOM      9  C   UNL     1      46.020   5.966  13.110  0.00  0.00    +0.000 A 
ATOM     10  C   UNL     1      45.890   4.643  13.530  0.00  0.00    +0.000 A 
ATOM     11 CL   UNL     1      47.132   3.853  14.371  0.00  0.00    +0.000 Cl
ATOM     12  N   UNL     1      44.812   3.894  13.236  0.00  0.00    +0.000 NA
ATOM     13  C   UNL     1      43.843   4.480  12.524  0.00  0.00    +0.000 A 
ATOM     14  N   UNL     1      43.821   5.734  12.051  0.00  0.00    +0.000 NA
ATOM     15  C   UNL     1      44.932   6.424  12.370  0.00  0.00    +0.000 A 
ENDBRANCH   1   8
BRANCH   3  16
ATOM     16  C   UNL     1      49.398   7.631  15.972  0.00  0.00    +0.000 C 
BRANCH  16  17
ATOM     17  C   UNL     1      49.884   6.331  16.557  0.00  0.00    +0.000 A 
ATOM     18  C   UNL     1      48.975   5.342  16.950  0.00  0.00    +0.000 A 
ATOM     19  C   UNL     1      49.421   4.134  17.508  0.00  0.00    +0.000 A 
ATOM     20  C   UNL     1      50.785   3.872  17.679  0.00  0.00    +0.000 A 
ATOM     21  C   UNL     1      51.683   4.881  17.307  0.00  0.00    +0.000 A 
ATOM     22  C   UNL     1      51.247   6.088  16.745  0.00  0.00    +0.000 A 
BRANCH  20  23
ATOM     23  N   UNL     1      51.288   2.737  18.337  0.00  0.00    +0.000 N 
ATOM     24  H   UNL     1      51.122   2.806  19.340  0.00  0.00    +0.000 HD
BRANCH  23  25
ATOM     25  C   UNL     1      52.651   2.280  18.031  0.00  0.00    +0.000 C 
BRANCH  25  26
ATOM     26  C   UNL     1      52.608   0.812  17.581  0.00  0.00    +0.000 C 
BRANCH  26  27
ATOM     27  O   UNL     1      51.497   0.135  18.167  0.00  0.00    +0.000 OA
ATOM     28  H   UNL     1      51.789  -0.126  19.062  0.00  0.00    +0.000 HD
ENDBRANCH  26  27
ENDBRANCH  25  26
ENDBRANCH  23  25
ENDBRANCH  20  23
ENDBRANCH  16  17
ENDBRANCH   3  16
TORSDOF 7
ENDMDL
MODEL 7
REMARK VINA RESULT:    -6.439      1.812      2.392
REMARK INTER + INTRA:          -9.447
REMARK INTER:                  -8.857
REMARK INTRA:                  -0.590
REMARK UNBOUND:                -0.561
REMARK  Name = 
REMARK  8 active torsions:
REMARK  status: ('A' for Active; 'I' for Inactive)
REMARK    1  A    between atoms: C_1  and  N_2
REMARK    2  A    between atoms: C_4  and  C_5
REMARK    3  A    between atoms: N_7  and  C_8
REMARK    4  A    between atoms: C_8  and  C_9
REMARK    5  A    between atoms: C_12  and  N_13
REMARK    6  A    between atoms: N_13  and  C_14
REMARK    7  A    between atoms: C_14  and  C_15
REMARK    8  A    between atoms: C_15  and  O_16
REMARK                            x       y       z     vdW  Elec       q    Type
REMARK                         _______ _______ _______ _____ _____    ______ ____
ROOT
ATOM      1  C   UNL     1      44.952   7.093  12.200  0.00  0.00    +0.000 C 
ATOM      2  O   UNL     1      44.966   6.369  13.187  0.00  0.00    +0.000 OA
ATOM      3  N   UNL     1      44.290   6.731  11.041  0.00  0.00    +0.000 N 
ATOM      4  H   UNL     1      44.226   7.378  10.268  0.00  0.00    +0.000 HD
ENDROOT
BRANCH   1   8
ATOM      5  C   UNL     1      45.697  12.007  11.753  0.00  0.00    +0.000 C 
ATOM      6  N   UNL     1      45.945  10.595  11.942  0.00  0.00    +0.000 N 
ATOM      7  C   UNL     1      44.992   9.612  11.985  0.00  0.00    +0.000 A 
ATOM      8  C   UNL     1      45.629   8.385  12.156  0.00  0.00    +0.000 A 
ATOM      9  C   UNL     1      47.045   8.666  12.223  0.00  0.00    +0.000 A 
ATOM     10  C   UNL     1      48.256   7.996  12.391  0.00  0.00    +0.000 A 
ATOM     11 CL   UNL     1      48.315   6.324  12.659  0.00  0.00    +0.000 Cl
ATOM     12  N   UNL     1      49.438   8.637  12.423  0.00  0.00    +0.000 NA
ATOM     13  C   UNL     1      49.411   9.966  12.271  0.00  0.00    +0.000 A 
ATOM     14  N   UNL     1      48.336  10.747  12.102  0.00  0.00    +0.000 NA
ATOM     15  C   UNL     1      47.187  10.046  12.090  0.00  0.00    +0.000 A 
ENDBRANCH   1   8
BRANCH   3  16
ATOM     16  C   UNL     1      43.523   5.507  11.004  0.00  0.00    +0.000 C 
BRANCH  16  17
ATOM     17  C   UNL     1      44.204   4.428  10.203  0.00  0.00    +0.000 A 
ATOM     18  C   UNL     1      43.959   3.077  10.474  0.00  0.00    +0.000 A 
ATOM     19  C   UNL     1      44.600   2.067   9.740  0.00  0.00    +0.000 A 
ATOM     20  C   UNL     1      45.494   2.374   8.708  0.00  0.00    +0.000 A 
ATOM     21  C   UNL     1      45.751   3.731   8.465  0.00  0.00    +0.000 A 
ATOM     22  C   UNL     1      45.112   4.745   9.190  0.00  0.00    +0.000 A 
BRANCH  20  23
ATOM     23  N   UNL     1      46.254   1.415   8.019  0.00  0.00    +0.000 N 
ATOM     24  H   UNL     1      47.042   1.110   8.588  0.00  0.00    +0.000 HD
BRANCH  23  25
ATOM     25  C   UNL     1      46.646   1.680   6.627  0.00  0.00    +0.000 C 
BRANCH  25  26
ATOM     26  C   UNL     1      48.135   2.052   6.578  0.00  0.00    +0.000 C 
BRANCH  26  27
ATOM     27  O   UNL     1      48.536   2.359   5.243  0.00  0.00    +0.000 OA
ATOM     28  H   UNL     1      48.662   1.498   4.800  0.00  0.00    +0.000 HD
ENDBRANCH  26  27
ENDBRANCH  25  26
ENDBRANCH  23  25
ENDBRANCH  20  23
ENDBRANCH  16  17
ENDBRANCH   3  16
TORSDOF 7
ENDMDL
MODEL 8
REMARK VINA RESULT:    -6.380      5.478      9.089
REMARK INTER + INTRA:          -9.365
REMARK INTER:                  -8.672
REMARK INTRA:                  -0.693
REMARK UNBOUND:                -0.561
REMARK  Name = 
REMARK  8 active torsions:
REMARK  status: ('A' for Active; 'I' for Inactive)
REMARK    1  A    between atoms: C_1  and  N_2
REMARK    2  A    between atoms: C_4  and  C_5
REMARK    3  A    between atoms: N_7  and  C_8
REMARK    4  A    between atoms: C_8  and  C_9
REMARK    5  A    between atoms: C_12  and  N_13
REMARK    6  A    between atoms: N_13  and  C_14
REMARK    7  A    between atoms: C_14  and  C_15
REMARK    8  A    between atoms: C_15  and  O_16
REMARK                            x       y       z     vdW  Elec       q    Type
REMARK                         _______ _______ _______ _____ _____    ______ ____
ROOT
ATOM      1  C   UNL     1      46.946   4.200  14.494  0.00  0.00    +0.000 C 
ATOM      2  O   UNL     1      47.288   3.128  14.012  0.00  0.00    +0.000 OA
ATOM      3  N   UNL     1      46.895   4.401  15.860  0.00  0.00    +0.000 N 
ATOM      4  H   UNL     1      46.686   5.316  16.233  0.00  0.00    +0.000 HD
ENDROOT
BRANCH   1   8
ATOM      5  C   UNL     1      46.990   8.749  12.442  0.00  0.00    +0.000 C 
ATOM      6  N   UNL     1      46.591   7.399  12.774  0.00  0.00    +0.000 N 
ATOM      7  C   UNL     1      47.279   6.536  13.586  0.00  0.00    +0.000 A 
ATOM      8  C   UNL     1      46.560   5.346  13.677  0.00  0.00    +0.000 A 
ATOM      9  C   UNL     1      45.378   5.521  12.864  0.00  0.00    +0.000 A 
ATOM     10  C   UNL     1      44.249   4.809  12.463  0.00  0.00    +0.000 A 
ATOM     11 CL   UNL     1      44.004   3.198  12.928  0.00  0.00    +0.000 Cl
ATOM     12  N   UNL     1      43.326   5.326  11.631  0.00  0.00    +0.000 NA
ATOM     13  C   UNL     1      43.529   6.578  11.205  0.00  0.00    +0.000 A 
ATOM     14  N   UNL     1      44.558   7.385  11.499  0.00  0.00    +0.000 NA
ATOM     15  C   UNL     1      45.447   6.804  12.324  0.00  0.00    +0.000 A 
ENDBRANCH   1   8
BRANCH   3  16
ATOM     16  C   UNL     1      47.331   3.356  16.757  0.00  0.00    +0.000 C 
BRANCH  16  17
ATOM     17  C   UNL     1      48.804   3.437  17.060  0.00  0.00    +0.000 A 
ATOM     18  C   UNL     1      49.596   2.283  17.068  0.00  0.00    +0.000 A 
ATOM     19  C   UNL     1      50.966   2.351  17.362  0.00  0.00    +0.000 A 
ATOM     20  C   UNL     1      51.589   3.572  17.645  0.00  0.00    +0.000 A 
ATOM     21  C   UNL     1      50.780   4.716  17.660  0.00  0.00    +0.000 A 
ATOM     22  C   UNL     1      49.412   4.658  17.364  0.00  0.00    +0.000 A 
BRANCH  20  23
ATOM     23  N   UNL     1      52.925   3.691  18.061  0.00  0.00    +0.000 N 
ATOM     24  H   UNL     1      53.556   3.552  17.273  0.00  0.00    +0.000 HD
BRANCH  23  25
ATOM     25  C   UNL     1      53.367   2.963  19.259  0.00  0.00    +0.000 C 
BRANCH  25  26
ATOM     26  C   UNL     1      53.421   3.928  20.452  0.00  0.00    +0.000 C 
BRANCH  26  27
ATOM     27  O   UNL     1      52.111   4.182  20.958  0.00  0.00    +0.000 OA
ATOM     28  H   UNL     1      51.763   4.927  20.430  0.00  0.00    +0.000 HD
ENDBRANCH  26  27
ENDBRANCH  25  26
ENDBRANCH  23  25
ENDBRANCH  20  23
ENDBRANCH  16  17
ENDBRANCH   3  16
TORSDOF 7
ENDMDL
MODEL 9
REMARK VINA RESULT:    -6.047      5.232      8.520
REMARK INTER + INTRA:          -8.906
REMARK INTER:                  -8.087
REMARK INTRA:                  -0.820
REMARK UNBOUND:                -0.561
REMARK  Name = 
REMARK  8 active torsions:
REMARK  status: ('A' for Active; 'I' for Inactive)
REMARK    1  A    between atoms: C_1  and  N_2
REMARK    2  A    between atoms: C_4  and  C_5
REMARK    3  A    between atoms: N_7  and  C_8
REMARK    4  A    between atoms: C_8  and  C_9
REMARK    5  A    between atoms: C_12  and  N_13
REMARK    6  A    between atoms: N_13  and  C_14
REMARK    7  A    between atoms: C_14  and  C_15
REMARK    8  A    between atoms: C_15  and  O_16
REMARK                            x       y       z     vdW  Elec       q    Type
REMARK                         _______ _______ _______ _____ _____    ______ ____
ROOT
ATOM      1  C   UNL     1      49.594   5.864  16.977  0.00  0.00    +0.000 C 
ATOM      2  O   UNL     1      48.671   6.167  17.722  0.00  0.00    +0.000 OA
ATOM      3  N   UNL     1      49.613   6.247  15.649  0.00  0.00    +0.000 N 
ATOM      4  H   UNL     1      50.421   6.053  15.075  0.00  0.00    +0.000 HD
ENDROOT
BRANCH   1   8
ATOM      5  C   UNL     1      54.158   4.707  18.633  0.00  0.00    +0.000 C 
ATOM      6  N   UNL     1      52.800   4.576  18.153  0.00  0.00    +0.000 N 
ATOM      7  C   UNL     1      51.942   5.609  17.881  0.00  0.00    +0.000 A 
ATOM      8  C   UNL     1      50.740   5.076  17.418  0.00  0.00    +0.000 A 
ATOM      9  C   UNL     1      50.903   3.640  17.423  0.00  0.00    +0.000 A 
ATOM     10  C   UNL     1      50.177   2.487  17.128  0.00  0.00    +0.000 A 
ATOM     11 CL   UNL     1      48.559   2.559  16.629  0.00  0.00    +0.000 Cl
ATOM     12  N   UNL     1      50.686   1.252  17.289  0.00  0.00    +0.000 NA
ATOM     13  C   UNL     1      51.944   1.169  17.737  0.00  0.00    +0.000 A 
ATOM     14  N   UNL     1      52.764   2.178  18.062  0.00  0.00    +0.000 NA
ATOM     15  C   UNL     1      52.190   3.382  17.889  0.00  0.00    +0.000 A 
ENDBRANCH   1   8
BRANCH   3  16
ATOM     16  C   UNL     1      48.565   7.094  15.130  0.00  0.00    +0.000 C 
BRANCH  16  17
ATOM     17  C   UNL     1      47.621   6.350  14.222  0.00  0.00    +0.000 A 
ATOM     18  C   UNL     1      47.237   5.036  14.515  0.00  0.00    +0.000 A 
ATOM     19  C   UNL     1      46.368   4.333  13.666  0.00  0.00    +0.000 A 
ATOM     20  C   UNL     1      45.848   4.922  12.508  0.00  0.00    +0.000 A 
ATOM     21  C   UNL     1      46.262   6.228  12.212  0.00  0.00    +0.000 A 
ATOM     22  C   UNL     1      47.126   6.939  13.056  0.00  0.00    +0.000 A 
BRANCH  20  23
ATOM     23  N   UNL     1      45.073   4.235  11.561  0.00  0.00    +0.000 N 
ATOM     24  H   UNL     1      45.101   4.716  10.663  0.00  0.00    +0.000 HD
BRANCH  23  25
ATOM     25  C   UNL     1      43.712   3.815  11.922  0.00  0.00    +0.000 C 
BRANCH  25  26
ATOM     26  C   UNL     1      42.811   5.052  12.047  0.00  0.00    +0.000 C 
BRANCH  26  27
ATOM     27  O   UNL     1      42.560   5.360  13.418  0.00  0.00    +0.000 OA
ATOM     28  H   UNL     1      42.965   6.235  13.571  0.00  0.00    +0.000 HD
ENDBRANCH  26  27
ENDBRANCH  25  26
ENDBRANCH  23  25
ENDBRANCH  20  23
ENDBRANCH  16  17
ENDBRANCH   3  16
TORSDOF 7
ENDMDL
