MODEL 1
REMARK VINA RESULT:    -7.081      0.000      0.000
REMARK INTER + INTRA:         -10.077
REMARK INTER:                  -9.358
REMARK INTRA:                  -0.719
REMARK UNBOUND:                -0.719
REMARK  Name = 
REMARK  6 active torsions:
REMARK  status: ('A' for Active; 'I' for Inactive)
REMARK    1  A    between atoms: N_1  and  C_2
REMARK    2  A    between atoms: C_2  and  C_3
REMARK    3  A    between atoms: C_7  and  C_8
REMARK    4  A    between atoms: C_8  and  C_9
REMARK    5  A    between atoms: C_9  and  C_10
REMARK    6  A    between atoms: C_10  and  C_11
REMARK                            x       y       z     vdW  Elec       q    Type
REMARK                         _______ _______ _______ _____ _____    ______ ____
ROOT
ATOM      1  C   UNL     1      46.464   5.169  13.389  0.00  0.00    +0.000 A 
ATOM      2  C   UNL     1      47.095   6.272  12.801  0.00  0.00    +0.000 A 
ATOM      3  C   UNL     1      46.620   6.807  11.604  0.00  0.00    +0.000 A 
ATOM      4  C   UNL     1      45.518   6.235  10.967  0.00  0.00    +0.000 A 
ATOM      5  C   UNL     1      44.878   5.121  11.527  0.00  0.00    +0.000 A 
ATOM      6  C   UNL     1      45.349   4.608  12.744  0.00  0.00    +0.000 A 
ENDROOT
BRANCH   1   7
ATOM      7  C   UNL     1      47.001   4.555  14.655  0.00  0.00    +0.000 C 
BRANCH   7   8
ATOM      8  N   UNL     1      47.439   3.178  14.450  0.00  0.00    +0.000 NA
ATOM      9  H   UNL     1      46.779   2.711  13.833  0.00  0.00    +0.000 HD
ATOM     10  H   UNL     1      47.396   2.690  15.343  0.00  0.00    +0.000 HD
ENDBRANCH   7   8
ENDBRANCH   1   7
BRANCH   5  11
ATOM     11  C   UNL     1      43.757   4.419  10.794  0.00  0.00    +0.000 C 
BRANCH  11  12
ATOM     12  C   UNL     1      44.227   3.993   9.396  0.00  0.00    +0.000 C 
BRANCH  12  13
ATOM     13  C   UNL     1      44.851   2.595   9.383  0.00  0.00    +0.000 C 
BRANCH  13  14
ATOM     14  C   UNL     1      45.762   2.403   8.190  0.00  0.00    +0.000 A 
ATOM     15  C   UNL     1      45.922   3.417   7.237  0.00  0.00    +0.000 A 
ATOM     16  C   UNL     1      46.759   3.229   6.132  0.00  0.00    +0.000 A 
ATOM     17  C   UNL     1      47.438   2.023   5.967  0.00  0.00    +0.000 A 
ATOM     18  C   UNL     1      47.278   1.003   6.903  0.00  0.00    +0.000 A 
ATOM     19  C   UNL     1      46.443   1.191   8.007  0.00  0.00    +0.000 A 
ENDBRANCH  13  14
ENDBRANCH  12  13
ENDBRANCH  11  12
ENDBRANCH   5  11
TORSDOF 6
ENDMDL
MODEL 2
REMARK VINA RESULT:    -6.728      2.364      6.027
REMARK INTER + INTRA:          -9.610
REMARK INTER:                  -8.725
REMARK INTRA:                  -0.885
REMARK UNBOUND:                -0.719
REMARK  Name = 
REMARK  6 active torsions:
REMARK  status: ('A' for Active; 'I' for Inactive)
REMARK    1  A    between atoms: N_1  and  C_2
REMARK    2  A    between atoms: C_2  and  C_3
REMARK    3  A    between atoms: C_7  and  C_8
REMARK    4  A    between atoms: C_8  and  C_9
REMARK    5  A    between atoms: C_9  and  C_10
REMARK    6  A    between atoms: C_10  and  C_11
REMARK                            x       y       z     vdW  Elec       q    Type
REMARK                         _______ _______ _______ _____ _____    ______ ____
ROOT
ATOM      1  C   UNL     1      46.764   2.061   7.376  0.00  0.00    +0.000 A 
ATOM      2  C   UNL     1      46.953   3.389   6.973  0.00  0.00    +0.000 A 
ATOM      3  C   UNL     1      46.291   4.429   7.626  0.00  0.00    +0.000 A 
ATOM      4  C   UNL     1      45.416   4.155   8.677  0.00  0.00    +0.000 A 
ATOM      5  C   UNL     1      45.199   2.833   9.090  0.00  0.00    +0.000 A 
ATOM      6  C   UNL     1      45.890   1.798   8.443  0.00  0.00    +0.000 A 
ENDROOT
BRANCH   1   7
ATOM      7  C   UNL     1      47.436   0.929   6.644  0.00  0.00    +0.000 C 
BRANCH   7   8
ATOM      8  N   UNL     1      48.275   1.408   5.551  0.00  0.00    +0.000 NA
ATOM      9  H   UNL     1      47.712   1.988   4.934  0.00  0.00    +0.000 HD
ATOM     10  H   UNL     1      48.576   0.605   4.999  0.00  0.00    +0.000 HD
ENDBRANCH   7   8
ENDBRANCH   1   7
BRANCH   5  11
ATOM     11  C   UNL     1      44.170   2.508  10.149  0.00  0.00    +0.000 C 
BRANCH  11  12
ATOM     12  C   UNL     1      43.693   3.797  10.833  0.00  0.00    +0.000 C 
BRANCH  12  13
ATOM     13  C   UNL     1      44.151   3.897  12.291  0.00  0.00    +0.000 C 
BRANCH  13  14
ATOM     14  C   UNL     1      45.353   4.804  12.436  0.00  0.00    +0.000 A 
ATOM     15  C   UNL     1      46.291   4.597  13.456  0.00  0.00    +0.000 A 
ATOM     16  C   UNL     1      47.396   5.446  13.589  0.00  0.00    +0.000 A 
ATOM     17  C   UNL     1      47.568   6.511  12.708  0.00  0.00    +0.000 A 
ATOM     18  C   UNL     1      46.636   6.734  11.696  0.00  0.00    +0.000 A 
ATOM     19  C   UNL     1      45.533   5.886  11.563  0.00  0.00    +0.000 A 
ENDBRANCH  13  14
ENDBRANCH  12  13
ENDBRANCH  11  12
ENDBRANCH   5  11
TORSDOF 6
ENDMDL
MODEL 3
REMARK VINA RESULT:    -6.626      1.618      2.447
REMARK INTER + INTRA:          -9.475
REMARK INTER:                  -8.807
REMARK INTRA:                  -0.668
REMARK UNBOUND:                -0.719
REMARK  Name = 
REMARK  6 active torsions:
REMARK  status: ('A' for Active; 'I' for Inactive)
REMARK    1  A    between atoms: N_1  and  C_2
REMARK    2  A    between atoms: C_2  and  C_3
REMARK    3  A    between atoms: C_7  and  C_8
REMARK    4  A    between atoms: C_8  and  C_9
REMARK    5  A    between atoms: C_9  and  C_10
REMARK    6  A    between atoms: C_10  and  C_11
REMARK                            x       y       z     vdW  Elec       q    Type
REMARK                         _______ _______ _______ _____ _____    ______ ____
ROOT
ATOM      1  C   UNL     1      45.873   6.815  12.647  0.00  0.00    +0.000 A 
ATOM      2  C   UNL     1      46.634   5.985  13.481  0.00  0.00    +0.000 A 
ATOM      3  C   UNL     1      46.458   4.602  13.457  0.00  0.00    +0.000 A 
ATOM      4  C   UNL     1      45.505   4.029  12.614  0.00  0.00    +0.000 A 
ATOM      5  C   UNL     1      44.722   4.838  11.780  0.00  0.00    +0.000 A 
ATOM      6  C   UNL     1      44.926   6.226  11.793  0.00  0.00    +0.000 A 
ENDROOT
BRANCH   1   7
ATOM      7  C   UNL     1      46.022   8.312  12.703  0.00  0.00    +0.000 C 
BRANCH   7   8
ATOM      8  N   UNL     1      46.642   8.752  13.948  0.00  0.00    +0.000 NA
ATOM      9  H   UNL     1      47.324   8.056  14.240  0.00  0.00    +0.000 HD
ATOM     10  H   UNL     1      45.926   8.777  14.674  0.00  0.00    +0.000 HD
ENDBRANCH   7   8
ENDBRANCH   1   7
BRANCH   5  11
ATOM     11  C   UNL     1      43.608   4.247  10.945  0.00  0.00    +0.000 C 
BRANCH  11  12
ATOM     12  C   UNL     1      44.176   3.208   9.968  0.00  0.00    +0.000 C 
BRANCH  12  13
ATOM     13  C   UNL     1      44.583   3.821   8.625  0.00  0.00    +0.000 C 
BRANCH  13  14
ATOM     14  C   UNL     1      45.637   2.987   7.929  0.00  0.00    +0.000 A 
ATOM     15  C   UNL     1      45.919   1.682   8.356  0.00  0.00    +0.000 A 
ATOM     16  C   UNL     1      46.901   0.921   7.712  0.00  0.00    +0.000 A 
ATOM     17  C   UNL     1      47.613   1.460   6.643  0.00  0.00    +0.000 A 
ATOM     18  C   UNL     1      47.349   2.760   6.217  0.00  0.00    +0.000 A 
ATOM     19  C   UNL     1      46.368   3.520   6.858  0.00  0.00    +0.000 A 
ENDBRANCH  13  14
ENDBRANCH  12  13
ENDBRANCH  11  12
ENDBRANCH   5  11
TORSDOF 6
ENDMDL
MODEL 4
REMARK VINA RESULT:    -6.424      1.972      2.578
REMARK INTER + INTRA:          -9.209
REMARK INTER:                  -8.812
REMARK INTRA:                  -0.397
REMARK UNBOUND:                -0.719
REMARK  Name = 
REMARK  6 active torsions:
REMARK  status: ('A' for Active; 'I' for Inactive)
REMARK    1  A    between atoms: N_1  and  C_2
REMARK    2  A    between atoms: C_2  and  C_3
REMARK    3  A    between atoms: C_7  and  C_8
REMARK    4  A    between atoms: C_8  and  C_9
REMARK    5  A    between atoms: C_9  and  C_10
REMARK    6  A    between atoms: C_10  and  C_11
REMARK                            x       y       z     vdW  Elec       q    Type
REMARK                         _______ _______ _______ _____ _____    ______ ____
ROOT
ATOM      1  C   UNL     1      45.008   6.364  11.884  0.00  0.00    +0.000 A 
ATOM      2  C   UNL     1      45.955   5.998  12.849  0.00  0.00    +0.000 A 
ATOM      3  C   UNL     1      46.187   4.654  13.141  0.00  0.00    +0.000 A 
ATOM      4  C   UNL     1      45.461   3.657  12.488  0.00  0.00    +0.000 A 
ATOM      5  C   UNL     1      44.498   3.998  11.529  0.00  0.00    +0.000 A 
ATOM      6  C   UNL     1      44.292   5.352  11.224  0.00  0.00    +0.000 A 
ENDROOT
BRANCH   1   7
ATOM      7  C   UNL     1      44.717   7.814  11.599  0.00  0.00    +0.000 C 
BRANCH   7   8
ATOM      8  N   UNL     1      43.387   8.001  11.028  0.00  0.00    +0.000 NA
ATOM      9  H   UNL     1      42.717   8.113  11.784  0.00  0.00    +0.000 HD
ATOM     10  H   UNL     1      43.126   7.148  10.534  0.00  0.00    +0.000 HD
ENDBRANCH   7   8
ENDBRANCH   1   7
BRANCH   5  11
ATOM     11  C   UNL     1      43.624   2.940  10.895  0.00  0.00    +0.000 C 
BRANCH  11  12
ATOM     12  C   UNL     1      44.327   2.339   9.670  0.00  0.00    +0.000 C 
BRANCH  12  13
ATOM     13  C   UNL     1      45.142   3.374   8.889  0.00  0.00    +0.000 C 
BRANCH  13  14
ATOM     14  C   UNL     1      45.981   2.724   7.811  0.00  0.00    +0.000 A 
ATOM     15  C   UNL     1      46.254   3.394   6.610  0.00  0.00    +0.000 A 
ATOM     16  C   UNL     1      47.024   2.782   5.615  0.00  0.00    +0.000 A 
ATOM     17  C   UNL     1      47.521   1.495   5.808  0.00  0.00    +0.000 A 
ATOM     18  C   UNL     1      47.246   0.815   6.993  0.00  0.00    +0.000 A 
ATOM     19  C   UNL     1      46.479   1.425   7.988  0.00  0.00    +0.000 A 
ENDBRANCH  13  14
ENDBRANCH  12  13
ENDBRANCH  11  12
ENDBRANCH   5  11
TORSDOF 6
ENDMDL
MODEL 5
REMARK VINA RESULT:    -6.316      2.420      6.350
REMARK INTER + INTRA:          -9.065
REMARK INTER:                  -8.384
REMARK INTRA:                  -0.681
REMARK UNBOUND:                -0.719
REMARK  Name = 
REMARK  6 active torsions:
REMARK  status: ('A' for Active; 'I' for Inactive)
REMARK    1  A    between atoms: N_1  and  C_2
REMARK    2  A    between atoms: C_2  and  C_3
REMARK    3  A    between atoms: C_7  and  C_8
REMARK    4  A    between atoms: C_8  and  C_9
REMARK    5  A    between atoms: C_9  and  C_10
REMARK    6  A    between atoms: C_10  and  C_11
REMARK                            x       y       z     vdW  Elec       q    Type
REMARK                         _______ _______ _______ _____ _____    ______ ____
ROOT
ATOM      1  C   UNL     1      46.580   2.482   6.574  0.00  0.00    +0.000 A 
ATOM      2  C   UNL     1      46.731   1.259   7.239  0.00  0.00    +0.000 A 
ATOM      3  C   UNL     1      46.066   1.018   8.442  0.00  0.00    +0.000 A 
ATOM      4  C   UNL     1      45.256   2.004   9.006  0.00  0.00    +0.000 A 
ATOM      5  C   UNL     1      45.099   3.241   8.368  0.00  0.00    +0.000 A 
ATOM      6  C   UNL     1      45.752   3.463   7.146  0.00  0.00    +0.000 A 
ENDROOT
BRANCH   1   7
ATOM      7  C   UNL     1      47.333   2.769   5.302  0.00  0.00    +0.000 C 
BRANCH   7   8
ATOM      8  N   UNL     1      48.377   1.780   5.053  0.00  0.00    +0.000 NA
ATOM      9  H   UNL     1      48.147   0.925   5.553  0.00  0.00    +0.000 HD
ATOM     10  H   UNL     1      49.249   2.124   5.454  0.00  0.00    +0.000 HD
ENDBRANCH   7   8
ENDBRANCH   1   7
BRANCH   5  11
ATOM     11  C   UNL     1      44.319   4.359   9.020  0.00  0.00    +0.000 C 
BRANCH  11  12
ATOM     12  C   UNL     1      43.861   3.934  10.423  0.00  0.00    +0.000 C 
BRANCH  12  13
ATOM     13  C   UNL     1      43.766   5.113  11.395  0.00  0.00    +0.000 C 
BRANCH  13  14
ATOM     14  C   UNL     1      45.118   5.464  11.979  0.00  0.00    +0.000 A 
ATOM     15  C   UNL     1      45.903   6.479  11.416  0.00  0.00    +0.000 A 
ATOM     16  C   UNL     1      47.155   6.791  11.957  0.00  0.00    +0.000 A 
ATOM     17  C   UNL     1      47.635   6.087  13.058  0.00  0.00    +0.000 A 
ATOM     18  C   UNL     1      46.869   5.068  13.619  0.00  0.00    +0.000 A 
ATOM     19  C   UNL     1      45.618   4.757  13.081  0.00  0.00    +0.000 A 
ENDBRANCH  13  14
ENDBRANCH  12  13
ENDBRANCH  11  12
ENDBRANCH   5  11
TORSDOF 6
ENDMDL
MODEL 6
REMARK VINA RESULT:    -5.907      1.316      2.161
REMARK INTER + INTRA:          -8.526
REMARK INTER:                  -7.863
REMARK INTRA:                  -0.662
REMARK UNBOUND:                -0.719
REMARK  Name = 
REMARK  6 active torsions:
REMARK  status: ('A' for Active; 'I' for Inactive)
REMARK    1  A    between atoms: N_1  and  C_2
REMARK    2  A    between atoms: C_2  and  C_3
REMARK    3  A    between atoms: C_7  and  C_8
REMARK    4  A    between atoms: C_8  and  C_9
REMARK    5  A    between atoms: C_9  and  C_10
REMARK    6  A    between atoms: C_10  and  C_11
REMARK                            x       y       z     vdW  Elec       q    Type
REMARK                         _______ _______ _______ _____ _____    ______ ____
ROOT
ATOM      1  C   UNL     1      47.752   5.693  14.747  0.00  0.00    +0.000 A 
ATOM      2  C   UNL     1      48.245   6.777  14.010  0.00  0.00    +0.000 A 
ATOM      3  C   UNL     1      47.760   7.044  12.730  0.00  0.00    +0.000 A 
ATOM      4  C   UNL     1      46.789   6.220  12.160  0.00  0.00    +0.000 A 
ATOM      5  C   UNL     1      46.289   5.122  12.871  0.00  0.00    +0.000 A 
ATOM      6  C   UNL     1      46.765   4.878  14.168  0.00  0.00    +0.000 A 
ENDROOT
BRANCH   1   7
ATOM      7  C   UNL     1      48.306   5.368  16.109  0.00  0.00    +0.000 C 
BRANCH   7   8
ATOM      8  N   UNL     1      47.248   5.135  17.086  0.00  0.00    +0.000 NA
ATOM      9  H   UNL     1      46.799   6.022  17.304  0.00  0.00    +0.000 HD
ATOM     10  H   UNL     1      47.675   4.807  17.952  0.00  0.00    +0.000 HD
ENDBRANCH   7   8
ENDBRANCH   1   7
BRANCH   5  11
ATOM     11  C   UNL     1      45.322   4.154  12.228  0.00  0.00    +0.000 C 
BRANCH  11  12
ATOM     12  C   UNL     1      44.676   4.797  10.993  0.00  0.00    +0.000 C 
BRANCH  12  13
ATOM     13  C   UNL     1      44.062   3.764  10.043  0.00  0.00    +0.000 C 
BRANCH  13  14
ATOM     14  C   UNL     1      45.069   3.276   9.025  0.00  0.00    +0.000 A 
ATOM     15  C   UNL     1      45.383   1.914   8.920  0.00  0.00    +0.000 A 
ATOM     16  C   UNL     1      46.322   1.472   7.982  0.00  0.00    +0.000 A 
ATOM     17  C   UNL     1      46.960   2.386   7.147  0.00  0.00    +0.000 A 
ATOM     18  C   UNL     1      46.664   3.744   7.250  0.00  0.00    +0.000 A 
ATOM     19  C   UNL     1      45.726   4.186   8.185  0.00  0.00    +0.000 A 
ENDBRANCH  13  14
ENDBRANCH  12  13
ENDBRANCH  11  12
ENDBRANCH   5  11
TORSDOF 6
ENDMDL
MODEL 7
REMARK VINA RESULT:    -5.647      2.476      6.353
REMARK INTER + INTRA:          -8.182
REMARK INTER:                  -7.379
REMARK INTRA:                  -0.802
REMARK UNBOUND:                -0.719
REMARK  Name = 
REMARK  6 active torsions:
REMARK  status: ('A' for Active; 'I' for Inactive)
REMARK    1  A    between atoms: N_1  and  C_2
REMARK    2  A    between atoms: C_2  and  C_3
REMARK    3  A    between atoms: C_7  and  C_8
REMARK    4  A    between atoms: C_8  and  C_9
REMARK    5  A    between atoms: C_9  and  C_10
REMARK    6  A    between atoms: C_10  and  C_11
REMARK                            x       y       z     vdW  Elec       q    Type
REMARK                         _______ _______ _______ _____ _____    ______ ____
ROOT
ATOM      1  C   UNL     1      45.387   3.341   8.565  0.00  0.00    +0.000 A 
ATOM      2  C   UNL     1      44.741   2.278   9.209  0.00  0.00    +0.000 A 
ATOM      3  C   UNL     1      44.051   2.486  10.403  0.00  0.00    +0.000 A 
ATOM      4  C   UNL     1      44.015   3.755  10.982  0.00  0.00    +0.000 A 
ATOM      5  C   UNL     1      44.665   4.831  10.366  0.00  0.00    +0.000 A 
ATOM      6  C   UNL     1      45.334   4.616   9.151  0.00  0.00    +0.000 A 
ENDROOT
BRANCH   1   7
ATOM      7  C   UNL     1      46.175   3.115   7.302  0.00  0.00    +0.000 C 
BRANCH   7   8
ATOM      8  N   UNL     1      46.911   4.308   6.898  0.00  0.00    +0.000 NA
ATOM      9  H   UNL     1      47.063   4.277   5.893  0.00  0.00    +0.000 HD
ATOM     10  H   UNL     1      47.834   4.280   7.331  0.00  0.00    +0.000 HD
ENDBRANCH   7   8
ENDBRANCH   1   7
BRANCH   5  11
ATOM     11  C   UNL     1      44.734   6.185  11.035  0.00  0.00    +0.000 C 
BRANCH  11  12
ATOM     12  C   UNL     1      44.758   6.019  12.561  0.00  0.00    +0.000 C 
BRANCH  12  13
ATOM     13  C   UNL     1      46.178   6.019  13.133  0.00  0.00    +0.000 C 
BRANCH  13  14
ATOM     14  C   UNL     1      46.946   7.254  12.714  0.00  0.00    +0.000 A 
ATOM     15  C   UNL     1      46.451   8.536  12.988  0.00  0.00    +0.000 A 
ATOM     16  C   UNL     1      47.163   9.673  12.591  0.00  0.00    +0.000 A 
ATOM     17  C   UNL     1      48.371   9.538  11.910  0.00  0.00    +0.000 A 
ATOM     18  C   UNL     1      48.868   8.269  11.621  0.00  0.00    +0.000 A 
ATOM     19  C   UNL     1      48.158   7.133  12.020  0.00  0.00    +0.000 A 
ENDBRANCH  13  14
ENDBRANCH  12  13
ENDBRANCH  11  12
ENDBRANCH   5  11
TORSDOF 6
ENDMDL
MODEL 8
REMARK VINA RESULT:    -5.523      2.306      6.847
REMARK INTER + INTRA:          -8.018
REMARK INTER:                  -7.331
REMARK INTRA:                  -0.687
REMARK UNBOUND:                -0.719
REMARK  Name = 
REMARK  6 active torsions:
REMARK  status: ('A' for Active; 'I' for Inactive)
REMARK    1  A    between atoms: N_1  and  C_2
REMARK    2  A    between atoms: C_2  and  C_3
REMARK    3  A    between atoms: C_7  and  C_8
REMARK    4  A    between atoms: C_8  and  C_9
REMARK    5  A    between atoms: C_9  and  C_10
REMARK    6  A    between atoms: C_10  and  C_11
REMARK                            x       y       z     vdW  Elec       q    Type
REMARK                         _______ _______ _______ _____ _____    ______ ____
ROOT
ATOM      1  C   UNL     1      45.209   3.794   8.823  0.00  0.00    +0.000 A 
ATOM      2  C   UNL     1      44.494   2.881   9.608  0.00  0.00    +0.000 A 
ATOM      3  C   UNL     1      44.045   3.237  10.880  0.00  0.00    +0.000 A 
ATOM      4  C   UNL     1      44.322   4.505  11.393  0.00  0.00    +0.000 A 
ATOM      5  C   UNL     1      45.047   5.432  10.632  0.00  0.00    +0.000 A 
ATOM      6  C   UNL     1      45.471   5.071   9.344  0.00  0.00    +0.000 A 
ENDROOT
BRANCH   1   7
ATOM      7  C   UNL     1      45.739   3.399   7.470  0.00  0.00    +0.000 C 
BRANCH   7   8
ATOM      8  N   UNL     1      46.922   4.170   7.102  0.00  0.00    +0.000 NA
ATOM      9  H   UNL     1      47.142   3.990   6.126  0.00  0.00    +0.000 HD
ATOM     10  H   UNL     1      47.713   3.824   7.645  0.00  0.00    +0.000 HD
ENDBRANCH   7   8
ENDBRANCH   1   7
BRANCH   5  11
ATOM     11  C   UNL     1      45.455   6.766  11.215  0.00  0.00    +0.000 C 
BRANCH  11  12
ATOM     12  C   UNL     1      45.886   6.594  12.678  0.00  0.00    +0.000 C 
BRANCH  12  13
ATOM     13  C   UNL     1      47.298   6.015  12.813  0.00  0.00    +0.000 C 
BRANCH  13  14
ATOM     14  C   UNL     1      47.609   5.633  14.243  0.00  0.00    +0.000 A 
ATOM     15  C   UNL     1      47.073   4.468  14.809  0.00  0.00    +0.000 A 
ATOM     16  C   UNL     1      47.359   4.127  16.136  0.00  0.00    +0.000 A 
ATOM     17  C   UNL     1      48.175   4.950  16.909  0.00  0.00    +0.000 A 
ATOM     18  C   UNL     1      48.703   6.117  16.361  0.00  0.00    +0.000 A 
ATOM     19  C   UNL     1      48.420   6.458  15.036  0.00  0.00    +0.000 A 
ENDBRANCH  13  14
ENDBRANCH  12  13
ENDBRANCH  11  12
ENDBRANCH   5  11
TORSDOF 6
ENDMDL
MODEL 9
REMARK VINA RESULT:    -5.507      1.965      2.932
REMARK INTER + INTRA:          -7.997
REMARK INTER:                  -7.133
REMARK INTRA:                  -0.864
REMARK UNBOUND:                -0.719
REMARK  Name = 
REMARK  6 active torsions:
REMARK  status: ('A' for Active; 'I' for Inactive)
REMARK    1  A    between atoms: N_1  and  C_2
REMARK    2  A    between atoms: C_2  and  C_3
REMARK    3  A    between atoms: C_7  and  C_8
REMARK    4  A    between atoms: C_8  and  C_9
REMARK    5  A    between atoms: C_9  and  C_10
REMARK    6  A    between atoms: C_10  and  C_11
REMARK                            x       y       z     vdW  Elec       q    Type
REMARK                         _______ _______ _______ _____ _____    ______ ____
ROOT
ATOM      1  C   UNL     1      48.771   6.972  13.934  0.00  0.00    +0.000 A 
ATOM      2  C   UNL     1      49.133   7.622  12.748  0.00  0.00    +0.000 A 
ATOM      3  C   UNL     1      48.326   7.531  11.614  0.00  0.00    +0.000 A 
ATOM      4  C   UNL     1      47.155   6.773  11.644  0.00  0.00    +0.000 A 
ATOM      5  C   UNL     1      46.778   6.102  12.815  0.00  0.00    +0.000 A 
ATOM      6  C   UNL     1      47.584   6.222  13.957  0.00  0.00    +0.000 A 
ENDROOT
BRANCH   1   7
ATOM      7  C   UNL     1      49.663   7.024  15.147  0.00  0.00    +0.000 C 
BRANCH   7   8
ATOM      8  N   UNL     1      51.022   7.431  14.807  0.00  0.00    +0.000 NA
ATOM      9  H   UNL     1      51.134   7.393  13.797  0.00  0.00    +0.000 HD
ATOM     10  H   UNL     1      51.670   6.747  15.196  0.00  0.00    +0.000 HD
ENDBRANCH   7   8
ENDBRANCH   1   7
BRANCH   5  11
ATOM     11  C   UNL     1      45.575   5.186  12.832  0.00  0.00    +0.000 C 
BRANCH  11  12
ATOM     12  C   UNL     1      44.531   5.666  11.815  0.00  0.00    +0.000 C 
BRANCH  12  13
ATOM     13  C   UNL     1      43.801   4.509  11.127  0.00  0.00    +0.000 C 
BRANCH  13  14
ATOM     14  C   UNL     1      44.598   3.961   9.963  0.00  0.00    +0.000 A 
ATOM     15  C   UNL     1      45.284   4.820   9.093  0.00  0.00    +0.000 A 
ATOM     16  C   UNL     1      46.012   4.306   8.015  0.00  0.00    +0.000 A 
ATOM     17  C   UNL     1      46.055   2.931   7.793  0.00  0.00    +0.000 A 
ATOM     18  C   UNL     1      45.368   2.068   8.644  0.00  0.00    +0.000 A 
ATOM     19  C   UNL     1      44.642   2.581   9.722  0.00  0.00    +0.000 A 
ENDBRANCH  13  14
ENDBRANCH  12  13
ENDBRANCH  11  12
ENDBRANCH   5  11
TORSDOF 6
ENDMDL
