MODEL 1
REMARK VINA RESULT:    -8.293      0.000      0.000
REMARK INTER + INTRA:         -12.184
REMARK INTER:                 -11.202
REMARK INTRA:                  -0.982
REMARK UNBOUND:                -0.982
REMARK  Name = 
REMARK  7 active torsions:
REMARK  status: ('A' for Active; 'I' for Inactive)
REMARK    1  A    between atoms: C_1  and  O_2
REMARK    2  A    between atoms: O_2  and  C_3
REMARK    3  A    between atoms: C_5  and  C_6
REMARK    4  A    between atoms: C_6  and  C_7
REMARK    5  A    between atoms: C_7  and  N_8
REMARK    6  A    between atoms: C_12  and  C_13
REMARK    7  A    between atoms: C_19  and  C_20
REMARK                            x       y       z     vdW  Elec       q    Type
REMARK                         _______ _______ _______ _____ _____    ______ ____
ROOT
ATOM      1  C   UNL     1      43.715   5.434  11.997  0.00  0.00    +0.000 C 
ENDROOT
BRANCH   1   4
ATOM      2  C   UNL     1      46.974   4.546  13.732  0.00  0.00    +0.000 A 
ATOM      3  C   UNL     1      45.646   4.468  13.337  0.00  0.00    +0.000 A 
ATOM      4  C   UNL     1      45.157   5.430  12.450  0.00  0.00    +0.000 A 
ATOM      5  C   UNL     1      46.031   6.438  12.022  0.00  0.00    +0.000 A 
ATOM      6  C   UNL     1      47.349   6.459  12.483  0.00  0.00    +0.000 A 
ATOM      7  N   UNL     1      47.823   5.504  13.316  0.00  0.00    +0.000 NA
BRANCH   6   8
ATOM      8  C   UNL     1      48.308   7.531  12.152  0.00  0.00    +0.000 A 
ATOM      9  C   UNL     1      49.645   7.252  11.814  0.00  0.00    +0.000 A 
ATOM     10  C   UNL     1      50.530   8.271  11.453  0.00  0.00    +0.000 A 
ATOM     11  C   UNL     1      50.099   9.593  11.417  0.00  0.00    +0.000 A 
ATOM     12  C   UNL     1      48.782   9.899  11.745  0.00  0.00    +0.000 A 
ATOM     13  C   UNL     1      47.898   8.878  12.108  0.00  0.00    +0.000 A 
ENDBRANCH   6   8
BRANCH   2  15
ATOM     14  C   UNL     1      47.295   4.006  15.982  0.00  0.00    +0.000 C 
ATOM     15  O   UNL     1      47.422   3.588  14.623  0.00  0.00    +0.000 OA
ENDBRANCH   2  15
ENDBRANCH   1   4
BRANCH   1  16
ATOM     16  C   UNL     1      43.570   4.978  10.538  0.00  0.00    +0.000 C 
BRANCH  16  17
ATOM     17  N   UNL     1      43.940   3.563  10.391  0.00  0.00    +0.000 N 
ATOM     18  C   UNL     1      44.827   3.334   9.318  0.00  0.00    +0.000 A 
ATOM     19  C   UNL     1      45.264   2.032   9.026  0.00  0.00    +0.000 A 
ATOM     20  N   UNL     1      46.101   1.712   7.999  0.00  0.00    +0.000 NA
ATOM     21  C   UNL     1      46.514   2.781   7.265  0.00  0.00    +0.000 A 
ATOM     22  C   UNL     1      46.118   4.075   7.552  0.00  0.00    +0.000 A 
ATOM     23  N   UNL     1      45.278   4.370   8.578  0.00  0.00    +0.000 NA
ATOM     24  H   UNL     1      43.125   2.965  10.273  0.00  0.00    +0.000 HD
BRANCH  21  25
ATOM     25  C   UNL     1      47.411   2.537   6.104  0.00  0.00    +0.000 C 
ATOM     26  N   UNL     1      48.749   2.460   6.381  0.00  0.00    +0.000 N 
ATOM     27  O   UNL     1      46.985   2.399   4.965  0.00  0.00    +0.000 OA
ATOM     28  H   UNL     1      49.082   2.571   7.332  0.00  0.00    +0.000 HD
ATOM     29  H   UNL     1      49.399   2.279   5.629  0.00  0.00    +0.000 HD
ENDBRANCH  21  25
ENDBRANCH  16  17
ENDBRANCH   1  16
TORSDOF 6
ENDMDL
MODEL 2
REMARK VINA RESULT:    -8.079      2.797      7.298
REMARK INTER + INTRA:         -11.895
REMARK INTER:                 -10.981
REMARK INTRA:                  -0.913
REMARK UNBOUND:                -0.982
REMARK  Name = 
REMARK  7 active torsions:
REMARK  status: ('A' for Active; 'I' for Inactive)
REMARK    1  A    between atoms: C_1  and  O_2
REMARK    2  A    between atoms: O_2  and  C_3
REMARK    3  A    between atoms: C_5  and  C_6
REMARK    4  A    between atoms: C_6  and  C_7
REMARK    5  A    between atoms: C_7  and  N_8
REMARK    6  A    between atoms: C_12  and  C_13
REMARK    7  A    between atoms: C_19  and  C_20
REMARK                            x       y       z     vdW  Elec       q    Type
REMARK                         _______ _______ _______ _____ _____    ______ ____
ROOT
ATOM      1  C   UNL     1      45.903   6.794  10.493  0.00  0.00    +0.000 C 
ENDROOT
BRANCH   1   4
ATOM      2  C   UNL     1      44.111   3.449  10.376  0.00  0.00    +0.000 A 
ATOM      3  C   UNL     1      44.471   4.718  10.804  0.00  0.00    +0.000 A 
ATOM      4  C   UNL     1      45.433   5.420  10.074  0.00  0.00    +0.000 A 
ATOM      5  C   UNL     1      46.001   4.793   8.956  0.00  0.00    +0.000 A 
ATOM      6  C   UNL     1      45.599   3.504   8.602  0.00  0.00    +0.000 A 
ATOM      7  N   UNL     1      44.643   2.845   9.297  0.00  0.00    +0.000 NA
BRANCH   6   8
ATOM      8  C   UNL     1      46.207   2.739   7.495  0.00  0.00    +0.000 A 
ATOM      9  C   UNL     1      46.456   3.322   6.240  0.00  0.00    +0.000 A 
ATOM     10  C   UNL     1      47.077   2.603   5.216  0.00  0.00    +0.000 A 
ATOM     11  C   UNL     1      47.469   1.285   5.424  0.00  0.00    +0.000 A 
ATOM     12  C   UNL     1      47.235   0.682   6.656  0.00  0.00    +0.000 A 
ATOM     13  C   UNL     1      46.612   1.403   7.679  0.00  0.00    +0.000 A 
ENDBRANCH   6   8
BRANCH   2  15
ATOM     14  C   UNL     1      43.451   2.827  12.529  0.00  0.00    +0.000 C 
ATOM     15  O   UNL     1      43.168   2.775  11.130  0.00  0.00    +0.000 OA
ENDBRANCH   2  15
ENDBRANCH   1   4
BRANCH   1  16
ATOM     16  C   UNL     1      45.532   7.108  11.949  0.00  0.00    +0.000 C 
BRANCH  16  17
ATOM     17  N   UNL     1      46.736   7.341  12.759  0.00  0.00    +0.000 N 
ATOM     18  C   UNL     1      46.997   6.294  13.670  0.00  0.00    +0.000 A 
ATOM     19  C   UNL     1      48.100   6.368  14.535  0.00  0.00    +0.000 A 
ATOM     20  N   UNL     1      48.419   5.419  15.460  0.00  0.00    +0.000 NA
ATOM     21  C   UNL     1      47.578   4.350  15.471  0.00  0.00    +0.000 A 
ATOM     22  C   UNL     1      46.501   4.244  14.609  0.00  0.00    +0.000 A 
ATOM     23  N   UNL     1      46.199   5.205  13.698  0.00  0.00    +0.000 NA
ATOM     24  H   UNL     1      46.687   8.216  13.275  0.00  0.00    +0.000 HD
BRANCH  21  25
ATOM     25  C   UNL     1      47.824   3.268  16.462  0.00  0.00    +0.000 C 
ATOM     26  N   UNL     1      46.894   3.140  17.459  0.00  0.00    +0.000 N 
ATOM     27  O   UNL     1      48.792   2.522  16.391  0.00  0.00    +0.000 OA
ATOM     28  H   UNL     1      46.097   3.763  17.496  0.00  0.00    +0.000 HD
ATOM     29  H   UNL     1      47.007   2.409  18.147  0.00  0.00    +0.000 HD
ENDBRANCH  21  25
ENDBRANCH  16  17
ENDBRANCH   1  16
TORSDOF 6
ENDMDL
MODEL 3
REMARK VINA RESULT:    -7.369      1.777      2.195
REMARK INTER + INTRA:         -10.935
REMARK INTER:                 -10.019
REMARK INTRA:                  -0.916
REMARK UNBOUND:                -0.982
REMARK  Name = 
REMARK  7 active torsions:
REMARK  status: ('A' for Active; 'I' for Inactive)
REMARK    1  A    between atoms: C_1  and  O_2
REMARK    2  A    between atoms: O_2  and  C_3
REMARK    3  A    between atoms: C_5  and  C_6
REMARK    4  A    between atoms: C_6  and  C_7
REMARK    5  A    between atoms: C_7  and  N_8
REMARK    6  A    between atoms: C_12  and  C_13
REMARK    7  A    between atoms: C_19  and  C_20
REMARK                            x       y       z     vdW  Elec       q    Type
REMARK                         _______ _______ _______ _____ _____    ______ ____
ROOT
ATOM      1  C   UNL     1      43.475   4.982  12.672  0.00  0.00    +0.000 C 
ENDROOT
BRANCH   1   4
ATOM      2  C   UNL     1      46.969   6.061  13.691  0.00  0.00    +0.000 A 
ATOM      3  C   UNL     1      45.850   5.257  13.531  0.00  0.00    +0.000 A 
ATOM      4  C   UNL     1      44.743   5.782  12.859  0.00  0.00    +0.000 A 
ATOM      5  C   UNL     1      44.815   7.104  12.401  0.00  0.00    +0.000 A 
ATOM      6  C   UNL     1      45.970   7.855  12.621  0.00  0.00    +0.000 A 
ATOM      7  N   UNL     1      47.050   7.328  13.243  0.00  0.00    +0.000 NA
BRANCH   6   8
ATOM      8  C   UNL     1      46.097   9.279  12.249  0.00  0.00    +0.000 A 
ATOM      9  C   UNL     1      47.351   9.890  12.071  0.00  0.00    +0.000 A 
ATOM     10  C   UNL     1      47.458  11.224  11.669  0.00  0.00    +0.000 A 
ATOM     11  C   UNL     1      46.312  11.977  11.432  0.00  0.00    +0.000 A 
ATOM     12  C   UNL     1      45.058  11.399  11.599  0.00  0.00    +0.000 A 
ATOM     13  C   UNL     1      44.954  10.064  12.003  0.00  0.00    +0.000 A 
ENDBRANCH   6   8
BRANCH   2  15
ATOM     14  C   UNL     1      48.675   6.464  15.235  0.00  0.00    +0.000 C 
ATOM     15  O   UNL     1      48.041   5.518  14.375  0.00  0.00    +0.000 OA
ENDBRANCH   2  15
ENDBRANCH   1   4
BRANCH   1  16
ATOM     16  C   UNL     1      43.178   4.715  11.189  0.00  0.00    +0.000 C 
BRANCH  16  17
ATOM     17  N   UNL     1      43.481   3.321  10.835  0.00  0.00    +0.000 N 
ATOM     18  C   UNL     1      44.453   3.210   9.818  0.00  0.00    +0.000 A 
ATOM     19  C   UNL     1      44.843   1.947   9.347  0.00  0.00    +0.000 A 
ATOM     20  N   UNL     1      45.755   1.741   8.356  0.00  0.00    +0.000 NA
ATOM     21  C   UNL     1      46.295   2.884   7.853  0.00  0.00    +0.000 A 
ATOM     22  C   UNL     1      45.946   4.138   8.321  0.00  0.00    +0.000 A 
ATOM     23  N   UNL     1      45.029   4.319   9.307  0.00  0.00    +0.000 NA
ATOM     24  H   UNL     1      42.650   2.810  10.549  0.00  0.00    +0.000 HD
BRANCH  21  25
ATOM     25  C   UNL     1      47.285   2.772   6.748  0.00  0.00    +0.000 C 
ATOM     26  N   UNL     1      47.073   3.579   5.663  0.00  0.00    +0.000 N 
ATOM     27  O   UNL     1      48.244   2.013   6.803  0.00  0.00    +0.000 OA
ATOM     28  H   UNL     1      46.277   4.205   5.640  0.00  0.00    +0.000 HD
ATOM     29  H   UNL     1      47.727   3.552   4.893  0.00  0.00    +0.000 HD
ENDBRANCH  21  25
ENDBRANCH  16  17
ENDBRANCH   1  16
TORSDOF 6
ENDMDL
MODEL 4
REMARK VINA RESULT:    -6.639      3.953      7.987
REMARK INTER + INTRA:          -9.950
REMARK INTER:                  -8.974
REMARK INTRA:                  -0.976
REMARK UNBOUND:                -0.982
REMARK  Name = 
REMARK  7 active torsions:
REMARK  status: ('A' for Active; 'I' for Inactive)
REMARK    1  A    between atoms: C_1  and  O_2
REMARK    2  A    between atoms: O_2  and  C_3
REMARK    3  A    between atoms: C_5  and  C_6
REMARK    4  A    between atoms: C_6  and  C_7
REMARK    5  A    between atoms: C_7  and  N_8
REMARK    6  A    between atoms: C_12  and  C_13
REMARK    7  A    between atoms: C_19  and  C_20
REMARK                            x       y       z     vdW  Elec       q    Type
REMARK                         _______ _______ _______ _____ _____    ______ ____
ROOT
ATOM      1  C   UNL     1      48.194   8.972  13.099  0.00  0.00    +0.000 C 
ENDROOT
BRANCH   1   4
ATOM      2  C   UNL     1      44.761   9.362  11.526  0.00  0.00    +0.000 A 
ATOM      3  C   UNL     1      45.994   9.705  12.058  0.00  0.00    +0.000 A 
ATOM      4  C   UNL     1      46.846   8.681  12.479  0.00  0.00    +0.000 A 
ATOM      5  C   UNL     1      46.397   7.359  12.362  0.00  0.00    +0.000 A 
ATOM      6  C   UNL     1      45.131   7.098  11.835  0.00  0.00    +0.000 A 
ATOM      7  N   UNL     1      44.327   8.095  11.399  0.00  0.00    +0.000 NA
BRANCH   6   8
ATOM      8  C   UNL     1      44.547   5.744  11.757  0.00  0.00    +0.000 A 
ATOM      9  C   UNL     1      44.642   4.962  10.592  0.00  0.00    +0.000 A 
ATOM     10  C   UNL     1      44.130   3.663  10.546  0.00  0.00    +0.000 A 
ATOM     11  C   UNL     1      43.515   3.113  11.666  0.00  0.00    +0.000 A 
ATOM     12  C   UNL     1      43.408   3.863  12.833  0.00  0.00    +0.000 A 
ATOM     13  C   UNL     1      43.919   5.164  12.876  0.00  0.00    +0.000 A 
ENDBRANCH   6   8
BRANCH   2  15
ATOM     14  C   UNL     1      42.729   9.938  10.527  0.00  0.00    +0.000 C 
ATOM     15  O   UNL     1      43.935  10.400  11.133  0.00  0.00    +0.000 OA
ENDBRANCH   2  15
ENDBRANCH   1   4
BRANCH   1  16
ATOM     16  C   UNL     1      49.011   7.692  13.323  0.00  0.00    +0.000 C 
BRANCH  16  17
ATOM     17  N   UNL     1      49.568   7.657  14.683  0.00  0.00    +0.000 N 
ATOM     18  C   UNL     1      49.070   6.584  15.454  0.00  0.00    +0.000 A 
ATOM     19  C   UNL     1      49.486   6.416  16.784  0.00  0.00    +0.000 A 
ATOM     20  N   UNL     1      49.045   5.427  17.611  0.00  0.00    +0.000 NA
ATOM     21  C   UNL     1      48.161   4.571  17.030  0.00  0.00    +0.000 A 
ATOM     22  C   UNL     1      47.759   4.702  15.713  0.00  0.00    +0.000 A 
ATOM     23  N   UNL     1      48.208   5.700  14.909  0.00  0.00    +0.000 NA
ATOM     24  H   UNL     1      49.403   8.524  15.187  0.00  0.00    +0.000 HD
BRANCH  21  25
ATOM     25  C   UNL     1      47.599   3.468  17.855  0.00  0.00    +0.000 C 
ATOM     26  N   UNL     1      48.233   3.217  19.041  0.00  0.00    +0.000 N 
ATOM     27  O   UNL     1      46.617   2.826  17.506  0.00  0.00    +0.000 OA
ATOM     28  H   UNL     1      49.041   3.765  19.314  0.00  0.00    +0.000 HD
ATOM     29  H   UNL     1      47.880   2.489  19.645  0.00  0.00    +0.000 HD
ENDBRANCH  21  25
ENDBRANCH  16  17
ENDBRANCH   1  16
TORSDOF 6
ENDMDL
MODEL 5
REMARK VINA RESULT:    -6.177      4.561      7.235
REMARK INTER + INTRA:          -9.325
REMARK INTER:                  -8.616
REMARK INTRA:                  -0.709
REMARK UNBOUND:                -0.982
REMARK  Name = 
REMARK  7 active torsions:
REMARK  status: ('A' for Active; 'I' for Inactive)
REMARK    1  A    between atoms: C_1  and  O_2
REMARK    2  A    between atoms: O_2  and  C_3
REMARK    3  A    between atoms: C_5  and  C_6
REMARK    4  A    between atoms: C_6  and  C_7
REMARK    5  A    between atoms: C_7  and  N_8
REMARK    6  A    between atoms: C_12  and  C_13
REMARK    7  A    between atoms: C_19  and  C_20
REMARK                            x       y       z     vdW  Elec       q    Type
REMARK                         _______ _______ _______ _____ _____    ______ ____
ROOT
ATOM      1  C   UNL     1      47.311   3.591  17.281  0.00  0.00    +0.000 C 
ENDROOT
BRANCH   1   4
ATOM      2  C   UNL     1      50.121   5.342  19.140  0.00  0.00    +0.000 A 
ATOM      3  C   UNL     1      48.850   5.079  18.650  0.00  0.00    +0.000 A 
ATOM      4  C   UNL     1      48.657   3.931  17.878  0.00  0.00    +0.000 A 
ATOM      5  C   UNL     1      49.767   3.115  17.620  0.00  0.00    +0.000 A 
ATOM      6  C   UNL     1      51.019   3.460  18.132  0.00  0.00    +0.000 A 
ATOM      7  N   UNL     1      51.189   4.557  18.907  0.00  0.00    +0.000 NA
BRANCH   6   8
ATOM      8  C   UNL     1      52.253   2.706  17.837  0.00  0.00    +0.000 A 
ATOM      9  C   UNL     1      53.516   3.324  17.831  0.00  0.00    +0.000 A 
ATOM     10  C   UNL     1      54.683   2.590  17.601  0.00  0.00    +0.000 A 
ATOM     11  C   UNL     1      54.614   1.218  17.376  0.00  0.00    +0.000 A 
ATOM     12  C   UNL     1      53.377   0.580  17.377  0.00  0.00    +0.000 A 
ATOM     13  C   UNL     1      52.212   1.317  17.606  0.00  0.00    +0.000 A 
ENDBRANCH   6   8
BRANCH   2  15
ATOM     14  C   UNL     1      51.654   6.823  20.095  0.00  0.00    +0.000 C 
ATOM     15  O   UNL     1      50.281   6.495  19.886  0.00  0.00    +0.000 OA
ENDBRANCH   2  15
ENDBRANCH   1   4
BRANCH   1  16
ATOM     16  C   UNL     1      47.354   3.560  15.747  0.00  0.00    +0.000 C 
BRANCH  16  17
ATOM     17  N   UNL     1      47.141   4.903  15.188  0.00  0.00    +0.000 N 
ATOM     18  C   UNL     1      46.448   4.884  13.959  0.00  0.00    +0.000 A 
ATOM     19  C   UNL     1      46.180   6.083  13.280  0.00  0.00    +0.000 A 
ATOM     20  N   UNL     1      45.538   6.163  12.080  0.00  0.00    +0.000 NA
ATOM     21  C   UNL     1      45.143   4.960  11.581  0.00  0.00    +0.000 A 
ATOM     22  C   UNL     1      45.373   3.769  12.246  0.00  0.00    +0.000 A 
ATOM     23  N   UNL     1      46.020   3.714  13.439  0.00  0.00    +0.000 NA
ATOM     24  H   UNL     1      48.015   5.408  15.062  0.00  0.00    +0.000 HD
BRANCH  21  25
ATOM     25  C   UNL     1      44.455   4.934  10.263  0.00  0.00    +0.000 C 
ATOM     26  N   UNL     1      45.252   5.102   9.162  0.00  0.00    +0.000 N 
ATOM     27  O   UNL     1      43.248   4.759  10.158  0.00  0.00    +0.000 OA
ATOM     28  H   UNL     1      46.250   5.238   9.270  0.00  0.00    +0.000 HD
ATOM     29  H   UNL     1      44.834   5.075   8.243  0.00  0.00    +0.000 HD
ENDBRANCH  21  25
ENDBRANCH  16  17
ENDBRANCH   1  16
TORSDOF 6
ENDMDL
MODEL 6
REMARK VINA RESULT:    -6.091      3.968      6.846
REMARK INTER + INTRA:          -9.209
REMARK INTER:                  -8.553
REMARK INTRA:                  -0.656
REMARK UNBOUND:                -0.982
REMARK  Name = 
REMARK  7 active torsions:
REMARK  status: ('A' for Active; 'I' for Inactive)
REMARK    1  A    between atoms: C_1  and  O_2
REMARK    2  A    between atoms: O_2  and  C_3
REMARK    3  A    between atoms: C_5  and  C_6
REMARK    4  A    between atoms: C_6  and  C_7
REMARK    5  A    between atoms: C_7  and  N_8
REMARK    6  A    between atoms: C_12  and  C_13
REMARK    7  A    between atoms: C_19  and  C_20
REMARK                            x       y       z     vdW  Elec       q    Type
REMARK                         _______ _______ _______ _____ _____    ______ ____
ROOT
ATOM      1  C   UNL     1      48.761   7.786  15.581  0.00  0.00    +0.000 C 
ENDROOT
BRANCH   1   4
ATOM      2  C   UNL     1      48.708   6.408  19.119  0.00  0.00    +0.000 A 
ATOM      3  C   UNL     1      48.456   7.251  18.047  0.00  0.00    +0.000 A 
ATOM      4  C   UNL     1      48.964   6.904  16.792  0.00  0.00    +0.000 A 
ATOM      5  C   UNL     1      49.721   5.730  16.688  0.00  0.00    +0.000 A 
ATOM      6  C   UNL     1      49.948   4.945  17.820  0.00  0.00    +0.000 A 
ATOM      7  N   UNL     1      49.424   5.272  19.025  0.00  0.00    +0.000 NA
BRANCH   6   8
ATOM      8  C   UNL     1      50.804   3.742  17.817  0.00  0.00    +0.000 A 
ATOM      9  C   UNL     1      50.319   2.488  17.408  0.00  0.00    +0.000 A 
ATOM     10  C   UNL     1      51.152   1.367  17.361  0.00  0.00    +0.000 A 
ATOM     11  C   UNL     1      52.493   1.476  17.717  0.00  0.00    +0.000 A 
ATOM     12  C   UNL     1      53.000   2.706  18.125  0.00  0.00    +0.000 A 
ATOM     13  C   UNL     1      52.164   3.825  18.173  0.00  0.00    +0.000 A 
ENDBRANCH   6   8
BRANCH   2  15
ATOM     14  C   UNL     1      48.404   5.791  21.351  0.00  0.00    +0.000 C 
ATOM     15  O   UNL     1      48.205   6.788  20.349  0.00  0.00    +0.000 OA
ENDBRANCH   2  15
ENDBRANCH   1   4
BRANCH   1  16
ATOM     16  C   UNL     1      48.212   6.998  14.383  0.00  0.00    +0.000 C 
BRANCH  16  17
ATOM     17  N   UNL     1      47.085   7.707  13.761  0.00  0.00    +0.000 N 
ATOM     18  C   UNL     1      46.253   6.858  13.000  0.00  0.00    +0.000 A 
ATOM     19  C   UNL     1      45.140   7.380  12.322  0.00  0.00    +0.000 A 
ATOM     20  N   UNL     1      44.295   6.643  11.547  0.00  0.00    +0.000 NA
ATOM     21  C   UNL     1      44.603   5.319  11.493  0.00  0.00    +0.000 A 
ATOM     22  C   UNL     1      45.678   4.779  12.175  0.00  0.00    +0.000 A 
ATOM     23  N   UNL     1      46.511   5.534  12.938  0.00  0.00    +0.000 NA
ATOM     24  H   UNL     1      47.395   8.474  13.170  0.00  0.00    +0.000 HD
BRANCH  21  25
ATOM     25  C   UNL     1      43.756   4.430  10.653  0.00  0.00    +0.000 C 
ATOM     26  N   UNL     1      43.886   4.576   9.298  0.00  0.00    +0.000 N 
ATOM     27  O   UNL     1      42.993   3.604  11.137  0.00  0.00    +0.000 OA
ATOM     28  H   UNL     1      44.527   5.262   8.917  0.00  0.00    +0.000 HD
ATOM     29  H   UNL     1      43.344   3.984   8.684  0.00  0.00    +0.000 HD
ENDBRANCH  21  25
ENDBRANCH  16  17
ENDBRANCH   1  16
TORSDOF 6
ENDMDL
MODEL 7
REMARK VINA RESULT:    -6.083      4.072      7.387
REMARK INTER + INTRA:          -9.198
REMARK INTER:                  -8.896
REMARK INTRA:                  -0.302
REMARK UNBOUND:                -0.982
REMARK  Name = 
REMARK  7 active torsions:
REMARK  status: ('A' for Active; 'I' for Inactive)
REMARK    1  A    between atoms: C_1  and  O_2
REMARK    2  A    between atoms: O_2  and  C_3
REMARK    3  A    between atoms: C_5  and  C_6
REMARK    4  A    between atoms: C_6  and  C_7
REMARK    5  A    between atoms: C_7  and  N_8
REMARK    6  A    between atoms: C_12  and  C_13
REMARK    7  A    between atoms: C_19  and  C_20
REMARK                            x       y       z     vdW  Elec       q    Type
REMARK                         _______ _______ _______ _____ _____    ______ ____
ROOT
ATOM      1  C   UNL     1      47.281   3.800  14.993  0.00  0.00    +0.000 C 
ENDROOT
BRANCH   1   4
ATOM      2  C   UNL     1      45.080   5.770  12.608  0.00  0.00    +0.000 A 
ATOM      3  C   UNL     1      45.485   4.770  13.479  0.00  0.00    +0.000 A 
ATOM      4  C   UNL     1      46.752   4.864  14.059  0.00  0.00    +0.000 A 
ATOM      5  C   UNL     1      47.558   5.956  13.710  0.00  0.00    +0.000 A 
ATOM      6  C   UNL     1      47.085   6.910  12.808  0.00  0.00    +0.000 A 
ATOM      7  N   UNL     1      45.843   6.828  12.277  0.00  0.00    +0.000 NA
BRANCH   6   8
ATOM      8  C   UNL     1      47.899   8.042  12.320  0.00  0.00    +0.000 A 
ATOM      9  C   UNL     1      49.240   7.878  11.932  0.00  0.00    +0.000 A 
ATOM     10  C   UNL     1      49.985   8.945  11.424  0.00  0.00    +0.000 A 
ATOM     11  C   UNL     1      49.404  10.202  11.289  0.00  0.00    +0.000 A 
ATOM     12  C   UNL     1      48.078  10.394  11.665  0.00  0.00    +0.000 A 
ATOM     13  C   UNL     1      47.336   9.325  12.174  0.00  0.00    +0.000 A 
ENDBRANCH   6   8
BRANCH   2  15
ATOM     14  C   UNL     1      42.877   5.067  12.940  0.00  0.00    +0.000 C 
ATOM     15  O   UNL     1      43.826   5.638  12.040  0.00  0.00    +0.000 OA
ENDBRANCH   2  15
ENDBRANCH   1   4
BRANCH   1  16
ATOM     16  C   UNL     1      47.171   4.222  16.465  0.00  0.00    +0.000 C 
BRANCH  16  17
ATOM     17  N   UNL     1      48.397   4.901  16.910  0.00  0.00    +0.000 N 
ATOM     18  C   UNL     1      49.470   4.010  17.129  0.00  0.00    +0.000 A 
ATOM     19  C   UNL     1      50.710   4.493  17.576  0.00  0.00    +0.000 A 
ATOM     20  N   UNL     1      51.795   3.710  17.835  0.00  0.00    +0.000 NA
ATOM     21  C   UNL     1      51.591   2.385  17.601  0.00  0.00    +0.000 A 
ATOM     22  C   UNL     1      50.387   1.891  17.134  0.00  0.00    +0.000 A 
ATOM     23  N   UNL     1      49.317   2.691  16.888  0.00  0.00    +0.000 NA
ATOM     24  H   UNL     1      48.248   5.445  17.755  0.00  0.00    +0.000 HD
BRANCH  21  25
ATOM     25  C   UNL     1      52.706   1.439  17.876  0.00  0.00    +0.000 C 
ATOM     26  N   UNL     1      52.345   0.177  18.262  0.00  0.00    +0.000 N 
ATOM     27  O   UNL     1      53.881   1.760  17.755  0.00  0.00    +0.000 OA
ATOM     28  H   UNL     1      51.367  -0.071  18.350  0.00  0.00    +0.000 HD
ATOM     29  H   UNL     1      53.065  -0.508  18.444  0.00  0.00    +0.000 HD
ENDBRANCH  21  25
ENDBRANCH  16  17
ENDBRANCH   1  16
TORSDOF 6
ENDMDL
MODEL 8
REMARK VINA RESULT:    -6.073      3.990      8.588
REMARK INTER + INTRA:          -9.185
REMARK INTER:                  -8.333
REMARK INTRA:                  -0.851
REMARK UNBOUND:                -0.982
REMARK  Name = 
REMARK  7 active torsions:
REMARK  status: ('A' for Active; 'I' for Inactive)
REMARK    1  A    between atoms: C_1  and  O_2
REMARK    2  A    between atoms: O_2  and  C_3
REMARK    3  A    between atoms: C_5  and  C_6
REMARK    4  A    between atoms: C_6  and  C_7
REMARK    5  A    between atoms: C_7  and  N_8
REMARK    6  A    between atoms: C_12  and  C_13
REMARK    7  A    between atoms: C_19  and  C_20
REMARK                            x       y       z     vdW  Elec       q    Type
REMARK                         _______ _______ _______ _____ _____    ______ ____
ROOT
ATOM      1  C   UNL     1      49.085   8.083  12.437  0.00  0.00    +0.000 C 
ENDROOT
BRANCH   1   4
ATOM      2  C   UNL     1      45.395   8.863  12.003  0.00  0.00    +0.000 A 
ATOM      3  C   UNL     1      46.751   9.062  12.217  0.00  0.00    +0.000 A 
ATOM      4  C   UNL     1      47.601   7.954  12.183  0.00  0.00    +0.000 A 
ATOM      5  C   UNL     1      47.033   6.693  11.956  0.00  0.00    +0.000 A 
ATOM      6  C   UNL     1      45.654   6.574  11.772  0.00  0.00    +0.000 A 
ATOM      7  N   UNL     1      44.844   7.657  11.773  0.00  0.00    +0.000 NA
BRANCH   6   8
ATOM      8  C   UNL     1      44.965   5.277  11.615  0.00  0.00    +0.000 A 
ATOM      9  C   UNL     1      44.292   4.661  12.685  0.00  0.00    +0.000 A 
ATOM     10  C   UNL     1      43.600   3.459  12.511  0.00  0.00    +0.000 A 
ATOM     11  C   UNL     1      43.562   2.848  11.262  0.00  0.00    +0.000 A 
ATOM     12  C   UNL     1      44.218   3.435  10.185  0.00  0.00    +0.000 A 
ATOM     13  C   UNL     1      44.911   4.637  10.362  0.00  0.00    +0.000 A 
ENDBRANCH   6   8
BRANCH   2  15
ATOM     14  C   UNL     1      45.265  11.174  11.688  0.00  0.00    +0.000 C 
ATOM     15  O   UNL     1      44.579   9.978  12.060  0.00  0.00    +0.000 OA
ENDBRANCH   2  15
ENDBRANCH   1   4
BRANCH   1  16
ATOM     16  C   UNL     1      49.529   7.276  13.666  0.00  0.00    +0.000 C 
BRANCH  16  17
ATOM     17  N   UNL     1      49.343   8.054  14.900  0.00  0.00    +0.000 N 
ATOM     18  C   UNL     1      49.092   7.244  16.028  0.00  0.00    +0.000 A 
ATOM     19  C   UNL     1      48.871   7.830  17.284  0.00  0.00    +0.000 A 
ATOM     20  N   UNL     1      48.600   7.133  18.423  0.00  0.00    +0.000 NA
ATOM     21  C   UNL     1      48.580   5.783  18.256  0.00  0.00    +0.000 A 
ATOM     22  C   UNL     1      48.822   5.183  17.033  0.00  0.00    +0.000 A 
ATOM     23  N   UNL     1      49.085   5.899  15.910  0.00  0.00    +0.000 NA
ATOM     24  H   UNL     1      48.591   8.734  14.813  0.00  0.00    +0.000 HD
BRANCH  21  25
ATOM     25  C   UNL     1      48.269   4.929  19.434  0.00  0.00    +0.000 C 
ATOM     26  N   UNL     1      48.518   3.591  19.293  0.00  0.00    +0.000 N 
ATOM     27  O   UNL     1      47.828   5.391  20.479  0.00  0.00    +0.000 OA
ATOM     28  H   UNL     1      48.889   3.230  18.422  0.00  0.00    +0.000 HD
ATOM     29  H   UNL     1      48.339   2.971  20.071  0.00  0.00    +0.000 HD
ENDBRANCH  21  25
ENDBRANCH  16  17
ENDBRANCH   1  16
TORSDOF 6
ENDMDL
