MODEL 1
REMARK VINA RESULT:    -8.055      0.000      0.000
REMARK INTER + INTRA:         -11.760
REMARK INTER:                 -10.880
REMARK INTRA:                  -0.880
REMARK UNBOUND:                -0.880
REMARK  Name = 
REMARK  7 active torsions:
REMARK  status: ('A' for Active; 'I' for Inactive)
REMARK    1  A    between atoms: C_1  and  N_2
REMARK    2  A    between atoms: N_2  and  C_3
REMARK    3  A    between atoms: C_3  and  C_4
REMARK    4  A    between atoms: C_8  and  C_9
REMARK    5  A    between atoms: C_9  and  N_10
REMARK    6  A    between atoms: C_11  and  C_13
REMARK    7  A    between atoms: C_24  and  C_26
REMARK                            x       y       z     vdW  Elec       q    Type
REMARK                         _______ _______ _______ _____ _____    ______ ____
ROOT
ATOM      1  C   UNL     1      46.000   6.509  12.067  0.00  0.00    +0.000 A 
ATOM      2  C   UNL     1      45.033   7.369  11.526  0.00  0.00    +0.000 A 
ATOM      3  C   UNL     1      45.041   8.725  11.843  0.00  0.00    +0.000 A 
ATOM      4  C   UNL     1      45.989   9.228  12.737  0.00  0.00    +0.000 A 
ATOM      5  C   UNL     1      46.937   8.377  13.321  0.00  0.00    +0.000 A 
ATOM      6  C   UNL     1      46.972   7.030  12.935  0.00  0.00    +0.000 A 
ENDROOT
BRANCH   1   7
ATOM      7  C   UNL     1      45.947   5.032  11.770  0.00  0.00    +0.000 C 
BRANCH   7   9
ATOM      8  C   UNL     1      43.850   4.484  13.110  0.00  0.00    +0.000 C 
ATOM      9  N   UNL     1      44.664   4.338  11.913  0.00  0.00    +0.000 N 
ATOM     10  C   UNL     1      44.104   3.572  10.873  0.00  0.00    +0.000 C 
ATOM     11  O   UNL     1      42.958   3.121  10.943  0.00  0.00    +0.000 OA
BRANCH  10  12
ATOM     12  C   UNL     1      44.874   3.300   9.621  0.00  0.00    +0.000 A 
ATOM     13  C   UNL     1      45.098   4.340   8.728  0.00  0.00    +0.000 A 
ATOM     14  N   UNL     1      45.788   4.170   7.568  0.00  0.00    +0.000 NA
ATOM     15  C   UNL     1      46.228   2.913   7.335  0.00  0.00    +0.000 A 
ATOM     16  C   UNL     1      45.996   1.872   8.217  0.00  0.00    +0.000 A 
ATOM     17  N   UNL     1      45.317   2.037   9.374  0.00  0.00    +0.000 NA
ENDBRANCH  10  12
ENDBRANCH   7   9
ENDBRANCH   1   7
BRANCH   5  18
ATOM     18  C   UNL     1      47.870   8.889  14.386  0.00  0.00    +0.000 C 
BRANCH  18  19
ATOM     19  N   UNL     1      48.106   7.917  15.418  0.00  0.00    +0.000 N 
ATOM     20  C   UNL     1      49.286   7.220  15.480  0.00  0.00    +0.000 C 
ATOM     21  O   UNL     1      50.210   7.426  14.699  0.00  0.00    +0.000 OA
ATOM     22  H   UNL     1      47.284   7.543  15.884  0.00  0.00    +0.000 HD
BRANCH  20  23
ATOM     23  C   UNL     1      49.410   6.262  16.584  0.00  0.00    +0.000 A 
ATOM     24  C   UNL     1      50.385   6.444  17.555  0.00  0.00    +0.000 A 
ATOM     25  S   UNL     1      50.338   5.278  18.798  0.00  0.00    +0.000 S 
ATOM     26  C   UNL     1      49.046   4.457  18.052  0.00  0.00    +0.000 A 
ATOM     27  N   UNL     1      48.521   3.331  18.603  0.00  0.00    +0.000 NA
ATOM     28  C   UNL     1      47.567   2.797  17.916  0.00  0.00    +0.000 A 
ATOM     29  N   UNL     1      47.087   3.285  16.726  0.00  0.00    +0.000 N 
ATOM     30  C   UNL     1      47.574   4.431  16.147  0.00  0.00    +0.000 A 
ATOM     31  O   UNL     1      47.101   4.858  15.097  0.00  0.00    +0.000 OA
ATOM     32  C   UNL     1      48.650   5.072  16.878  0.00  0.00    +0.000 A 
ATOM     33  H   UNL     1      46.337   2.824  16.244  0.00  0.00    +0.000 HD
ENDBRANCH  20  23
ENDBRANCH  18  19
ENDBRANCH   5  18
TORSDOF 6
ENDMDL
MODEL 2
REMARK VINA RESULT:    -7.954      2.944      7.627
REMARK INTER + INTRA:         -11.625
REMARK INTER:                 -10.823
REMARK INTRA:                  -0.801
REMARK UNBOUND:                -0.880
REMARK  Name = 
REMARK  7 active torsions:
REMARK  status: ('A' for Active; 'I' for Inactive)
REMARK    1  A    between atoms: C_1  and  N_2
REMARK    2  A    between atoms: N_2  and  C_3
REMARK    3  A    between atoms: C_3  and  C_4
REMARK    4  A    between atoms: C_8  and  C_9
REMARK    5  A    between atoms: C_9  and  N_10
REMARK    6  A    between atoms: C_11  and  C_13
REMARK    7  A    between atoms: C_24  and  C_26
REMARK                            x       y       z     vdW  Elec       q    Type
REMARK                         _______ _______ _______ _____ _____    ______ ____
ROOT
ATOM      1  C   UNL     1      48.930   5.636  18.392  0.00  0.00    +0.000 A 
ATOM      2  C   UNL     1      48.935   6.573  19.435  0.00  0.00    +0.000 A 
ATOM      3  C   UNL     1      48.841   7.934  19.159  0.00  0.00    +0.000 A 
ATOM      4  C   UNL     1      48.784   8.376  17.836  0.00  0.00    +0.000 A 
ATOM      5  C   UNL     1      48.822   7.459  16.777  0.00  0.00    +0.000 A 
ATOM      6  C   UNL     1      48.836   6.087  17.066  0.00  0.00    +0.000 A 
ENDROOT
BRANCH   1   7
ATOM      7  C   UNL     1      49.097   4.168  18.693  0.00  0.00    +0.000 C 
BRANCH   7   9
ATOM      8  C   UNL     1      47.325   3.098  17.205  0.00  0.00    +0.000 C 
ATOM      9  N   UNL     1      48.702   3.197  17.669  0.00  0.00    +0.000 N 
ATOM     10  C   UNL     1      49.636   2.376  17.012  0.00  0.00    +0.000 C 
ATOM     11  O   UNL     1      49.320   1.675  16.046  0.00  0.00    +0.000 OA
BRANCH  10  12
ATOM     12  C   UNL     1      51.067   2.344  17.445  0.00  0.00    +0.000 A 
ATOM     13  C   UNL     1      51.640   1.126  17.789  0.00  0.00    +0.000 A 
ATOM     14  N   UNL     1      52.934   1.017  18.193  0.00  0.00    +0.000 NA
ATOM     15  C   UNL     1      53.623   2.179  18.253  0.00  0.00    +0.000 A 
ATOM     16  C   UNL     1      53.051   3.396  17.922  0.00  0.00    +0.000 A 
ATOM     17  N   UNL     1      51.768   3.508  17.514  0.00  0.00    +0.000 NA
ENDBRANCH  10  12
ENDBRANCH   7   9
ENDBRANCH   1   7
BRANCH   5  18
ATOM     18  C   UNL     1      48.900   7.939  15.352  0.00  0.00    +0.000 C 
BRANCH  18  19
ATOM     19  N   UNL     1      47.743   7.562  14.587  0.00  0.00    +0.000 N 
ATOM     20  C   UNL     1      47.849   6.716  13.512  0.00  0.00    +0.000 C 
ATOM     21  O   UNL     1      48.916   6.203  13.184  0.00  0.00    +0.000 OA
ATOM     22  H   UNL     1      46.933   8.169  14.661  0.00  0.00    +0.000 HD
BRANCH  20  23
ATOM     23  C   UNL     1      46.598   6.399  12.816  0.00  0.00    +0.000 A 
ATOM     24  C   UNL     1      45.853   7.415  12.230  0.00  0.00    +0.000 A 
ATOM     25  S   UNL     1      44.469   6.858  11.405  0.00  0.00    +0.000 S 
ATOM     26  C   UNL     1      44.787   5.246  11.848  0.00  0.00    +0.000 A 
ATOM     27  N   UNL     1      43.957   4.238  11.469  0.00  0.00    +0.000 NA
ATOM     28  C   UNL     1      44.304   3.071  11.900  0.00  0.00    +0.000 A 
ATOM     29  N   UNL     1      45.407   2.816  12.675  0.00  0.00    +0.000 N 
ATOM     30  C   UNL     1      46.284   3.801  13.061  0.00  0.00    +0.000 A 
ATOM     31  O   UNL     1      47.279   3.534  13.729  0.00  0.00    +0.000 OA
ATOM     32  C   UNL     1      45.940   5.134  12.605  0.00  0.00    +0.000 A 
ATOM     33  H   UNL     1      45.625   1.882  12.972  0.00  0.00    +0.000 HD
ENDBRANCH  20  23
ENDBRANCH  18  19
ENDBRANCH   5  18
TORSDOF 6
ENDMDL
MODEL 3
REMARK VINA RESULT:    -7.893      2.173      2.629
REMARK INTER + INTRA:         -11.541
REMARK INTER:                 -10.505
REMARK INTRA:                  -1.037
REMARK UNBOUND:                -0.880
REMARK  Name = 
REMARK  7 active torsions:
REMARK  status: ('A' for Active; 'I' for Inactive)
REMARK    1  A    between atoms: C_1  and  N_2
REMARK    2  A    between atoms: N_2  and  C_3
REMARK    3  A    between atoms: C_3  and  C_4
REMARK    4  A    between atoms: C_8  and  C_9
REMARK    5  A    between atoms: C_9  and  N_10
REMARK    6  A    between atoms: C_11  and  C_13
REMARK    7  A    between atoms: C_24  and  C_26
REMARK                            x       y       z     vdW  Elec       q    Type
REMARK                         _______ _______ _______ _____ _____    ______ ____
ROOT
ATOM      1  C   UNL     1      46.859   5.658  12.648  0.00  0.00    +0.000 A 
ATOM      2  C   UNL     1      47.172   6.560  11.621  0.00  0.00    +0.000 A 
ATOM      3  C   UNL     1      48.010   7.645  11.869  0.00  0.00    +0.000 A 
ATOM      4  C   UNL     1      48.510   7.862  13.154  0.00  0.00    +0.000 A 
ATOM      5  C   UNL     1      48.175   6.996  14.204  0.00  0.00    +0.000 A 
ATOM      6  C   UNL     1      47.396   5.864  13.928  0.00  0.00    +0.000 A 
ENDROOT
BRANCH   1   7
ATOM      7  C   UNL     1      45.901   4.523  12.390  0.00  0.00    +0.000 C 
BRANCH   7   9
ATOM      8  C   UNL     1      43.614   5.474  12.991  0.00  0.00    +0.000 C 
ATOM      9  N   UNL     1      44.516   4.847  12.036  0.00  0.00    +0.000 N 
ATOM     10  C   UNL     1      44.009   4.662  10.736  0.00  0.00    +0.000 C 
ATOM     11  O   UNL     1      42.895   5.079  10.407  0.00  0.00    +0.000 OA
BRANCH  10  12
ATOM     12  C   UNL     1      44.821   3.971   9.688  0.00  0.00    +0.000 A 
ATOM     13  C   UNL     1      44.870   2.582   9.680  0.00  0.00    +0.000 A 
ATOM     14  N   UNL     1      45.587   1.883   8.760  0.00  0.00    +0.000 NA
ATOM     15  C   UNL     1      46.265   2.632   7.862  0.00  0.00    +0.000 A 
ATOM     16  C   UNL     1      46.228   4.016   7.875  0.00  0.00    +0.000 A 
ATOM     17  N   UNL     1      45.512   4.715   8.783  0.00  0.00    +0.000 NA
ENDBRANCH  10  12
ENDBRANCH   7   9
ENDBRANCH   1   7
BRANCH   5  18
ATOM     18  C   UNL     1      48.599   7.305  15.615  0.00  0.00    +0.000 C 
BRANCH  18  19
ATOM     19  N   UNL     1      49.704   6.490  16.042  0.00  0.00    +0.000 N 
ATOM     20  C   UNL     1      49.688   5.855  17.258  0.00  0.00    +0.000 C 
ATOM     21  O   UNL     1      48.720   5.907  18.012  0.00  0.00    +0.000 OA
ATOM     22  H   UNL     1      50.593   6.655  15.580  0.00  0.00    +0.000 HD
BRANCH  20  23
ATOM     23  C   UNL     1      50.869   5.046  17.577  0.00  0.00    +0.000 A 
ATOM     24  C   UNL     1      52.029   5.661  18.031  0.00  0.00    +0.000 A 
ATOM     25  S   UNL     1      53.275   4.564  18.420  0.00  0.00    +0.000 S 
ATOM     26  C   UNL     1      52.326   3.233  17.945  0.00  0.00    +0.000 A 
ATOM     27  N   UNL     1      52.814   1.966  18.011  0.00  0.00    +0.000 NA
ATOM     28  C   UNL     1      51.997   1.058  17.591  0.00  0.00    +0.000 A 
ATOM     29  N   UNL     1      50.735   1.299  17.110  0.00  0.00    +0.000 N 
ATOM     30  C   UNL     1      50.195   2.561  17.047  0.00  0.00    +0.000 A 
ATOM     31  O   UNL     1      49.050   2.739  16.640  0.00  0.00    +0.000 OA
ATOM     32  C   UNL     1      51.073   3.620  17.506  0.00  0.00    +0.000 A 
ATOM     33  H   UNL     1      50.146   0.546  16.804  0.00  0.00    +0.000 HD
ENDBRANCH  20  23
ENDBRANCH  18  19
ENDBRANCH   5  18
TORSDOF 6
ENDMDL
MODEL 4
REMARK VINA RESULT:    -7.488      2.717      7.465
REMARK INTER + INTRA:         -10.995
REMARK INTER:                  -9.789
REMARK INTRA:                  -1.206
REMARK UNBOUND:                -0.880
REMARK  Name = 
REMARK  7 active torsions:
REMARK  status: ('A' for Active; 'I' for Inactive)
REMARK    1  A    between atoms: C_1  and  N_2
REMARK    2  A    between atoms: N_2  and  C_3
REMARK    3  A    between atoms: C_3  and  C_4
REMARK    4  A    between atoms: C_8  and  C_9
REMARK    5  A    between atoms: C_9  and  N_10
REMARK    6  A    between atoms: C_11  and  C_13
REMARK    7  A    between atoms: C_24  and  C_26
REMARK                            x       y       z     vdW  Elec       q    Type
REMARK                         _______ _______ _______ _____ _____    ______ ____
ROOT
ATOM      1  C   UNL     1      49.952   7.647  14.488  0.00  0.00    +0.000 A 
ATOM      2  C   UNL     1      51.001   8.032  13.640  0.00  0.00    +0.000 A 
ATOM      3  C   UNL     1      50.729   8.579  12.389  0.00  0.00    +0.000 A 
ATOM      4  C   UNL     1      49.408   8.709  11.955  0.00  0.00    +0.000 A 
ATOM      5  C   UNL     1      48.347   8.291  12.770  0.00  0.00    +0.000 A 
ATOM      6  C   UNL     1      48.627   7.815  14.058  0.00  0.00    +0.000 A 
ENDROOT
BRANCH   1   7
ATOM      7  C   UNL     1      50.253   6.995  15.814  0.00  0.00    +0.000 C 
BRANCH   7   9
ATOM      8  C   UNL     1      49.351   8.702  17.479  0.00  0.00    +0.000 C 
ATOM      9  N   UNL     1      49.415   7.341  16.967  0.00  0.00    +0.000 N 
ATOM     10  C   UNL     1      48.559   6.407  17.580  0.00  0.00    +0.000 C 
ATOM     11  O   UNL     1      47.746   6.742  18.446  0.00  0.00    +0.000 OA
BRANCH  10  12
ATOM     12  C   UNL     1      48.584   4.966  17.181  0.00  0.00    +0.000 A 
ATOM     13  C   UNL     1      47.687   4.517  16.222  0.00  0.00    +0.000 A 
ATOM     14  N   UNL     1      47.647   3.221  15.808  0.00  0.00    +0.000 NA
ATOM     15  C   UNL     1      48.533   2.395  16.408  0.00  0.00    +0.000 A 
ATOM     16  C   UNL     1      49.421   2.837  17.374  0.00  0.00    +0.000 A 
ATOM     17  N   UNL     1      49.468   4.125  17.783  0.00  0.00    +0.000 NA
ENDBRANCH  10  12
ENDBRANCH   7   9
ENDBRANCH   1   7
BRANCH   5  18
ATOM     18  C   UNL     1      46.934   8.302  12.251  0.00  0.00    +0.000 C 
BRANCH  18  19
ATOM     19  N   UNL     1      46.397   6.977  12.102  0.00  0.00    +0.000 N 
ATOM     20  C   UNL     1      45.112   6.777  11.667  0.00  0.00    +0.000 C 
ATOM     21  O   UNL     1      44.380   7.707  11.336  0.00  0.00    +0.000 OA
ATOM     22  H   UNL     1      46.867   6.238  12.617  0.00  0.00    +0.000 HD
BRANCH  20  23
ATOM     23  C   UNL     1      44.683   5.380  11.549  0.00  0.00    +0.000 A 
ATOM     24  C   UNL     1      44.028   4.763  12.607  0.00  0.00    +0.000 A 
ATOM     25  S   UNL     1      43.539   3.165  12.269  0.00  0.00    +0.000 S 
ATOM     26  C   UNL     1      44.232   3.224  10.716  0.00  0.00    +0.000 A 
ATOM     27  N   UNL     1      44.182   2.149   9.885  0.00  0.00    +0.000 NA
ATOM     28  C   UNL     1      44.774   2.324   8.750  0.00  0.00    +0.000 A 
ATOM     29  N   UNL     1      45.412   3.476   8.367  0.00  0.00    +0.000 N 
ATOM     30  C   UNL     1      45.467   4.593   9.166  0.00  0.00    +0.000 A 
ATOM     31  O   UNL     1      46.020   5.619   8.780  0.00  0.00    +0.000 OA
ATOM     32  C   UNL     1      44.819   4.449  10.455  0.00  0.00    +0.000 A 
ATOM     33  H   UNL     1      45.848   3.550   7.466  0.00  0.00    +0.000 HD
ENDBRANCH  20  23
ENDBRANCH  18  19
ENDBRANCH   5  18
TORSDOF 6
ENDMDL
MODEL 5
REMARK VINA RESULT:    -7.375      1.546      1.866
REMARK INTER + INTRA:         -10.842
REMARK INTER:                 -10.709
REMARK INTRA:                  -0.133
REMARK UNBOUND:                -0.880
REMARK  Name = 
REMARK  7 active torsions:
REMARK  status: ('A' for Active; 'I' for Inactive)
REMARK    1  A    between atoms: C_1  and  N_2
REMARK    2  A    between atoms: N_2  and  C_3
REMARK    3  A    between atoms: C_3  and  C_4
REMARK    4  A    between atoms: C_8  and  C_9
REMARK    5  A    between atoms: C_9  and  N_10
REMARK    6  A    between atoms: C_11  and  C_13
REMARK    7  A    between atoms: C_24  and  C_26
REMARK                            x       y       z     vdW  Elec       q    Type
REMARK                         _______ _______ _______ _____ _____    ______ ____
ROOT
ATOM      1  C   UNL     1      45.132   6.894  11.643  0.00  0.00    +0.000 A 
ATOM      2  C   UNL     1      44.791   8.228  11.910  0.00  0.00    +0.000 A 
ATOM      3  C   UNL     1      45.627   9.026  12.688  0.00  0.00    +0.000 A 
ATOM      4  C   UNL     1      46.791   8.488  13.240  0.00  0.00    +0.000 A 
ATOM      5  C   UNL     1      47.127   7.146  13.021  0.00  0.00    +0.000 A 
ATOM      6  C   UNL     1      46.322   6.372  12.173  0.00  0.00    +0.000 A 
ENDROOT
BRANCH   1   7
ATOM      7  C   UNL     1      44.192   6.017  10.855  0.00  0.00    +0.000 C 
BRANCH   7   9
ATOM      8  C   UNL     1      42.814   4.963  12.722  0.00  0.00    +0.000 C 
ATOM      9  N   UNL     1      43.619   4.841  11.516  0.00  0.00    +0.000 N 
ATOM     10  C   UNL     1      43.731   3.546  10.975  0.00  0.00    +0.000 C 
ATOM     11  O   UNL     1      43.118   2.587  11.451  0.00  0.00    +0.000 OA
BRANCH  10  12
ATOM     12  C   UNL     1      44.584   3.288   9.775  0.00  0.00    +0.000 A 
ATOM     13  C   UNL     1      44.889   4.344   8.925  0.00  0.00    +0.000 A 
ATOM     14  N   UNL     1      45.658   4.188   7.813  0.00  0.00    +0.000 NA
ATOM     15  C   UNL     1      46.091   2.928   7.581  0.00  0.00    +0.000 A 
ATOM     16  C   UNL     1      45.779   1.872   8.420  0.00  0.00    +0.000 A 
ATOM     17  N   UNL     1      45.022   2.024   9.529  0.00  0.00    +0.000 NA
ENDBRANCH  10  12
ENDBRANCH   7   9
ENDBRANCH   1   7
BRANCH   5  18
ATOM     18  C   UNL     1      48.305   6.528  13.727  0.00  0.00    +0.000 C 
BRANCH  18  19
ATOM     19  N   UNL     1      48.148   6.532  15.155  0.00  0.00    +0.000 N 
ATOM     20  C   UNL     1      48.984   7.265  15.959  0.00  0.00    +0.000 C 
ATOM     21  O   UNL     1      49.866   7.987  15.501  0.00  0.00    +0.000 OA
ATOM     22  H   UNL     1      47.631   5.756  15.556  0.00  0.00    +0.000 HD
BRANCH  20  23
ATOM     23  C   UNL     1      48.718   7.195  17.399  0.00  0.00    +0.000 A 
ATOM     24  C   UNL     1      48.310   8.331  18.086  0.00  0.00    +0.000 A 
ATOM     25  S   UNL     1      47.977   8.049  19.734  0.00  0.00    +0.000 S 
ATOM     26  C   UNL     1      48.417   6.411  19.599  0.00  0.00    +0.000 A 
ATOM     27  N   UNL     1      48.377   5.583  20.678  0.00  0.00    +0.000 NA
ATOM     28  C   UNL     1      48.767   4.376  20.437  0.00  0.00    +0.000 A 
ATOM     29  N   UNL     1      49.194   3.917  19.217  0.00  0.00    +0.000 N 
ATOM     30  C   UNL     1      49.229   4.713  18.097  0.00  0.00    +0.000 A 
ATOM     31  O   UNL     1      49.587   4.262  17.013  0.00  0.00    +0.000 OA
ATOM     32  C   UNL     1      48.803   6.082  18.312  0.00  0.00    +0.000 A 
ATOM     33  H   UNL     1      49.478   2.962  19.095  0.00  0.00    +0.000 HD
ENDBRANCH  20  23
ENDBRANCH  18  19
ENDBRANCH   5  18
TORSDOF 6
ENDMDL
MODEL 6
REMARK VINA RESULT:    -7.373      3.146      8.528
REMARK INTER + INTRA:         -10.840
REMARK INTER:                  -9.473
REMARK INTRA:                  -1.367
REMARK UNBOUND:                -0.880
REMARK  Name = 
REMARK  7 active torsions:
REMARK  status: ('A' for Active; 'I' for Inactive)
REMARK    1  A    between atoms: C_1  and  N_2
REMARK    2  A    between atoms: N_2  and  C_3
REMARK    3  A    between atoms: C_3  and  C_4
REMARK    4  A    between atoms: C_8  and  C_9
REMARK    5  A    between atoms: C_9  and  N_10
REMARK    6  A    between atoms: C_11  and  C_13
REMARK    7  A    between atoms: C_24  and  C_26
REMARK                            x       y       z     vdW  Elec       q    Type
REMARK                         _______ _______ _______ _____ _____    ______ ____
ROOT
ATOM      1  C   UNL     1      50.770   4.697  17.807  0.00  0.00    +0.000 A 
ATOM      2  C   UNL     1      51.519   3.512  17.783  0.00  0.00    +0.000 A 
ATOM      3  C   UNL     1      50.936   2.318  17.364  0.00  0.00    +0.000 A 
ATOM      4  C   UNL     1      49.587   2.289  17.005  0.00  0.00    +0.000 A 
ATOM      5  C   UNL     1      48.809   3.453  17.064  0.00  0.00    +0.000 A 
ATOM      6  C   UNL     1      49.424   4.665  17.410  0.00  0.00    +0.000 A 
ENDROOT
BRANCH   1   7
ATOM      7  C   UNL     1      51.389   5.972  18.322  0.00  0.00    +0.000 C 
BRANCH   7   9
ATOM      8  C   UNL     1      50.904   6.086  20.821  0.00  0.00    +0.000 C 
ATOM      9  N   UNL     1      50.771   6.629  19.477  0.00  0.00    +0.000 N 
ATOM     10  C   UNL     1      50.101   7.862  19.371  0.00  0.00    +0.000 C 
ATOM     11  O   UNL     1      49.720   8.482  20.367  0.00  0.00    +0.000 OA
BRANCH  10  12
ATOM     12  C   UNL     1      49.849   8.485  18.036  0.00  0.00    +0.000 A 
ATOM     13  C   UNL     1      50.804   9.338  17.499  0.00  0.00    +0.000 A 
ATOM     14  N   UNL     1      50.646   9.944  16.291  0.00  0.00    +0.000 NA
ATOM     15  C   UNL     1      49.485   9.670  15.654  0.00  0.00    +0.000 A 
ATOM     16  C   UNL     1      48.526   8.830  16.192  0.00  0.00    +0.000 A 
ATOM     17  N   UNL     1      48.681   8.221  17.388  0.00  0.00    +0.000 NA
ENDBRANCH  10  12
ENDBRANCH   7   9
ENDBRANCH   1   7
BRANCH   5  18
ATOM     18  C   UNL     1      47.326   3.396  16.811  0.00  0.00    +0.000 C 
BRANCH  18  19
ATOM     19  N   UNL     1      46.893   4.403  15.881  0.00  0.00    +0.000 N 
ATOM     20  C   UNL     1      46.910   4.175  14.529  0.00  0.00    +0.000 C 
ATOM     21  O   UNL     1      47.243   3.093  14.051  0.00  0.00    +0.000 OA
ATOM     22  H   UNL     1      46.883   5.360  16.222  0.00  0.00    +0.000 HD
BRANCH  20  23
ATOM     23  C   UNL     1      46.436   5.276  13.684  0.00  0.00    +0.000 A 
ATOM     24  C   UNL     1      47.227   6.403  13.505  0.00  0.00    +0.000 A 
ATOM     25  S   UNL     1      46.552   7.548  12.437  0.00  0.00    +0.000 S 
ATOM     26  C   UNL     1      45.155   6.602  12.219  0.00  0.00    +0.000 A 
ATOM     27  N   UNL     1      44.141   7.022  11.416  0.00  0.00    +0.000 NA
ATOM     28  C   UNL     1      43.131   6.219  11.367  0.00  0.00    +0.000 A 
ATOM     29  N   UNL     1      43.040   5.030  12.047  0.00  0.00    +0.000 N 
ATOM     30  C   UNL     1      44.049   4.557  12.850  0.00  0.00    +0.000 A 
ATOM     31  O   UNL     1      43.947   3.474  13.420  0.00  0.00    +0.000 OA
ATOM     32  C   UNL     1      45.208   5.424  12.942  0.00  0.00    +0.000 A 
ATOM     33  H   UNL     1      42.227   4.448  11.960  0.00  0.00    +0.000 HD
ENDBRANCH  20  23
ENDBRANCH  18  19
ENDBRANCH   5  18
TORSDOF 6
ENDMDL
MODEL 7
REMARK VINA RESULT:    -7.361      1.831      2.166
REMARK INTER + INTRA:         -10.824
REMARK INTER:                  -9.999
REMARK INTRA:                  -0.825
REMARK UNBOUND:                -0.880
REMARK  Name = 
REMARK  7 active torsions:
REMARK  status: ('A' for Active; 'I' for Inactive)
REMARK    1  A    between atoms: C_1  and  N_2
REMARK    2  A    between atoms: N_2  and  C_3
REMARK    3  A    between atoms: C_3  and  C_4
REMARK    4  A    between atoms: C_8  and  C_9
REMARK    5  A    between atoms: C_9  and  N_10
REMARK    6  A    between atoms: C_11  and  C_13
REMARK    7  A    between atoms: C_24  and  C_26
REMARK                            x       y       z     vdW  Elec       q    Type
REMARK                         _______ _______ _______ _____ _____    ______ ____
ROOT
ATOM      1  C   UNL     1      46.182   6.340  12.185  0.00  0.00    +0.000 A 
ATOM      2  C   UNL     1      45.309   7.272  11.605  0.00  0.00    +0.000 A 
ATOM      3  C   UNL     1      45.425   8.627  11.905  0.00  0.00    +0.000 A 
ATOM      4  C   UNL     1      46.388   9.059  12.819  0.00  0.00    +0.000 A 
ATOM      5  C   UNL     1      47.242   8.139  13.443  0.00  0.00    +0.000 A 
ATOM      6  C   UNL     1      47.170   6.788  13.075  0.00  0.00    +0.000 A 
ENDROOT
BRANCH   1   7
ATOM      7  C   UNL     1      46.009   4.868  11.906  0.00  0.00    +0.000 C 
BRANCH   7   9
ATOM      8  C   UNL     1      43.808   4.471  13.128  0.00  0.00    +0.000 C 
ATOM      9  N   UNL     1      44.657   4.303  11.958  0.00  0.00    +0.000 N 
ATOM     10  C   UNL     1      44.072   3.652  10.856  0.00  0.00    +0.000 C 
ATOM     11  O   UNL     1      42.884   3.318  10.855  0.00  0.00    +0.000 OA
BRANCH  10  12
ATOM     12  C   UNL     1      44.868   3.366   9.623  0.00  0.00    +0.000 A 
ATOM     13  C   UNL     1      45.148   4.405   8.745  0.00  0.00    +0.000 A 
ATOM     14  N   UNL     1      45.864   4.223   7.603  0.00  0.00    +0.000 NA
ATOM     15  C   UNL     1      46.272   2.955   7.371  0.00  0.00    +0.000 A 
ATOM     16  C   UNL     1      45.984   1.915   8.238  0.00  0.00    +0.000 A 
ATOM     17  N   UNL     1      45.278   2.092   9.377  0.00  0.00    +0.000 NA
ENDBRANCH  10  12
ENDBRANCH   7   9
ENDBRANCH   1   7
BRANCH   5  18
ATOM     18  C   UNL     1      48.185   8.584  14.528  0.00  0.00    +0.000 C 
BRANCH  18  19
ATOM     19  N   UNL     1      48.046   7.802  15.726  0.00  0.00    +0.000 N 
ATOM     20  C   UNL     1      48.974   6.851  16.064  0.00  0.00    +0.000 C 
ATOM     21  O   UNL     1      49.986   6.656  15.395  0.00  0.00    +0.000 OA
ATOM     22  H   UNL     1      47.114   7.751  16.127  0.00  0.00    +0.000 HD
BRANCH  20  23
ATOM     23  C   UNL     1      48.726   6.125  17.313  0.00  0.00    +0.000 A 
ATOM     24  C   UNL     1      48.936   4.753  17.373  0.00  0.00    +0.000 A 
ATOM     25  S   UNL     1      48.667   4.087  18.919  0.00  0.00    +0.000 S 
ATOM     26  C   UNL     1      48.209   5.600  19.550  0.00  0.00    +0.000 A 
ATOM     27  N   UNL     1      47.831   5.732  20.850  0.00  0.00    +0.000 NA
ATOM     28  C   UNL     1      47.481   6.929  21.184  0.00  0.00    +0.000 A 
ATOM     29  N   UNL     1      47.474   8.010  20.339  0.00  0.00    +0.000 N 
ATOM     30  C   UNL     1      47.869   7.926  19.026  0.00  0.00    +0.000 A 
ATOM     31  O   UNL     1      47.880   8.919  18.304  0.00  0.00    +0.000 OA
ATOM     32  C   UNL     1      48.271   6.600  18.597  0.00  0.00    +0.000 A 
ATOM     33  H   UNL     1      47.196   8.918  20.664  0.00  0.00    +0.000 HD
ENDBRANCH  20  23
ENDBRANCH  18  19
ENDBRANCH   5  18
TORSDOF 6
ENDMDL
MODEL 8
REMARK VINA RESULT:    -7.348      2.988      4.081
REMARK INTER + INTRA:         -10.805
REMARK INTER:                  -9.816
REMARK INTRA:                  -0.989
REMARK UNBOUND:                -0.880
REMARK  Name = 
REMARK  7 active torsions:
REMARK  status: ('A' for Active; 'I' for Inactive)
REMARK    1  A    between atoms: C_1  and  N_2
REMARK    2  A    between atoms: N_2  and  C_3
REMARK    3  A    between atoms: C_3  and  C_4
REMARK    4  A    between atoms: C_8  and  C_9
REMARK    5  A    between atoms: C_9  and  N_10
REMARK    6  A    between atoms: C_11  and  C_13
REMARK    7  A    between atoms: C_24  and  C_26
REMARK                            x       y       z     vdW  Elec       q    Type
REMARK                         _______ _______ _______ _____ _____    ______ ____
ROOT
ATOM      1  C   UNL     1      47.267   5.782  13.795  0.00  0.00    +0.000 A 
ATOM      2  C   UNL     1      46.687   4.626  14.337  0.00  0.00    +0.000 A 
ATOM      3  C   UNL     1      47.050   4.185  15.607  0.00  0.00    +0.000 A 
ATOM      4  C   UNL     1      48.026   4.872  16.332  0.00  0.00    +0.000 A 
ATOM      5  C   UNL     1      48.649   6.004  15.791  0.00  0.00    +0.000 A 
ATOM      6  C   UNL     1      48.221   6.486  14.546  0.00  0.00    +0.000 A 
ENDROOT
BRANCH   1   7
ATOM      7  C   UNL     1      46.918   6.218  12.395  0.00  0.00    +0.000 C 
BRANCH   7   9
ATOM      8  C   UNL     1      45.744   8.450  12.764  0.00  0.00    +0.000 C 
ATOM      9  N   UNL     1      45.765   7.105  12.208  0.00  0.00    +0.000 N 
ATOM     10  C   UNL     1      44.664   6.747  11.409  0.00  0.00    +0.000 C 
ATOM     11  O   UNL     1      43.773   7.555  11.131  0.00  0.00    +0.000 OA
BRANCH  10  12
ATOM     12  C   UNL     1      44.546   5.371  10.837  0.00  0.00    +0.000 A 
ATOM     13  C   UNL     1      43.711   4.452  11.460  0.00  0.00    +0.000 A 
ATOM     14  N   UNL     1      43.552   3.181  11.001  0.00  0.00    +0.000 NA
ATOM     15  C   UNL     1      44.277   2.868   9.903  0.00  0.00    +0.000 A 
ATOM     16  C   UNL     1      45.118   3.778   9.287  0.00  0.00    +0.000 A 
ATOM     17  N   UNL     1      45.274   5.043   9.736  0.00  0.00    +0.000 NA
ENDBRANCH  10  12
ENDBRANCH   7   9
ENDBRANCH   1   7
BRANCH   5  18
ATOM     18  C   UNL     1      49.796   6.663  16.511  0.00  0.00    +0.000 C 
BRANCH  18  19
ATOM     19  N   UNL     1      50.796   5.717  16.923  0.00  0.00    +0.000 N 
ATOM     20  C   UNL     1      50.927   5.352  18.239  0.00  0.00    +0.000 C 
ATOM     21  O   UNL     1      50.173   5.771  19.113  0.00  0.00    +0.000 OA
ATOM     22  H   UNL     1      51.579   5.581  16.291  0.00  0.00    +0.000 HD
BRANCH  20  23
ATOM     23  C   UNL     1      51.979   4.373  18.533  0.00  0.00    +0.000 A 
ATOM     24  C   UNL     1      53.084   4.747  19.288  0.00  0.00    +0.000 A 
ATOM     25  S   UNL     1      54.167   3.466  19.592  0.00  0.00    +0.000 S 
ATOM     26  C   UNL     1      53.225   2.380  18.681  0.00  0.00    +0.000 A 
ATOM     27  N   UNL     1      53.606   1.085  18.521  0.00  0.00    +0.000 NA
ATOM     28  C   UNL     1      52.813   0.384  17.781  0.00  0.00    +0.000 A 
ATOM     29  N   UNL     1      51.671   0.857  17.186  0.00  0.00    +0.000 N 
ATOM     30  C   UNL     1      51.237   2.151  17.340  0.00  0.00    +0.000 A 
ATOM     31  O   UNL     1      50.194   2.534  16.819  0.00  0.00    +0.000 OA
ATOM     32  C   UNL     1      52.094   2.985  18.161  0.00  0.00    +0.000 A 
ATOM     33  H   UNL     1      51.093   0.255  16.627  0.00  0.00    +0.000 HD
ENDBRANCH  20  23
ENDBRANCH  18  19
ENDBRANCH   5  18
TORSDOF 6
ENDMDL
MODEL 9
REMARK VINA RESULT:    -7.132      3.274      9.406
REMARK INTER + INTRA:         -10.514
REMARK INTER:                  -9.497
REMARK INTRA:                  -1.017
REMARK UNBOUND:                -0.880
REMARK  Name = 
REMARK  7 active torsions:
REMARK  status: ('A' for Active; 'I' for Inactive)
REMARK    1  A    between atoms: C_1  and  N_2
REMARK    2  A    between atoms: N_2  and  C_3
REMARK    3  A    between atoms: C_3  and  C_4
REMARK    4  A    between atoms: C_8  and  C_9
REMARK    5  A    between atoms: C_9  and  N_10
REMARK    6  A    between atoms: C_11  and  C_13
REMARK    7  A    between atoms: C_24  and  C_26
REMARK                            x       y       z     vdW  Elec       q    Type
REMARK                         _______ _______ _______ _____ _____    ______ ____
ROOT
ATOM      1  C   UNL     1      50.510   5.301  17.803  0.00  0.00    +0.000 A 
ATOM      2  C   UNL     1      51.377   4.212  17.968  0.00  0.00    +0.000 A 
ATOM      3  C   UNL     1      50.963   2.925  17.634  0.00  0.00    +0.000 A 
ATOM      4  C   UNL     1      49.663   2.709  17.171  0.00  0.00    +0.000 A 
ATOM      5  C   UNL     1      48.767   3.778  17.039  0.00  0.00    +0.000 A 
ATOM      6  C   UNL     1      49.218   5.079  17.302  0.00  0.00    +0.000 A 
ENDROOT
BRANCH   1   7
ATOM      7  C   UNL     1      50.942   6.682  18.226  0.00  0.00    +0.000 C 
BRANCH   7   9
ATOM      8  C   UNL     1      53.272   7.073  19.184  0.00  0.00    +0.000 C 
ATOM      9  N   UNL     1      51.853   6.808  19.369  0.00  0.00    +0.000 N 
ATOM     10  C   UNL     1      51.397   6.774  20.700  0.00  0.00    +0.000 C 
ATOM     11  O   UNL     1      52.143   7.033  21.648  0.00  0.00    +0.000 OA
BRANCH  10  12
ATOM     12  C   UNL     1      49.973   6.446  21.015  0.00  0.00    +0.000 A 
ATOM     13  C   UNL     1      49.051   7.480  21.118  0.00  0.00    +0.000 A 
ATOM     14  N   UNL     1      47.739   7.262  21.403  0.00  0.00    +0.000 NA
ATOM     15  C   UNL     1      47.395   5.969  21.595  0.00  0.00    +0.000 A 
ATOM     16  C   UNL     1      48.314   4.938  21.505  0.00  0.00    +0.000 A 
ATOM     17  N   UNL     1      49.617   5.149  21.216  0.00  0.00    +0.000 NA
ENDBRANCH  10  12
ENDBRANCH   7   9
ENDBRANCH   1   7
BRANCH   5  18
ATOM     18  C   UNL     1      47.328   3.529  16.672  0.00  0.00    +0.000 C 
BRANCH  18  19
ATOM     19  N   UNL     1      46.831   4.494  15.731  0.00  0.00    +0.000 N 
ATOM     20  C   UNL     1      46.824   4.233  14.384  0.00  0.00    +0.000 C 
ATOM     21  O   UNL     1      47.190   3.155  13.924  0.00  0.00    +0.000 OA
ATOM     22  H   UNL     1      46.790   5.458  16.049  0.00  0.00    +0.000 HD
BRANCH  20  23
ATOM     23  C   UNL     1      46.285   5.293  13.526  0.00  0.00    +0.000 A 
ATOM     24  C   UNL     1      47.044   6.425  13.261  0.00  0.00    +0.000 A 
ATOM     25  S   UNL     1      46.291   7.517  12.190  0.00  0.00    +0.000 S 
ATOM     26  C   UNL     1      44.902   6.540  12.085  0.00  0.00    +0.000 A 
ATOM     27  N   UNL     1      43.838   6.913  11.323  0.00  0.00    +0.000 NA
ATOM     28  C   UNL     1      42.842   6.092  11.360  0.00  0.00    +0.000 A 
ATOM     29  N   UNL     1      42.810   4.929  12.088  0.00  0.00    +0.000 N 
ATOM     30  C   UNL     1      43.870   4.504  12.852  0.00  0.00    +0.000 A 
ATOM     31  O   UNL     1      43.819   3.442  13.467  0.00  0.00    +0.000 OA
ATOM     32  C   UNL     1      45.016   5.392  12.848  0.00  0.00    +0.000 A 
ATOM     33  H   UNL     1      42.005   4.330  12.068  0.00  0.00    +0.000 HD
ENDBRANCH  20  23
ENDBRANCH  18  19
ENDBRANCH   5  18
TORSDOF 6
ENDMDL
