MODEL 1
REMARK VINA RESULT:    -8.086      0.000      0.000
REMARK INTER + INTRA:         -12.881
REMARK INTER:                 -11.867
REMARK INTRA:                  -1.014
REMARK UNBOUND:                -1.014
REMARK  Name = 
REMARK  10 active torsions:
REMARK  status: ('A' for Active; 'I' for Inactive)
REMARK    1  A    between atoms: C_1  and  C_2
REMARK    2  A    between atoms: C_2  and  O_3
REMARK    3  A    between atoms: O_3  and  C_4
REMARK    4  A    between atoms: C_6  and  C_7
REMARK    5  A    between atoms: C_7  and  C_8
REMARK    6  A    between atoms: C_8  and  N_9
REMARK    7  A    between atoms: C_13  and  C_14
REMARK    8  A    between atoms: C_20  and  C_21
REMARK    9  A    between atoms: C_25  and  O_26
REMARK   10  A    between atoms: O_26  and  C_27
REMARK                            x       y       z     vdW  Elec       q    Type
REMARK                         _______ _______ _______ _____ _____    ______ ____
ROOT
ATOM      1  C   UNL     1      46.850   4.530  13.869  0.00  0.00    +0.000 A 
ATOM      2  C   UNL     1      45.497   4.457  13.557  0.00  0.00    +0.000 A 
ATOM      3  C   UNL     1      44.936   5.460  12.763  0.00  0.00    +0.000 A 
ATOM      4  C   UNL     1      45.784   6.499  12.361  0.00  0.00    +0.000 A 
ATOM      5  C   UNL     1      47.127   6.520  12.738  0.00  0.00    +0.000 A 
ATOM      6  N   UNL     1      47.664   5.541  13.497  0.00  0.00    +0.000 NA
ENDROOT
BRANCH   5   7
ATOM      7  C   UNL     1      48.031   7.606  12.330  0.00  0.00    +0.000 A 
ATOM      8  C   UNL     1      47.587   8.924  12.245  0.00  0.00    +0.000 A 
ATOM      9  N   UNL     1      48.352   9.973  11.854  0.00  0.00    +0.000 NA
ATOM     10  C   UNL     1      49.636   9.694  11.531  0.00  0.00    +0.000 A 
ATOM     11  C   UNL     1      50.200   8.427  11.579  0.00  0.00    +0.000 A 
ATOM     12  C   UNL     1      49.379   7.379  11.991  0.00  0.00    +0.000 A 
BRANCH  11  13
ATOM     13  O   UNL     1      51.512   8.325  11.217  0.00  0.00    +0.000 OA
ATOM     14  C   UNL     1      51.852   7.277  10.317  0.00  0.00    +0.000 C 
ENDBRANCH  11  13
ENDBRANCH   5   7
BRANCH   1  15
ATOM     15  O   UNL     1      47.374   3.488  14.609  0.00  0.00    +0.000 OA
BRANCH  15  17
ATOM     16  C   UNL     1      48.328   2.725  16.657  0.00  0.00    +0.000 C 
ATOM     17  C   UNL     1      47.508   3.818  15.997  0.00  0.00    +0.000 C 
ENDBRANCH  15  17
ENDBRANCH   1  15
BRANCH   3  18
ATOM     18  C   UNL     1      43.472   5.405  12.353  0.00  0.00    +0.000 C 
BRANCH  18  19
ATOM     19  C   UNL     1      43.210   4.601  11.065  0.00  0.00    +0.000 C 
BRANCH  19  20
ATOM     20  N   UNL     1      43.963   5.087   9.906  0.00  0.00    +0.000 N 
ATOM     21  C   UNL     1      44.706   4.045   9.296  0.00  0.00    +0.000 A 
ATOM     22  C   UNL     1      45.509   4.313   8.175  0.00  0.00    +0.000 A 
ATOM     23  N   UNL     1      46.271   3.382   7.536  0.00  0.00    +0.000 NA
ATOM     24  C   UNL     1      46.188   2.128   8.062  0.00  0.00    +0.000 A 
ATOM     25  C   UNL     1      45.386   1.840   9.152  0.00  0.00    +0.000 A 
ATOM     26  N   UNL     1      44.634   2.782   9.776  0.00  0.00    +0.000 NA
ATOM     27  H   UNL     1      44.607   5.834  10.157  0.00  0.00    +0.000 HD
BRANCH  24  28
ATOM     28  C   UNL     1      47.001   1.044   7.445  0.00  0.00    +0.000 C 
ATOM     29  N   UNL     1      47.996   1.437   6.596  0.00  0.00    +0.000 N 
ATOM     30  O   UNL     1      46.798  -0.139   7.692  0.00  0.00    +0.000 OA
ATOM     31  H   UNL     1      48.152   2.419   6.404  0.00  0.00    +0.000 HD
ATOM     32  H   UNL     1      48.580   0.734   6.161  0.00  0.00    +0.000 HD
ENDBRANCH  24  28
ENDBRANCH  19  20
ENDBRANCH  18  19
ENDBRANCH   3  18
TORSDOF 8
ENDMDL
MODEL 2
REMARK VINA RESULT:    -7.633      1.414      1.997
REMARK INTER + INTRA:         -12.217
REMARK INTER:                 -11.142
REMARK INTRA:                  -1.075
REMARK UNBOUND:                -1.014
REMARK  Name = 
REMARK  10 active torsions:
REMARK  status: ('A' for Active; 'I' for Inactive)
REMARK    1  A    between atoms: C_1  and  C_2
REMARK    2  A    between atoms: C_2  and  O_3
REMARK    3  A    between atoms: O_3  and  C_4
REMARK    4  A    between atoms: C_6  and  C_7
REMARK    5  A    between atoms: C_7  and  C_8
REMARK    6  A    between atoms: C_8  and  N_9
REMARK    7  A    between atoms: C_13  and  C_14
REMARK    8  A    between atoms: C_20  and  C_21
REMARK    9  A    between atoms: C_25  and  O_26
REMARK   10  A    between atoms: O_26  and  C_27
REMARK                            x       y       z     vdW  Elec       q    Type
REMARK                         _______ _______ _______ _____ _____    ______ ____
ROOT
ATOM      1  C   UNL     1      46.991   4.676  13.795  0.00  0.00    +0.000 A 
ATOM      2  C   UNL     1      45.670   4.618  13.362  0.00  0.00    +0.000 A 
ATOM      3  C   UNL     1      45.224   5.566  12.439  0.00  0.00    +0.000 A 
ATOM      4  C   UNL     1      46.144   6.541  12.036  0.00  0.00    +0.000 A 
ATOM      5  C   UNL     1      47.447   6.553  12.536  0.00  0.00    +0.000 A 
ATOM      6  N   UNL     1      47.873   5.627  13.421  0.00  0.00    +0.000 NA
ENDROOT
BRANCH   5   7
ATOM      7  C   UNL     1      48.425   7.573  12.129  0.00  0.00    +0.000 A 
ATOM      8  C   UNL     1      49.773   7.261  11.968  0.00  0.00    +0.000 A 
ATOM      9  N   UNL     1      50.736   8.150  11.622  0.00  0.00    +0.000 NA
ATOM     10  C   UNL     1      50.333   9.425  11.420  0.00  0.00    +0.000 A 
ATOM     11  C   UNL     1      49.022   9.863  11.544  0.00  0.00    +0.000 A 
ATOM     12  C   UNL     1      48.064   8.915  11.897  0.00  0.00    +0.000 A 
BRANCH  11  13
ATOM     13  O   UNL     1      48.792  11.187  11.305  0.00  0.00    +0.000 OA
ATOM     14  C   UNL     1      47.481  11.548  10.886  0.00  0.00    +0.000 C 
ENDBRANCH  11  13
ENDBRANCH   5   7
BRANCH   1  15
ATOM     15  O   UNL     1      47.404   3.685  14.664  0.00  0.00    +0.000 OA
BRANCH  15  17
ATOM     16  C   UNL     1      48.423   3.775  16.818  0.00  0.00    +0.000 C 
ATOM     17  C   UNL     1      47.147   4.019  16.033  0.00  0.00    +0.000 C 
ENDBRANCH  15  17
ENDBRANCH   1  15
BRANCH   3  18
ATOM     18  C   UNL     1      43.803   5.521  11.897  0.00  0.00    +0.000 C 
BRANCH  18  19
ATOM     19  C   UNL     1      43.691   4.940  10.475  0.00  0.00    +0.000 C 
BRANCH  19  20
ATOM     20  N   UNL     1      43.826   3.482  10.424  0.00  0.00    +0.000 N 
ATOM     21  C   UNL     1      44.778   3.082   9.451  0.00  0.00    +0.000 A 
ATOM     22  C   UNL     1      45.039   1.719   9.238  0.00  0.00    +0.000 A 
ATOM     23  N   UNL     1      45.919   1.242   8.315  0.00  0.00    +0.000 NA
ATOM     24  C   UNL     1      46.563   2.205   7.598  0.00  0.00    +0.000 A 
ATOM     25  C   UNL     1      46.335   3.554   7.809  0.00  0.00    +0.000 A 
ATOM     26  N   UNL     1      45.453   4.010   8.735  0.00  0.00    +0.000 NA
ATOM     27  H   UNL     1      42.942   3.026  10.212  0.00  0.00    +0.000 HD
BRANCH  24  28
ATOM     28  C   UNL     1      47.531   1.783   6.550  0.00  0.00    +0.000 C 
ATOM     29  N   UNL     1      48.618   2.589   6.364  0.00  0.00    +0.000 N 
ATOM     30  O   UNL     1      47.372   0.760   5.893  0.00  0.00    +0.000 OA
ATOM     31  H   UNL     1      48.737   3.430   6.916  0.00  0.00    +0.000 HD
ATOM     32  H   UNL     1      49.308   2.336   5.668  0.00  0.00    +0.000 HD
ENDBRANCH  24  28
ENDBRANCH  19  20
ENDBRANCH  18  19
ENDBRANCH   3  18
TORSDOF 8
ENDMDL
MODEL 3
REMARK VINA RESULT:    -7.293      2.007      4.600
REMARK INTER + INTRA:         -11.718
REMARK INTER:                 -10.689
REMARK INTRA:                  -1.029
REMARK UNBOUND:                -1.014
REMARK  Name = 
REMARK  10 active torsions:
REMARK  status: ('A' for Active; 'I' for Inactive)
REMARK    1  A    between atoms: C_1  and  C_2
REMARK    2  A    between atoms: C_2  and  O_3
REMARK    3  A    between atoms: O_3  and  C_4
REMARK    4  A    between atoms: C_6  and  C_7
REMARK    5  A    between atoms: C_7  and  C_8
REMARK    6  A    between atoms: C_8  and  N_9
REMARK    7  A    between atoms: C_13  and  C_14
REMARK    8  A    between atoms: C_20  and  C_21
REMARK    9  A    between atoms: C_25  and  O_26
REMARK   10  A    between atoms: O_26  and  C_27
REMARK                            x       y       z     vdW  Elec       q    Type
REMARK                         _______ _______ _______ _____ _____    ______ ____
ROOT
ATOM      1  C   UNL     1      47.414   6.582  12.146  0.00  0.00    +0.000 A 
ATOM      2  C   UNL     1      46.138   6.311  11.663  0.00  0.00    +0.000 A 
ATOM      3  C   UNL     1      45.274   5.539  12.443  0.00  0.00    +0.000 A 
ATOM      4  C   UNL     1      45.776   5.060  13.659  0.00  0.00    +0.000 A 
ATOM      5  C   UNL     1      47.079   5.349  14.065  0.00  0.00    +0.000 A 
ATOM      6  N   UNL     1      47.905   6.104  13.310  0.00  0.00    +0.000 NA
ENDROOT
BRANCH   5   7
ATOM      7  C   UNL     1      47.625   4.848  15.336  0.00  0.00    +0.000 A 
ATOM      8  C   UNL     1      47.340   3.562  15.790  0.00  0.00    +0.000 A 
ATOM      9  N   UNL     1      47.784   3.040  16.960  0.00  0.00    +0.000 NA
ATOM     10  C   UNL     1      48.561   3.844  17.721  0.00  0.00    +0.000 A 
ATOM     11  C   UNL     1      48.921   5.140  17.379  0.00  0.00    +0.000 A 
ATOM     12  C   UNL     1      48.446   5.635  16.167  0.00  0.00    +0.000 A 
BRANCH  11  13
ATOM     13  O   UNL     1      49.712   5.812  18.267  0.00  0.00    +0.000 OA
ATOM     14  C   UNL     1      49.166   6.057  19.558  0.00  0.00    +0.000 C 
ENDBRANCH  11  13
ENDBRANCH   5   7
BRANCH   1  15
ATOM     15  O   UNL     1      48.214   7.395  11.367  0.00  0.00    +0.000 OA
BRANCH  15  17
ATOM     16  C   UNL     1      49.779   9.021  12.136  0.00  0.00    +0.000 C 
ATOM     17  C   UNL     1      49.533   7.541  11.908  0.00  0.00    +0.000 C 
ENDBRANCH  15  17
ENDBRANCH   1  15
BRANCH   3  18
ATOM     18  C   UNL     1      43.853   5.252  11.984  0.00  0.00    +0.000 C 
BRANCH  18  19
ATOM     19  C   UNL     1      43.752   4.749  10.531  0.00  0.00    +0.000 C 
BRANCH  19  20
ATOM     20  N   UNL     1      43.967   3.306  10.392  0.00  0.00    +0.000 N 
ATOM     21  C   UNL     1      44.890   3.017   9.355  0.00  0.00    +0.000 A 
ATOM     22  C   UNL     1      45.218   1.685   9.055  0.00  0.00    +0.000 A 
ATOM     23  N   UNL     1      46.077   1.311   8.066  0.00  0.00    +0.000 NA
ATOM     24  C   UNL     1      46.627   2.348   7.374  0.00  0.00    +0.000 A 
ATOM     25  C   UNL     1      46.333   3.667   7.671  0.00  0.00    +0.000 A 
ATOM     26  N   UNL     1      45.474   4.021   8.661  0.00  0.00    +0.000 NA
ATOM     27  H   UNL     1      43.101   2.810  10.197  0.00  0.00    +0.000 HD
BRANCH  24  28
ATOM     28  C   UNL     1      47.564   2.040   6.260  0.00  0.00    +0.000 C 
ATOM     29  N   UNL     1      48.756   2.708   6.265  0.00  0.00    +0.000 N 
ATOM     30  O   UNL     1      47.290   1.224   5.387  0.00  0.00    +0.000 OA
ATOM     31  H   UNL     1      48.969   3.377   6.994  0.00  0.00    +0.000 HD
ATOM     32  H   UNL     1      49.429   2.523   5.531  0.00  0.00    +0.000 HD
ENDBRANCH  24  28
ENDBRANCH  19  20
ENDBRANCH  18  19
ENDBRANCH   3  18
TORSDOF 8
ENDMDL
MODEL 4
REMARK VINA RESULT:    -7.088      3.263      7.994
REMARK INTER + INTRA:         -11.418
REMARK INTER:                 -10.365
REMARK INTRA:                  -1.053
REMARK UNBOUND:                -1.014
REMARK  Name = 
REMARK  10 active torsions:
REMARK  status: ('A' for Active; 'I' for Inactive)
REMARK    1  A    between atoms: C_1  and  C_2
REMARK    2  A    between atoms: C_2  and  O_3
REMARK    3  A    between atoms: O_3  and  C_4
REMARK    4  A    between atoms: C_6  and  C_7
REMARK    5  A    between atoms: C_7  and  C_8
REMARK    6  A    between atoms: C_8  and  N_9
REMARK    7  A    between atoms: C_13  and  C_14
REMARK    8  A    between atoms: C_20  and  C_21
REMARK    9  A    between atoms: C_25  and  O_26
REMARK   10  A    between atoms: O_26  and  C_27
REMARK                            x       y       z     vdW  Elec       q    Type
REMARK                         _______ _______ _______ _____ _____    ______ ____
ROOT
ATOM      1  C   UNL     1      44.602   9.166  11.297  0.00  0.00    +0.000 A 
ATOM      2  C   UNL     1      45.730   9.603  11.984  0.00  0.00    +0.000 A 
ATOM      3  C   UNL     1      46.520   8.660  12.646  0.00  0.00    +0.000 A 
ATOM      4  C   UNL     1      46.093   7.328  12.595  0.00  0.00    +0.000 A 
ATOM      5  C   UNL     1      44.933   6.968  11.909  0.00  0.00    +0.000 A 
ATOM      6  N   UNL     1      44.180   7.884  11.263  0.00  0.00    +0.000 NA
ENDROOT
BRANCH   5   7
ATOM      7  C   UNL     1      44.465   5.575  11.851  0.00  0.00    +0.000 A 
ATOM      8  C   UNL     1      44.038   4.906  12.996  0.00  0.00    +0.000 A 
ATOM      9  N   UNL     1      43.619   3.617  13.027  0.00  0.00    +0.000 NA
ATOM     10  C   UNL     1      43.622   2.956  11.847  0.00  0.00    +0.000 A 
ATOM     11  C   UNL     1      44.018   3.509  10.638  0.00  0.00    +0.000 A 
ATOM     12  C   UNL     1      44.437   4.837  10.652  0.00  0.00    +0.000 A 
BRANCH  11  13
ATOM     13  O   UNL     1      43.959   2.696   9.542  0.00  0.00    +0.000 OA
ATOM     14  C   UNL     1      45.171   2.069   9.140  0.00  0.00    +0.000 C 
ENDBRANCH  11  13
ENDBRANCH   5   7
BRANCH   1  15
ATOM     15  O   UNL     1      43.883  10.125  10.610  0.00  0.00    +0.000 OA
BRANCH  15  17
ATOM     16  C   UNL     1      41.511  10.367  10.660  0.00  0.00    +0.000 C 
ATOM     17  C   UNL     1      42.808  10.662  11.391  0.00  0.00    +0.000 C 
ENDBRANCH  15  17
ENDBRANCH   1  15
BRANCH   3  18
ATOM     18  C   UNL     1      47.789   9.077  13.374  0.00  0.00    +0.000 C 
BRANCH  18  19
ATOM     19  C   UNL     1      48.795   7.930  13.590  0.00  0.00    +0.000 C 
BRANCH  19  20
ATOM     20  N   UNL     1      49.349   7.883  14.946  0.00  0.00    +0.000 N 
ATOM     21  C   UNL     1      48.904   6.733  15.648  0.00  0.00    +0.000 A 
ATOM     22  C   UNL     1      49.314   6.514  16.973  0.00  0.00    +0.000 A 
ATOM     23  N   UNL     1      48.924   5.451  17.731  0.00  0.00    +0.000 NA
ATOM     24  C   UNL     1      48.096   4.577  17.093  0.00  0.00    +0.000 A 
ATOM     25  C   UNL     1      47.700   4.764  15.781  0.00  0.00    +0.000 A 
ATOM     26  N   UNL     1      48.099   5.831  15.041  0.00  0.00    +0.000 NA
ATOM     27  H   UNL     1      49.097   8.705  15.489  0.00  0.00    +0.000 HD
BRANCH  24  28
ATOM     28  C   UNL     1      47.599   3.392  17.845  0.00  0.00    +0.000 C 
ATOM     29  N   UNL     1      48.334   3.008  18.930  0.00  0.00    +0.000 N 
ATOM     30  O   UNL     1      46.579   2.798  17.518  0.00  0.00    +0.000 OA
ATOM     31  H   UNL     1      49.174   3.511  19.189  0.00  0.00    +0.000 HD
ATOM     32  H   UNL     1      48.028   2.213  19.477  0.00  0.00    +0.000 HD
ENDBRANCH  24  28
ENDBRANCH  19  20
ENDBRANCH  18  19
ENDBRANCH   3  18
TORSDOF 8
ENDMDL
MODEL 5
REMARK VINA RESULT:    -6.726      2.439      3.642
REMARK INTER + INTRA:         -10.885
REMARK INTER:                  -9.918
REMARK INTRA:                  -0.968
REMARK UNBOUND:                -1.014
REMARK  Name = 
REMARK  10 active torsions:
REMARK  status: ('A' for Active; 'I' for Inactive)
REMARK    1  A    between atoms: C_1  and  C_2
REMARK    2  A    between atoms: C_2  and  O_3
REMARK    3  A    between atoms: O_3  and  C_4
REMARK    4  A    between atoms: C_6  and  C_7
REMARK    5  A    between atoms: C_7  and  C_8
REMARK    6  A    between atoms: C_8  and  N_9
REMARK    7  A    between atoms: C_13  and  C_14
REMARK    8  A    between atoms: C_20  and  C_21
REMARK    9  A    between atoms: C_25  and  O_26
REMARK   10  A    between atoms: O_26  and  C_27
REMARK                            x       y       z     vdW  Elec       q    Type
REMARK                         _______ _______ _______ _____ _____    ______ ____
ROOT
ATOM      1  C   UNL     1      44.657   7.746  11.491  0.00  0.00    +0.000 A 
ATOM      2  C   UNL     1      44.085   6.482  11.586  0.00  0.00    +0.000 A 
ATOM      3  C   UNL     1      44.848   5.437  12.114  0.00  0.00    +0.000 A 
ATOM      4  C   UNL     1      46.164   5.739  12.485  0.00  0.00    +0.000 A 
ATOM      5  C   UNL     1      46.679   7.026  12.334  0.00  0.00    +0.000 A 
ATOM      6  N   UNL     1      45.932   8.033  11.832  0.00  0.00    +0.000 NA
ENDROOT
BRANCH   5   7
ATOM      7  C   UNL     1      48.061   7.359  12.712  0.00  0.00    +0.000 A 
ATOM      8  C   UNL     1      48.460   7.387  14.047  0.00  0.00    +0.000 A 
ATOM      9  N   UNL     1      49.706   7.709  14.474  0.00  0.00    +0.000 NA
ATOM     10  C   UNL     1      50.609   8.018  13.516  0.00  0.00    +0.000 A 
ATOM     11  C   UNL     1      50.338   8.023  12.154  0.00  0.00    +0.000 A 
ATOM     12  C   UNL     1      49.047   7.682  11.760  0.00  0.00    +0.000 A 
BRANCH  11  13
ATOM     13  O   UNL     1      51.369   8.363  11.325  0.00  0.00    +0.000 OA
ATOM     14  C   UNL     1      51.774   7.389  10.371  0.00  0.00    +0.000 C 
ENDBRANCH  11  13
ENDBRANCH   5   7
BRANCH   1  15
ATOM     15  O   UNL     1      43.848   8.760  11.016  0.00  0.00    +0.000 OA
BRANCH  15  17
ATOM     16  C   UNL     1      43.285  11.065  11.249  0.00  0.00    +0.000 C 
ATOM     17  C   UNL     1      44.420  10.057  11.227  0.00  0.00    +0.000 C 
ENDBRANCH  15  17
ENDBRANCH   1  15
BRANCH   3  18
ATOM     18  C   UNL     1      44.257   4.046  12.283  0.00  0.00    +0.000 C 
BRANCH  18  19
ATOM     19  C   UNL     1      43.543   3.510  11.027  0.00  0.00    +0.000 C 
BRANCH  19  20
ATOM     20  N   UNL     1      44.073   2.229  10.552  0.00  0.00    +0.000 N 
ATOM     21  C   UNL     1      44.922   2.405   9.429  0.00  0.00    +0.000 A 
ATOM     22  C   UNL     1      45.518   1.291   8.816  0.00  0.00    +0.000 A 
ATOM     23  N   UNL     1      46.330   1.360   7.724  0.00  0.00    +0.000 NA
ATOM     24  C   UNL     1      46.547   2.622   7.260  0.00  0.00    +0.000 A 
ATOM     25  C   UNL     1      45.986   3.734   7.865  0.00  0.00    +0.000 A 
ATOM     26  N   UNL     1      45.178   3.645   8.953  0.00  0.00    +0.000 NA
ATOM     27  H   UNL     1      43.331   1.583  10.294  0.00  0.00    +0.000 HD
BRANCH  24  28
ATOM     28  C   UNL     1      47.405   2.800   6.058  0.00  0.00    +0.000 C 
ATOM     29  N   UNL     1      48.725   2.478   6.199  0.00  0.00    +0.000 N 
ATOM     30  O   UNL     1      46.954   3.204   4.992  0.00  0.00    +0.000 OA
ATOM     31  H   UNL     1      49.082   2.143   7.086  0.00  0.00    +0.000 HD
ATOM     32  H   UNL     1      49.345   2.574   5.404  0.00  0.00    +0.000 HD
ENDBRANCH  24  28
ENDBRANCH  19  20
ENDBRANCH  18  19
ENDBRANCH   3  18
TORSDOF 8
ENDMDL
MODEL 6
REMARK VINA RESULT:    -6.548      2.683      4.296
REMARK INTER + INTRA:         -10.625
REMARK INTER:                  -9.795
REMARK INTRA:                  -0.830
REMARK UNBOUND:                -1.014
REMARK  Name = 
REMARK  10 active torsions:
REMARK  status: ('A' for Active; 'I' for Inactive)
REMARK    1  A    between atoms: C_1  and  C_2
REMARK    2  A    between atoms: C_2  and  O_3
REMARK    3  A    between atoms: O_3  and  C_4
REMARK    4  A    between atoms: C_6  and  C_7
REMARK    5  A    between atoms: C_7  and  C_8
REMARK    6  A    between atoms: C_8  and  N_9
REMARK    7  A    between atoms: C_13  and  C_14
REMARK    8  A    between atoms: C_20  and  C_21
REMARK    9  A    between atoms: C_25  and  O_26
REMARK   10  A    between atoms: O_26  and  C_27
REMARK                            x       y       z     vdW  Elec       q    Type
REMARK                         _______ _______ _______ _____ _____    ______ ____
ROOT
ATOM      1  C   UNL     1      44.764   9.290  11.565  0.00  0.00    +0.000 A 
ATOM      2  C   UNL     1      43.967   8.162  11.401  0.00  0.00    +0.000 A 
ATOM      3  C   UNL     1      44.470   6.920  11.794  0.00  0.00    +0.000 A 
ATOM      4  C   UNL     1      45.775   6.897  12.302  0.00  0.00    +0.000 A 
ATOM      5  C   UNL     1      46.527   8.067  12.410  0.00  0.00    +0.000 A 
ATOM      6  N   UNL     1      46.029   9.266  12.037  0.00  0.00    +0.000 NA
ENDROOT
BRANCH   5   7
ATOM      7  C   UNL     1      47.901   8.061  12.934  0.00  0.00    +0.000 A 
ATOM      8  C   UNL     1      48.905   8.826  12.343  0.00  0.00    +0.000 A 
ATOM      9  N   UNL     1      50.198   8.853  12.752  0.00  0.00    +0.000 NA
ATOM     10  C   UNL     1      50.508   8.075  13.814  0.00  0.00    +0.000 A 
ATOM     11  C   UNL     1      49.601   7.273  14.492  0.00  0.00    +0.000 A 
ATOM     12  C   UNL     1      48.283   7.279  14.041  0.00  0.00    +0.000 A 
BRANCH  11  13
ATOM     13  O   UNL     1      50.087   6.550  15.544  0.00  0.00    +0.000 OA
ATOM     14  C   UNL     1      49.192   6.300  16.621  0.00  0.00    +0.000 C 
ENDBRANCH  11  13
ENDBRANCH   5   7
BRANCH   1  15
ATOM     15  O   UNL     1      44.205  10.503  11.215  0.00  0.00    +0.000 OA
BRANCH  15  17
ATOM     16  C   UNL     1      43.009  10.781   9.171  0.00  0.00    +0.000 C 
ATOM     17  C   UNL     1      44.378  10.803   9.825  0.00  0.00    +0.000 C 
ENDBRANCH  15  17
ENDBRANCH   1  15
BRANCH   3  18
ATOM     18  C   UNL     1      43.623   5.662  11.681  0.00  0.00    +0.000 C 
BRANCH  18  19
ATOM     19  C   UNL     1      43.629   5.025  10.278  0.00  0.00    +0.000 C 
BRANCH  19  20
ATOM     20  N   UNL     1      43.840   3.575  10.292  0.00  0.00    +0.000 N 
ATOM     21  C   UNL     1      44.812   3.183   9.336  0.00  0.00    +0.000 A 
ATOM     22  C   UNL     1      45.146   1.827   9.185  0.00  0.00    +0.000 A 
ATOM     23  N   UNL     1      46.050   1.356   8.282  0.00  0.00    +0.000 NA
ATOM     24  C   UNL     1      46.642   2.318   7.522  0.00  0.00    +0.000 A 
ATOM     25  C   UNL     1      46.344   3.661   7.672  0.00  0.00    +0.000 A 
ATOM     26  N   UNL     1      45.438   4.112   8.578  0.00  0.00    +0.000 NA
ATOM     27  H   UNL     1      42.982   3.063  10.103  0.00  0.00    +0.000 HD
BRANCH  24  28
ATOM     28  C   UNL     1      47.632   1.901   6.491  0.00  0.00    +0.000 C 
ATOM     29  N   UNL     1      48.702   2.729   6.303  0.00  0.00    +0.000 N 
ATOM     30  O   UNL     1      47.504   0.864   5.850  0.00  0.00    +0.000 OA
ATOM     31  H   UNL     1      48.794   3.582   6.842  0.00  0.00    +0.000 HD
ATOM     32  H   UNL     1      49.405   2.481   5.620  0.00  0.00    +0.000 HD
ENDBRANCH  24  28
ENDBRANCH  19  20
ENDBRANCH  18  19
ENDBRANCH   3  18
TORSDOF 8
ENDMDL
MODEL 7
REMARK VINA RESULT:    -6.488      3.576      7.096
REMARK INTER + INTRA:         -10.536
REMARK INTER:                  -9.411
REMARK INTRA:                  -1.125
REMARK UNBOUND:                -1.014
REMARK  Name = 
REMARK  10 active torsions:
REMARK  status: ('A' for Active; 'I' for Inactive)
REMARK    1  A    between atoms: C_1  and  C_2
REMARK    2  A    between atoms: C_2  and  O_3
REMARK    3  A    between atoms: O_3  and  C_4
REMARK    4  A    between atoms: C_6  and  C_7
REMARK    5  A    between atoms: C_7  and  C_8
REMARK    6  A    between atoms: C_8  and  N_9
REMARK    7  A    between atoms: C_13  and  C_14
REMARK    8  A    between atoms: C_20  and  C_21
REMARK    9  A    between atoms: C_25  and  O_26
REMARK   10  A    between atoms: O_26  and  C_27
REMARK                            x       y       z     vdW  Elec       q    Type
REMARK                         _______ _______ _______ _____ _____    ______ ____
ROOT
ATOM      1  C   UNL     1      48.085   5.815  14.945  0.00  0.00    +0.000 A 
ATOM      2  C   UNL     1      48.513   7.099  14.625  0.00  0.00    +0.000 A 
ATOM      3  C   UNL     1      47.884   7.776  13.578  0.00  0.00    +0.000 A 
ATOM      4  C   UNL     1      46.875   7.088  12.894  0.00  0.00    +0.000 A 
ATOM      5  C   UNL     1      46.518   5.788  13.254  0.00  0.00    +0.000 A 
ATOM      6  N   UNL     1      47.124   5.144  14.274  0.00  0.00    +0.000 NA
ENDROOT
BRANCH   5   7
ATOM      7  C   UNL     1      45.465   5.047  12.543  0.00  0.00    +0.000 A 
ATOM      8  C   UNL     1      44.626   4.158  13.213  0.00  0.00    +0.000 A 
ATOM      9  N   UNL     1      43.652   3.422  12.623  0.00  0.00    +0.000 NA
ATOM     10  C   UNL     1      43.502   3.582  11.288  0.00  0.00    +0.000 A 
ATOM     11  C   UNL     1      44.269   4.437  10.509  0.00  0.00    +0.000 A 
ATOM     12  C   UNL     1      45.255   5.177  11.156  0.00  0.00    +0.000 A 
BRANCH  11  13
ATOM     13  O   UNL     1      43.983   4.473   9.174  0.00  0.00    +0.000 OA
ATOM     14  C   UNL     1      44.908   3.836   8.300  0.00  0.00    +0.000 C 
ENDBRANCH  11  13
ENDBRANCH   5   7
BRANCH   1  15
ATOM     15  O   UNL     1      48.697   5.206  16.023  0.00  0.00    +0.000 OA
BRANCH  15  17
ATOM     16  C   UNL     1      48.741   3.444  17.629  0.00  0.00    +0.000 C 
ATOM     17  C   UNL     1      47.912   4.135  16.562  0.00  0.00    +0.000 C 
ENDBRANCH  15  17
ENDBRANCH   1  15
BRANCH   3  18
ATOM     18  C   UNL     1      48.281   9.200  13.217  0.00  0.00    +0.000 C 
BRANCH  18  19
ATOM     19  C   UNL     1      47.662   9.710  11.902  0.00  0.00    +0.000 C 
BRANCH  19  20
ATOM     20  N   UNL     1      46.956  10.986  12.042  0.00  0.00    +0.000 N 
ATOM     21  C   UNL     1      45.578  10.853  11.732  0.00  0.00    +0.000 A 
ATOM     22  C   UNL     1      44.730  11.970  11.792  0.00  0.00    +0.000 A 
ATOM     23  N   UNL     1      43.401  11.942  11.494  0.00  0.00    +0.000 NA
ATOM     24  C   UNL     1      42.929  10.716  11.138  0.00  0.00    +0.000 A 
ATOM     25  C   UNL     1      43.744   9.598  11.095  0.00  0.00    +0.000 A 
ATOM     26  N   UNL     1      45.067   9.646  11.395  0.00  0.00    +0.000 NA
ATOM     27  H   UNL     1      47.350  11.707  11.442  0.00  0.00    +0.000 HD
BRANCH  24  28
ATOM     28  C   UNL     1      41.491  10.586  10.773  0.00  0.00    +0.000 C 
ATOM     29  N   UNL     1      40.850   9.464  11.215  0.00  0.00    +0.000 N 
ATOM     30  O   UNL     1      40.907  11.444  10.121  0.00  0.00    +0.000 OA
ATOM     31  H   UNL     1      41.346   8.765  11.755  0.00  0.00    +0.000 HD
ATOM     32  H   UNL     1      39.869   9.338  11.000  0.00  0.00    +0.000 HD
ENDBRANCH  24  28
ENDBRANCH  19  20
ENDBRANCH  18  19
ENDBRANCH   3  18
TORSDOF 8
ENDMDL
MODEL 8
REMARK VINA RESULT:    -6.208      3.962      8.123
REMARK INTER + INTRA:         -10.126
REMARK INTER:                  -9.301
REMARK INTRA:                  -0.825
REMARK UNBOUND:                -1.014
REMARK  Name = 
REMARK  10 active torsions:
REMARK  status: ('A' for Active; 'I' for Inactive)
REMARK    1  A    between atoms: C_1  and  C_2
REMARK    2  A    between atoms: C_2  and  O_3
REMARK    3  A    between atoms: O_3  and  C_4
REMARK    4  A    between atoms: C_6  and  C_7
REMARK    5  A    between atoms: C_7  and  C_8
REMARK    6  A    between atoms: C_8  and  N_9
REMARK    7  A    between atoms: C_13  and  C_14
REMARK    8  A    between atoms: C_20  and  C_21
REMARK    9  A    between atoms: C_25  and  O_26
REMARK   10  A    between atoms: O_26  and  C_27
REMARK                            x       y       z     vdW  Elec       q    Type
REMARK                         _______ _______ _______ _____ _____    ______ ____
ROOT
ATOM      1  C   UNL     1      44.379   4.467  11.128  0.00  0.00    +0.000 A 
ATOM      2  C   UNL     1      45.175   3.799  12.053  0.00  0.00    +0.000 A 
ATOM      3  C   UNL     1      45.942   4.550  12.945  0.00  0.00    +0.000 A 
ATOM      4  C   UNL     1      45.878   5.943  12.820  0.00  0.00    +0.000 A 
ATOM      5  C   UNL     1      45.078   6.544  11.848  0.00  0.00    +0.000 A 
ATOM      6  N   UNL     1      44.331   5.810  10.994  0.00  0.00    +0.000 NA
ENDROOT
BRANCH   5   7
ATOM      7  C   UNL     1      45.003   8.005  11.697  0.00  0.00    +0.000 A 
ATOM      8  C   UNL     1      46.018   8.834  12.170  0.00  0.00    +0.000 A 
ATOM      9  N   UNL     1      46.009  10.188  12.091  0.00  0.00    +0.000 NA
ATOM     10  C   UNL     1      44.927  10.748  11.503  0.00  0.00    +0.000 A 
ATOM     11  C   UNL     1      43.854  10.034  10.989  0.00  0.00    +0.000 A 
ATOM     12  C   UNL     1      43.907   8.646  11.087  0.00  0.00    +0.000 A 
BRANCH  11  13
ATOM     13  O   UNL     1      42.843  10.762  10.431  0.00  0.00    +0.000 OA
ATOM     14  C   UNL     1      41.516  10.301  10.658  0.00  0.00    +0.000 C 
ENDBRANCH  11  13
ENDBRANCH   5   7
BRANCH   1  15
ATOM     15  O   UNL     1      43.594   3.685  10.302  0.00  0.00    +0.000 OA
BRANCH  15  17
ATOM     16  C   UNL     1      44.811   3.493   8.261  0.00  0.00    +0.000 C 
ATOM     17  C   UNL     1      44.371   2.770   9.521  0.00  0.00    +0.000 C 
ENDBRANCH  15  17
ENDBRANCH   1  15
BRANCH   3  18
ATOM     18  C   UNL     1      46.794   3.871  14.007  0.00  0.00    +0.000 C 
BRANCH  18  19
ATOM     19  C   UNL     1      47.511   4.849  14.958  0.00  0.00    +0.000 C 
BRANCH  19  20
ATOM     20  N   UNL     1      47.170   4.652  16.369  0.00  0.00    +0.000 N 
ATOM     21  C   UNL     1      48.319   4.729  17.196  0.00  0.00    +0.000 A 
ATOM     22  C   UNL     1      48.203   4.550  18.584  0.00  0.00    +0.000 A 
ATOM     23  N   UNL     1      49.252   4.588  19.453  0.00  0.00    +0.000 NA
ATOM     24  C   UNL     1      50.458   4.834  18.871  0.00  0.00    +0.000 A 
ATOM     25  C   UNL     1      50.590   5.035  17.508  0.00  0.00    +0.000 A 
ATOM     26  N   UNL     1      49.532   4.993  16.657  0.00  0.00    +0.000 NA
ATOM     27  H   UNL     1      46.720   3.753  16.530  0.00  0.00    +0.000 HD
BRANCH  24  28
ATOM     28  C   UNL     1      51.669   4.874  19.735  0.00  0.00    +0.000 C 
ATOM     29  N   UNL     1      51.518   4.427  21.017  0.00  0.00    +0.000 N 
ATOM     30  O   UNL     1      52.750   5.277  19.320  0.00  0.00    +0.000 OA
ATOM     31  H   UNL     1      50.618   4.095  21.344  0.00  0.00    +0.000 HD
ATOM     32  H   UNL     1      52.317   4.426  21.638  0.00  0.00    +0.000 HD
ENDBRANCH  24  28
ENDBRANCH  19  20
ENDBRANCH  18  19
ENDBRANCH   3  18
TORSDOF 8
ENDMDL
MODEL 9
REMARK VINA RESULT:    -6.134      3.014      7.736
REMARK INTER + INTRA:         -10.017
REMARK INTER:                  -8.754
REMARK INTRA:                  -1.263
REMARK UNBOUND:                -1.014
REMARK  Name = 
REMARK  10 active torsions:
REMARK  status: ('A' for Active; 'I' for Inactive)
REMARK    1  A    between atoms: C_1  and  C_2
REMARK    2  A    between atoms: C_2  and  O_3
REMARK    3  A    between atoms: O_3  and  C_4
REMARK    4  A    between atoms: C_6  and  C_7
REMARK    5  A    between atoms: C_7  and  C_8
REMARK    6  A    between atoms: C_8  and  N_9
REMARK    7  A    between atoms: C_13  and  C_14
REMARK    8  A    between atoms: C_20  and  C_21
REMARK    9  A    between atoms: C_25  and  O_26
REMARK   10  A    between atoms: O_26  and  C_27
REMARK                            x       y       z     vdW  Elec       q    Type
REMARK                         _______ _______ _______ _____ _____    ______ ____
ROOT
ATOM      1  C   UNL     1      49.994   8.039  13.242  0.00  0.00    +0.000 A 
ATOM      2  C   UNL     1      49.746   8.716  14.432  0.00  0.00    +0.000 A 
ATOM      3  C   UNL     1      48.501   8.564  15.045  0.00  0.00    +0.000 A 
ATOM      4  C   UNL     1      47.567   7.753  14.390  0.00  0.00    +0.000 A 
ATOM      5  C   UNL     1      47.877   7.127  13.182  0.00  0.00    +0.000 A 
ATOM      6  N   UNL     1      49.087   7.272  12.600  0.00  0.00    +0.000 NA
ENDROOT
BRANCH   5   7
ATOM      7  C   UNL     1      46.906   6.278  12.476  0.00  0.00    +0.000 A 
ATOM      8  C   UNL     1      46.528   6.548  11.162  0.00  0.00    +0.000 A 
ATOM      9  N   UNL     1      45.622   5.828  10.455  0.00  0.00    +0.000 NA
ATOM     10  C   UNL     1      45.062   4.775  11.093  0.00  0.00    +0.000 A 
ATOM     11  C   UNL     1      45.355   4.400  12.396  0.00  0.00    +0.000 A 
ATOM     12  C   UNL     1      46.294   5.165  13.084  0.00  0.00    +0.000 A 
BRANCH  11  13
ATOM     13  O   UNL     1      44.693   3.310  12.885  0.00  0.00    +0.000 OA
ATOM     14  C   UNL     1      43.545   2.877  12.163  0.00  0.00    +0.000 C 
ENDBRANCH  11  13
ENDBRANCH   5   7
BRANCH   1  15
ATOM     15  O   UNL     1      51.257   8.174  12.701  0.00  0.00    +0.000 OA
BRANCH  15  17
ATOM     16  C   UNL     1      52.767  10.016  12.802  0.00  0.00    +0.000 C 
ATOM     17  C   UNL     1      51.488   9.488  12.179  0.00  0.00    +0.000 C 
ENDBRANCH  15  17
ENDBRANCH   1  15
BRANCH   3  18
ATOM     18  C   UNL     1      48.194   9.244  16.371  0.00  0.00    +0.000 C 
BRANCH  18  19
ATOM     19  C   UNL     1      48.672   8.457  17.606  0.00  0.00    +0.000 C 
BRANCH  19  20
ATOM     20  N   UNL     1      47.777   7.361  17.986  0.00  0.00    +0.000 N 
ATOM     21  C   UNL     1      48.381   6.097  17.761  0.00  0.00    +0.000 A 
ATOM     22  C   UNL     1      47.676   4.918  18.048  0.00  0.00    +0.000 A 
ATOM     23  N   UNL     1      48.166   3.663  17.846  0.00  0.00    +0.000 NA
ATOM     24  C   UNL     1      49.432   3.625  17.346  0.00  0.00    +0.000 A 
ATOM     25  C   UNL     1      50.151   4.776  17.078  0.00  0.00    +0.000 A 
ATOM     26  N   UNL     1      49.646   6.019  17.285  0.00  0.00    +0.000 NA
ATOM     27  H   UNL     1      46.900   7.391  17.473  0.00  0.00    +0.000 HD
BRANCH  24  28
ATOM     28  C   UNL     1      50.049   2.298  17.072  0.00  0.00    +0.000 C 
ATOM     29  N   UNL     1      51.054   1.909  17.912  0.00  0.00    +0.000 N 
ATOM     30  O   UNL     1      49.671   1.584  16.150  0.00  0.00    +0.000 OA
ATOM     31  H   UNL     1      51.354   2.509  18.670  0.00  0.00    +0.000 HD
ATOM     32  H   UNL     1      51.496   1.009  17.769  0.00  0.00    +0.000 HD
ENDBRANCH  24  28
ENDBRANCH  19  20
ENDBRANCH  18  19
ENDBRANCH   3  18
TORSDOF 8
ENDMDL
