MODEL 1
REMARK VINA RESULT:    -8.109      0.000      0.000
REMARK INTER + INTRA:         -12.013
REMARK INTER:                 -10.954
REMARK INTRA:                  -1.059
REMARK UNBOUND:                -1.059
REMARK  Name = 
REMARK  8 active torsions:
REMARK  status: ('A' for Active; 'I' for Inactive)
REMARK    1  A    between atoms: C_1  and  C_2
REMARK    2  A    between atoms: C_4  and  C_5
REMARK    3  A    between atoms: N_7  and  C_8
REMARK    4  A    between atoms: C_12  and  C_13
REMARK    5  A    between atoms: C_13  and  C_14
REMARK    6  A    between atoms: C_14  and  O_15
REMARK    7  A    between atoms: O_15  and  C_16
REMARK    8  A    between atoms: C_19  and  C_20
REMARK                            x       y       z     vdW  Elec       q    Type
REMARK                         _______ _______ _______ _____ _____    ______ ____
ROOT
ATOM      1  C   UNL     1      46.631   6.348  13.170  0.00  0.00    +0.000 A 
ATOM      2  C   UNL     1      47.386   5.268  13.616  0.00  0.00    +0.000 A 
ATOM      3  C   UNL     1      46.799   4.016  13.715  0.00  0.00    +0.000 A 
ATOM      4  N   UNL     1      45.522   3.746  13.369  0.00  0.00    +0.000 NA
ATOM      5  C   UNL     1      44.784   4.776  12.903  0.00  0.00    +0.000 A 
ATOM      6  C   UNL     1      45.305   6.071  12.806  0.00  0.00    +0.000 A 
ENDROOT
BRANCH   1  13
ATOM      7  C   UNL     1      50.361   9.106  11.714  0.00  0.00    +0.000 C 
ATOM      8  C   UNL     1      48.886   8.718  11.776  0.00  0.00    +0.000 C 
ATOM      9  C   UNL     1      47.996   9.973  11.693  0.00  0.00    +0.000 C 
ATOM     10  C   UNL     1      46.504   9.634  11.864  0.00  0.00    +0.000 C 
ATOM     11  C   UNL     1      45.663  10.906  11.921  0.00  0.00    +0.000 C 
ATOM     12  C   UNL     1      46.294   8.807  13.135  0.00  0.00    +0.000 C 
ATOM     13  N   UNL     1      47.150   7.623  13.081  0.00  0.00    +0.000 N 
ATOM     14  C   UNL     1      48.584   7.908  13.049  0.00  0.00    +0.000 C 
ENDBRANCH   1  13
BRANCH   5  15
ATOM     15  C   UNL     1      43.370   4.460  12.464  0.00  0.00    +0.000 C 
BRANCH  15  16
ATOM     16  C   UNL     1      43.316   3.701  11.141  0.00  0.00    +0.000 C 
BRANCH  16  17
ATOM     17  O   UNL     1      43.774   4.530  10.037  0.00  0.00    +0.000 OA
BRANCH  17  18
ATOM     18  C   UNL     1      44.712   3.852   9.277  0.00  0.00    +0.000 A 
ATOM     19  C   UNL     1      44.912   2.475   9.402  0.00  0.00    +0.000 A 
ATOM     20  N   UNL     1      45.799   1.774   8.633  0.00  0.00    +0.000 NA
ATOM     21  C   UNL     1      46.481   2.505   7.715  0.00  0.00    +0.000 A 
ATOM     22  C   UNL     1      46.284   3.879   7.597  0.00  0.00    +0.000 A 
ATOM     23  N   UNL     1      45.413   4.567   8.373  0.00  0.00    +0.000 NA
BRANCH  21  24
ATOM     24  C   UNL     1      47.443   1.783   6.830  0.00  0.00    +0.000 C 
ATOM     25  N   UNL     1      48.543   2.452   6.368  0.00  0.00    +0.000 N 
ATOM     26  O   UNL     1      47.274   0.594   6.502  0.00  0.00    +0.000 OA
ATOM     27  H   UNL     1      48.752   3.421   6.588  0.00  0.00    +0.000 HD
ATOM     28  H   UNL     1      49.182   1.951   5.765  0.00  0.00    +0.000 HD
ENDBRANCH  21  24
ENDBRANCH  17  18
ENDBRANCH  16  17
ENDBRANCH  15  16
ENDBRANCH   5  15
TORSDOF 6
ENDMDL
MODEL 2
REMARK VINA RESULT:    -7.645      1.145      1.905
REMARK INTER + INTRA:         -11.386
REMARK INTER:                 -10.409
REMARK INTRA:                  -0.977
REMARK UNBOUND:                -1.059
REMARK  Name = 
REMARK  8 active torsions:
REMARK  status: ('A' for Active; 'I' for Inactive)
REMARK    1  A    between atoms: C_1  and  C_2
REMARK    2  A    between atoms: C_4  and  C_5
REMARK    3  A    between atoms: N_7  and  C_8
REMARK    4  A    between atoms: C_12  and  C_13
REMARK    5  A    between atoms: C_13  and  C_14
REMARK    6  A    between atoms: C_14  and  O_15
REMARK    7  A    between atoms: O_15  and  C_16
REMARK    8  A    between atoms: C_19  and  C_20
REMARK                            x       y       z     vdW  Elec       q    Type
REMARK                         _______ _______ _______ _____ _____    ______ ____
ROOT
ATOM      1  C   UNL     1      46.874   6.243  13.158  0.00  0.00    +0.000 A 
ATOM      2  C   UNL     1      47.380   5.102  13.774  0.00  0.00    +0.000 A 
ATOM      3  C   UNL     1      46.559   3.998  13.950  0.00  0.00    +0.000 A 
ATOM      4  N   UNL     1      45.278   3.929  13.527  0.00  0.00    +0.000 NA
ATOM      5  C   UNL     1      44.781   5.016  12.899  0.00  0.00    +0.000 A 
ATOM      6  C   UNL     1      45.545   6.174  12.716  0.00  0.00    +0.000 A 
ENDROOT
BRANCH   1  13
ATOM      7  C   UNL     1      48.897  10.119  15.285  0.00  0.00    +0.000 C 
ATOM      8  C   UNL     1      48.923   8.860  14.422  0.00  0.00    +0.000 C 
ATOM      9  C   UNL     1      49.965   9.003  13.295  0.00  0.00    +0.000 C 
ATOM     10  C   UNL     1      49.944   7.799  12.336  0.00  0.00    +0.000 C 
ATOM     11  C   UNL     1      50.882   8.033  11.154  0.00  0.00    +0.000 C 
ATOM     12  C   UNL     1      48.519   7.549  11.835  0.00  0.00    +0.000 C 
ATOM     13  N   UNL     1      47.631   7.383  12.984  0.00  0.00    +0.000 N 
ATOM     14  C   UNL     1      47.527   8.557  13.850  0.00  0.00    +0.000 C 
ENDBRANCH   1  13
BRANCH   5  15
ATOM     15  C   UNL     1      43.363   4.916  12.379  0.00  0.00    +0.000 C 
BRANCH  15  16
ATOM     16  C   UNL     1      43.236   3.969  11.188  0.00  0.00    +0.000 C 
BRANCH  16  17
ATOM     17  O   UNL     1      43.641   4.619   9.951  0.00  0.00    +0.000 OA
BRANCH  17  18
ATOM     18  C   UNL     1      44.576   3.848   9.282  0.00  0.00    +0.000 A 
ATOM     19  C   UNL     1      44.722   2.480   9.528  0.00  0.00    +0.000 A 
ATOM     20  N   UNL     1      45.605   1.687   8.849  0.00  0.00    +0.000 NA
ATOM     21  C   UNL     1      46.340   2.315   7.897  0.00  0.00    +0.000 A 
ATOM     22  C   UNL     1      46.197   3.680   7.658  0.00  0.00    +0.000 A 
ATOM     23  N   UNL     1      45.329   4.459   8.344  0.00  0.00    +0.000 NA
BRANCH  21  24
ATOM     24  C   UNL     1      47.302   1.489   7.107  0.00  0.00    +0.000 C 
ATOM     25  N   UNL     1      48.403   2.094   6.567  0.00  0.00    +0.000 N 
ATOM     26  O   UNL     1      47.132   0.269   6.927  0.00  0.00    +0.000 OA
ATOM     27  H   UNL     1      48.613   3.083   6.666  0.00  0.00    +0.000 HD
ATOM     28  H   UNL     1      49.042   1.522   6.030  0.00  0.00    +0.000 HD
ENDBRANCH  21  24
ENDBRANCH  17  18
ENDBRANCH  16  17
ENDBRANCH  15  16
ENDBRANCH   5  15
TORSDOF 6
ENDMDL
MODEL 3
REMARK VINA RESULT:    -7.203      2.512      4.200
REMARK INTER + INTRA:         -10.789
REMARK INTER:                  -9.871
REMARK INTRA:                  -0.918
REMARK UNBOUND:                -1.059
REMARK  Name = 
REMARK  8 active torsions:
REMARK  status: ('A' for Active; 'I' for Inactive)
REMARK    1  A    between atoms: C_1  and  C_2
REMARK    2  A    between atoms: C_4  and  C_5
REMARK    3  A    between atoms: N_7  and  C_8
REMARK    4  A    between atoms: C_12  and  C_13
REMARK    5  A    between atoms: C_13  and  C_14
REMARK    6  A    between atoms: C_14  and  O_15
REMARK    7  A    between atoms: O_15  and  C_16
REMARK    8  A    between atoms: C_19  and  C_20
REMARK                            x       y       z     vdW  Elec       q    Type
REMARK                         _______ _______ _______ _____ _____    ______ ____
ROOT
ATOM      1  C   UNL     1      47.322   5.385  14.355  0.00  0.00    +0.000 A 
ATOM      2  C   UNL     1      47.734   6.358  13.450  0.00  0.00    +0.000 A 
ATOM      3  C   UNL     1      47.032   6.535  12.268  0.00  0.00    +0.000 A 
ATOM      4  N   UNL     1      45.925   5.840  11.931  0.00  0.00    +0.000 NA
ATOM      5  C   UNL     1      45.491   4.913  12.812  0.00  0.00    +0.000 A 
ATOM      6  C   UNL     1      46.170   4.662  14.010  0.00  0.00    +0.000 A 
ENDROOT
BRANCH   1  13
ATOM      7  C   UNL     1      49.236   7.296  18.395  0.00  0.00    +0.000 C 
ATOM      8  C   UNL     1      48.344   6.323  17.630  0.00  0.00    +0.000 C 
ATOM      9  C   UNL     1      48.256   4.976  18.374  0.00  0.00    +0.000 C 
ATOM     10  C   UNL     1      47.455   3.929  17.578  0.00  0.00    +0.000 C 
ATOM     11  C   UNL     1      47.506   2.569  18.269  0.00  0.00    +0.000 C 
ATOM     12  C   UNL     1      48.006   3.816  16.154  0.00  0.00    +0.000 C 
ATOM     13  N   UNL     1      47.998   5.139  15.532  0.00  0.00    +0.000 N 
ATOM     14  C   UNL     1      48.852   6.127  16.190  0.00  0.00    +0.000 C 
ENDBRANCH   1  13
BRANCH   5  15
ATOM     15  C   UNL     1      44.219   4.174  12.457  0.00  0.00    +0.000 C 
BRANCH  15  16
ATOM     16  C   UNL     1      43.669   4.567  11.088  0.00  0.00    +0.000 C 
BRANCH  16  17
ATOM     17  O   UNL     1      43.365   3.394  10.284  0.00  0.00    +0.000 OA
BRANCH  17  18
ATOM     18  C   UNL     1      44.358   3.179   9.344  0.00  0.00    +0.000 A 
ATOM     19  C   UNL     1      44.890   4.219   8.577  0.00  0.00    +0.000 A 
ATOM     20  N   UNL     1      45.902   4.042   7.674  0.00  0.00    +0.000 NA
ATOM     21  C   UNL     1      46.377   2.774   7.571  0.00  0.00    +0.000 A 
ATOM     22  C   UNL     1      45.840   1.739   8.332  0.00  0.00    +0.000 A 
ATOM     23  N   UNL     1      44.828   1.921   9.213  0.00  0.00    +0.000 NA
BRANCH  21  24
ATOM     24  C   UNL     1      47.502   2.531   6.619  0.00  0.00    +0.000 C 
ATOM     25  N   UNL     1      47.484   3.159   5.403  0.00  0.00    +0.000 N 
ATOM     26  O   UNL     1      48.452   1.778   6.899  0.00  0.00    +0.000 OA
ATOM     27  H   UNL     1      46.746   3.786   5.099  0.00  0.00    +0.000 HD
ATOM     28  H   UNL     1      48.250   2.980   4.768  0.00  0.00    +0.000 HD
ENDBRANCH  21  24
ENDBRANCH  17  18
ENDBRANCH  16  17
ENDBRANCH  15  16
ENDBRANCH   5  15
TORSDOF 6
ENDMDL
MODEL 4
REMARK VINA RESULT:    -6.946      1.604      2.949
REMARK INTER + INTRA:         -10.441
REMARK INTER:                  -9.633
REMARK INTRA:                  -0.808
REMARK UNBOUND:                -1.059
REMARK  Name = 
REMARK  8 active torsions:
REMARK  status: ('A' for Active; 'I' for Inactive)
REMARK    1  A    between atoms: C_1  and  C_2
REMARK    2  A    between atoms: C_4  and  C_5
REMARK    3  A    between atoms: N_7  and  C_8
REMARK    4  A    between atoms: C_12  and  C_13
REMARK    5  A    between atoms: C_13  and  C_14
REMARK    6  A    between atoms: C_14  and  O_15
REMARK    7  A    between atoms: O_15  and  C_16
REMARK    8  A    between atoms: C_19  and  C_20
REMARK                            x       y       z     vdW  Elec       q    Type
REMARK                         _______ _______ _______ _____ _____    ______ ____
ROOT
ATOM      1  C   UNL     1      46.949   7.497  12.703  0.00  0.00    +0.000 A 
ATOM      2  C   UNL     1      46.606   8.835  12.540  0.00  0.00    +0.000 A 
ATOM      3  C   UNL     1      45.415   9.165  11.911  0.00  0.00    +0.000 A 
ATOM      4  N   UNL     1      44.518   8.261  11.462  0.00  0.00    +0.000 NA
ATOM      5  C   UNL     1      44.819   6.957  11.641  0.00  0.00    +0.000 A 
ATOM      6  C   UNL     1      46.018   6.555  12.240  0.00  0.00    +0.000 A 
ENDROOT
BRANCH   1  13
ATOM      7  C   UNL     1      51.645   8.538  13.417  0.00  0.00    +0.000 C 
ATOM      8  C   UNL     1      50.233   8.188  13.880  0.00  0.00    +0.000 C 
ATOM      9  C   UNL     1      50.284   7.332  15.161  0.00  0.00    +0.000 C 
ATOM     10  C   UNL     1      48.884   6.864  15.598  0.00  0.00    +0.000 C 
ATOM     11  C   UNL     1      48.978   5.904  16.781  0.00  0.00    +0.000 C 
ATOM     12  C   UNL     1      48.164   6.189  14.428  0.00  0.00    +0.000 C 
ATOM     13  N   UNL     1      48.135   7.107  13.291  0.00  0.00    +0.000 N 
ATOM     14  C   UNL     1      49.450   7.471  12.766  0.00  0.00    +0.000 C 
ENDBRANCH   1  13
BRANCH   5  15
ATOM     15  C   UNL     1      43.788   5.948  11.186  0.00  0.00    +0.000 C 
BRANCH  15  16
ATOM     16  C   UNL     1      44.341   4.526  11.119  0.00  0.00    +0.000 C 
BRANCH  16  17
ATOM     17  O   UNL     1      43.753   3.782  10.016  0.00  0.00    +0.000 OA
BRANCH  17  18
ATOM     18  C   UNL     1      44.738   3.337   9.151  0.00  0.00    +0.000 A 
ATOM     19  C   UNL     1      45.171   2.009   9.141  0.00  0.00    +0.000 A 
ATOM     20  N   UNL     1      46.109   1.534   8.267  0.00  0.00    +0.000 NA
ATOM     21  C   UNL     1      46.598   2.442   7.385  0.00  0.00    +0.000 A 
ATOM     22  C   UNL     1      46.169   3.767   7.402  0.00  0.00    +0.000 A 
ATOM     23  N   UNL     1      45.249   4.232   8.280  0.00  0.00    +0.000 NA
BRANCH  21  24
ATOM     24  C   UNL     1      47.606   1.969   6.390  0.00  0.00    +0.000 C 
ATOM     25  N   UNL     1      48.827   2.585   6.343  0.00  0.00    +0.000 N 
ATOM     26  O   UNL     1      47.369   1.032   5.604  0.00  0.00    +0.000 OA
ATOM     27  H   UNL     1      49.097   3.354   6.947  0.00  0.00    +0.000 HD
ATOM     28  H   UNL     1      49.496   2.256   5.660  0.00  0.00    +0.000 HD
ENDBRANCH  21  24
ENDBRANCH  17  18
ENDBRANCH  16  17
ENDBRANCH  15  16
ENDBRANCH   5  15
TORSDOF 6
ENDMDL
MODEL 5
REMARK VINA RESULT:    -6.721      2.544      3.834
REMARK INTER + INTRA:         -10.137
REMARK INTER:                  -9.360
REMARK INTRA:                  -0.777
REMARK UNBOUND:                -1.059
REMARK  Name = 
REMARK  8 active torsions:
REMARK  status: ('A' for Active; 'I' for Inactive)
REMARK    1  A    between atoms: C_1  and  C_2
REMARK    2  A    between atoms: C_4  and  C_5
REMARK    3  A    between atoms: N_7  and  C_8
REMARK    4  A    between atoms: C_12  and  C_13
REMARK    5  A    between atoms: C_13  and  C_14
REMARK    6  A    between atoms: C_14  and  O_15
REMARK    7  A    between atoms: O_15  and  C_16
REMARK    8  A    between atoms: C_19  and  C_20
REMARK                            x       y       z     vdW  Elec       q    Type
REMARK                         _______ _______ _______ _____ _____    ______ ____
ROOT
ATOM      1  C   UNL     1      44.705   9.184  11.565  0.00  0.00    +0.000 A 
ATOM      2  C   UNL     1      45.908   9.325  12.249  0.00  0.00    +0.000 A 
ATOM      3  C   UNL     1      46.451   8.234  12.911  0.00  0.00    +0.000 A 
ATOM      4  N   UNL     1      45.905   6.999  12.914  0.00  0.00    +0.000 NA
ATOM      5  C   UNL     1      44.753   6.836  12.228  0.00  0.00    +0.000 A 
ATOM      6  C   UNL     1      44.136   7.902  11.564  0.00  0.00    +0.000 A 
ENDROOT
BRANCH   1  13
ATOM      7  C   UNL     1      44.564  11.921   7.548  0.00  0.00    +0.000 C 
ATOM      8  C   UNL     1      43.946  11.024   8.618  0.00  0.00    +0.000 C 
ATOM      9  C   UNL     1      42.484  11.434   8.883  0.00  0.00    +0.000 C 
ATOM     10  C   UNL     1      41.858  10.626  10.035  0.00  0.00    +0.000 C 
ATOM     11  C   UNL     1      40.464  11.149  10.368  0.00  0.00    +0.000 C 
ATOM     12  C   UNL     1      42.756  10.694  11.273  0.00  0.00    +0.000 C 
ATOM     13  N   UNL     1      44.098  10.240  10.916  0.00  0.00    +0.000 N 
ATOM     14  C   UNL     1      44.775  11.063   9.914  0.00  0.00    +0.000 C 
ENDBRANCH   1  13
BRANCH   5  15
ATOM     15  C   UNL     1      44.172   5.439  12.188  0.00  0.00    +0.000 C 
BRANCH  15  16
ATOM     16  C   UNL     1      45.068   4.447  11.450  0.00  0.00    +0.000 C 
BRANCH  16  17
ATOM     17  O   UNL     1      44.295   3.606  10.550  0.00  0.00    +0.000 OA
BRANCH  17  18
ATOM     18  C   UNL     1      45.016   3.332   9.401  0.00  0.00    +0.000 A 
ATOM     19  C   UNL     1      45.406   4.339   8.514  0.00  0.00    +0.000 A 
ATOM     20  N   UNL     1      46.158   4.102   7.396  0.00  0.00    +0.000 NA
ATOM     21  C   UNL     1      46.519   2.809   7.199  0.00  0.00    +0.000 A 
ATOM     22  C   UNL     1      46.124   1.807   8.082  0.00  0.00    +0.000 A 
ATOM     23  N   UNL     1      45.368   2.049   9.179  0.00  0.00    +0.000 NA
BRANCH  21  24
ATOM     24  C   UNL     1      47.364   2.499   6.007  0.00  0.00    +0.000 C 
ATOM     25  N   UNL     1      48.717   2.376   6.172  0.00  0.00    +0.000 N 
ATOM     26  O   UNL     1      46.876   2.349   4.872  0.00  0.00    +0.000 OA
ATOM     27  H   UNL     1      49.192   2.484   7.062  0.00  0.00    +0.000 HD
ATOM     28  H   UNL     1      49.276   2.171   5.354  0.00  0.00    +0.000 HD
ENDBRANCH  21  24
ENDBRANCH  17  18
ENDBRANCH  16  17
ENDBRANCH  15  16
ENDBRANCH   5  15
TORSDOF 6
ENDMDL
MODEL 6
REMARK VINA RESULT:    -6.685      1.647      2.484
REMARK INTER + INTRA:         -10.089
REMARK INTER:                  -9.239
REMARK INTRA:                  -0.850
REMARK UNBOUND:                -1.059
REMARK  Name = 
REMARK  8 active torsions:
REMARK  status: ('A' for Active; 'I' for Inactive)
REMARK    1  A    between atoms: C_1  and  C_2
REMARK    2  A    between atoms: C_4  and  C_5
REMARK    3  A    between atoms: N_7  and  C_8
REMARK    4  A    between atoms: C_12  and  C_13
REMARK    5  A    between atoms: C_13  and  C_14
REMARK    6  A    between atoms: C_14  and  O_15
REMARK    7  A    between atoms: O_15  and  C_16
REMARK    8  A    between atoms: C_19  and  C_20
REMARK                            x       y       z     vdW  Elec       q    Type
REMARK                         _______ _______ _______ _____ _____    ______ ____
ROOT
ATOM      1  C   UNL     1      46.421   7.891  12.256  0.00  0.00    +0.000 A 
ATOM      2  C   UNL     1      45.590   8.909  11.800  0.00  0.00    +0.000 A 
ATOM      3  C   UNL     1      44.303   8.607  11.381  0.00  0.00    +0.000 A 
ATOM      4  N   UNL     1      43.765   7.369  11.415  0.00  0.00    +0.000 NA
ATOM      5  C   UNL     1      44.546   6.374  11.886  0.00  0.00    +0.000 A 
ATOM      6  C   UNL     1      45.865   6.604  12.295  0.00  0.00    +0.000 A 
ENDROOT
BRANCH   1  13
ATOM      7  C   UNL     1      51.123   7.708  11.029  0.00  0.00    +0.000 C 
ATOM      8  C   UNL     1      49.867   8.407  11.542  0.00  0.00    +0.000 C 
ATOM      9  C   UNL     1      50.237   9.478  12.588  0.00  0.00    +0.000 C 
ATOM     10  C   UNL     1      48.990  10.129  13.213  0.00  0.00    +0.000 C 
ATOM     11  C   UNL     1      49.383  11.078  14.341  0.00  0.00    +0.000 C 
ATOM     12  C   UNL     1      48.040   9.051  13.739  0.00  0.00    +0.000 C 
ATOM     13  N   UNL     1      47.721   8.124  12.654  0.00  0.00    +0.000 N 
ATOM     14  C   UNL     1      48.869   7.389  12.123  0.00  0.00    +0.000 C 
ENDBRANCH   1  13
BRANCH   5  15
ATOM     15  C   UNL     1      43.922   4.998  11.973  0.00  0.00    +0.000 C 
BRANCH  15  16
ATOM     16  C   UNL     1      43.552   4.428  10.606  0.00  0.00    +0.000 C 
BRANCH  16  17
ATOM     17  O   UNL     1      44.020   3.059  10.459  0.00  0.00    +0.000 OA
BRANCH  17  18
ATOM     18  C   UNL     1      44.829   2.940   9.343  0.00  0.00    +0.000 A 
ATOM     19  C   UNL     1      45.064   4.013   8.480  0.00  0.00    +0.000 A 
ATOM     20  N   UNL     1      45.895   3.936   7.396  0.00  0.00    +0.000 NA
ATOM     21  C   UNL     1      46.497   2.734   7.207  0.00  0.00    +0.000 A 
ATOM     22  C   UNL     1      46.256   1.664   8.066  0.00  0.00    +0.000 A 
ATOM     23  N   UNL     1      45.421   1.747   9.129  0.00  0.00    +0.000 NA
BRANCH  21  24
ATOM     24  C   UNL     1      47.435   2.603   6.053  0.00  0.00    +0.000 C 
ATOM     25  N   UNL     1      48.775   2.477   6.303  0.00  0.00    +0.000 N 
ATOM     26  O   UNL     1      47.036   2.603   4.874  0.00  0.00    +0.000 OA
ATOM     27  H   UNL     1      49.180   2.468   7.234  0.00  0.00    +0.000 HD
ATOM     28  H   UNL     1      49.398   2.394   5.510  0.00  0.00    +0.000 HD
ENDBRANCH  21  24
ENDBRANCH  17  18
ENDBRANCH  16  17
ENDBRANCH  15  16
ENDBRANCH   5  15
TORSDOF 6
ENDMDL
MODEL 7
REMARK VINA RESULT:    -6.511      3.527      7.619
REMARK INTER + INTRA:          -9.854
REMARK INTER:                  -8.880
REMARK INTRA:                  -0.974
REMARK UNBOUND:                -1.059
REMARK  Name = 
REMARK  8 active torsions:
REMARK  status: ('A' for Active; 'I' for Inactive)
REMARK    1  A    between atoms: C_1  and  C_2
REMARK    2  A    between atoms: C_4  and  C_5
REMARK    3  A    between atoms: N_7  and  C_8
REMARK    4  A    between atoms: C_12  and  C_13
REMARK    5  A    between atoms: C_13  and  C_14
REMARK    6  A    between atoms: C_14  and  O_15
REMARK    7  A    between atoms: O_15  and  C_16
REMARK    8  A    between atoms: C_19  and  C_20
REMARK                            x       y       z     vdW  Elec       q    Type
REMARK                         _______ _______ _______ _____ _____    ______ ____
ROOT
ATOM      1  C   UNL     1      45.463   6.972  11.506  0.00  0.00    +0.000 A 
ATOM      2  C   UNL     1      44.456   7.873  11.175  0.00  0.00    +0.000 A 
ATOM      3  C   UNL     1      44.565   9.198  11.569  0.00  0.00    +0.000 A 
ATOM      4  N   UNL     1      45.622   9.706  12.239  0.00  0.00    +0.000 NA
ATOM      5  C   UNL     1      46.623   8.853  12.542  0.00  0.00    +0.000 A 
ATOM      6  C   UNL     1      46.563   7.497  12.201  0.00  0.00    +0.000 A 
ENDROOT
BRANCH   1  13
ATOM      7  C   UNL     1      43.507   2.640  12.528  0.00  0.00    +0.000 C 
ATOM      8  C   UNL     1      43.857   3.801  11.601  0.00  0.00    +0.000 C 
ATOM      9  C   UNL     1      44.110   3.288  10.170  0.00  0.00    +0.000 C 
ATOM     10  C   UNL     1      44.575   4.414   9.228  0.00  0.00    +0.000 C 
ATOM     11  C   UNL     1      44.955   3.854   7.860  0.00  0.00    +0.000 C 
ATOM     12  C   UNL     1      45.766   5.156   9.841  0.00  0.00    +0.000 C 
ATOM     13  N   UNL     1      45.396   5.635  11.172  0.00  0.00    +0.000 N 
ATOM     14  C   UNL     1      45.072   4.581  12.132  0.00  0.00    +0.000 C 
ENDBRANCH   1  13
BRANCH   5  15
ATOM     15  C   UNL     1      47.829   9.436  13.246  0.00  0.00    +0.000 C 
BRANCH  15  16
ATOM     16  C   UNL     1      48.113   8.766  14.588  0.00  0.00    +0.000 C 
BRANCH  16  17
ATOM     17  O   UNL     1      49.078   7.687  14.447  0.00  0.00    +0.000 OA
BRANCH  17  18
ATOM     18  C   UNL     1      48.738   6.621  15.262  0.00  0.00    +0.000 A 
ATOM     19  C   UNL     1      49.156   6.543  16.593  0.00  0.00    +0.000 A 
ATOM     20  N   UNL     1      48.797   5.525  17.433  0.00  0.00    +0.000 NA
ATOM     21  C   UNL     1      47.987   4.580  16.891  0.00  0.00    +0.000 A 
ATOM     22  C   UNL     1      47.577   4.658  15.562  0.00  0.00    +0.000 A 
ATOM     23  N   UNL     1      47.949   5.663  14.734  0.00  0.00    +0.000 NA
BRANCH  21  24
ATOM     24  C   UNL     1      47.543   3.460  17.773  0.00  0.00    +0.000 C 
ATOM     25  N   UNL     1      48.307   3.133  18.859  0.00  0.00    +0.000 N 
ATOM     26  O   UNL     1      46.500   2.818  17.550  0.00  0.00    +0.000 OA
ATOM     27  H   UNL     1      49.170   3.606  19.109  0.00  0.00    +0.000 HD
ATOM     28  H   UNL     1      47.995   2.369  19.444  0.00  0.00    +0.000 HD
ENDBRANCH  21  24
ENDBRANCH  17  18
ENDBRANCH  16  17
ENDBRANCH  15  16
ENDBRANCH   5  15
TORSDOF 6
ENDMDL
MODEL 8
REMARK VINA RESULT:    -6.302      3.239      4.925
REMARK INTER + INTRA:          -9.572
REMARK INTER:                  -8.546
REMARK INTRA:                  -1.026
REMARK UNBOUND:                -1.059
REMARK  Name = 
REMARK  8 active torsions:
REMARK  status: ('A' for Active; 'I' for Inactive)
REMARK    1  A    between atoms: C_1  and  C_2
REMARK    2  A    between atoms: C_4  and  C_5
REMARK    3  A    between atoms: N_7  and  C_8
REMARK    4  A    between atoms: C_12  and  C_13
REMARK    5  A    between atoms: C_13  and  C_14
REMARK    6  A    between atoms: C_14  and  O_15
REMARK    7  A    between atoms: O_15  and  C_16
REMARK    8  A    between atoms: C_19  and  C_20
REMARK                            x       y       z     vdW  Elec       q    Type
REMARK                         _______ _______ _______ _____ _____    ______ ____
ROOT
ATOM      1  C   UNL     1      49.023   7.989  15.418  0.00  0.00    +0.000 A 
ATOM      2  C   UNL     1      48.906   8.679  16.621  0.00  0.00    +0.000 A 
ATOM      3  C   UNL     1      48.597   7.985  17.781  0.00  0.00    +0.000 A 
ATOM      4  N   UNL     1      48.430   6.647  17.844  0.00  0.00    +0.000 NA
ATOM      5  C   UNL     1      48.572   5.957  16.692  0.00  0.00    +0.000 A 
ATOM      6  C   UNL     1      48.853   6.598  15.480  0.00  0.00    +0.000 A 
ENDROOT
BRANCH   1  13
ATOM      7  C   UNL     1      51.029   7.630  11.004  0.00  0.00    +0.000 C 
ATOM      8  C   UNL     1      49.888   7.938  11.969  0.00  0.00    +0.000 C 
ATOM      9  C   UNL     1      49.012   9.081  11.419  0.00  0.00    +0.000 C 
ATOM     10  C   UNL     1      47.915   9.497  12.415  0.00  0.00    +0.000 C 
ATOM     11  C   UNL     1      47.157  10.721  11.905  0.00  0.00    +0.000 C 
ATOM     12  C   UNL     1      48.531   9.793  13.785  0.00  0.00    +0.000 C 
ATOM     13  N   UNL     1      49.295   8.628  14.226  0.00  0.00    +0.000 N 
ATOM     14  C   UNL     1      50.428   8.280  13.369  0.00  0.00    +0.000 C 
ENDBRANCH   1  13
BRANCH   5  15
ATOM     15  C   UNL     1      48.438   4.452  16.775  0.00  0.00    +0.000 C 
BRANCH  15  16
ATOM     16  C   UNL     1      47.234   3.921  16.000  0.00  0.00    +0.000 C 
BRANCH  16  17
ATOM     17  O   UNL     1      47.571   3.666  14.609  0.00  0.00    +0.000 OA
BRANCH  17  18
ATOM     18  C   UNL     1      46.534   4.054  13.779  0.00  0.00    +0.000 A 
ATOM     19  C   UNL     1      46.125   5.386  13.677  0.00  0.00    +0.000 A 
ATOM     20  N   UNL     1      45.134   5.804  12.831  0.00  0.00    +0.000 NA
ATOM     21  C   UNL     1      44.566   4.831  12.074  0.00  0.00    +0.000 A 
ATOM     22  C   UNL     1      44.971   3.503  12.183  0.00  0.00    +0.000 A 
ATOM     23  N   UNL     1      45.944   3.097  13.033  0.00  0.00    +0.000 NA
BRANCH  21  24
ATOM     24  C   UNL     1      43.496   5.237  11.114  0.00  0.00    +0.000 C 
ATOM     25  N   UNL     1      43.658   4.948   9.786  0.00  0.00    +0.000 N 
ATOM     26  O   UNL     1      42.465   5.827  11.484  0.00  0.00    +0.000 OA
ATOM     27  H   UNL     1      44.469   4.471   9.404  0.00  0.00    +0.000 HD
ATOM     28  H   UNL     1      42.928   5.234   9.148  0.00  0.00    +0.000 HD
ENDBRANCH  21  24
ENDBRANCH  17  18
ENDBRANCH  16  17
ENDBRANCH  15  16
ENDBRANCH   5  15
TORSDOF 6
ENDMDL
MODEL 9
REMARK VINA RESULT:    -6.291      1.612      3.028
REMARK INTER + INTRA:          -9.557
REMARK INTER:                  -8.801
REMARK INTRA:                  -0.756
REMARK UNBOUND:                -1.059
REMARK  Name = 
REMARK  8 active torsions:
REMARK  status: ('A' for Active; 'I' for Inactive)
REMARK    1  A    between atoms: C_1  and  C_2
REMARK    2  A    between atoms: C_4  and  C_5
REMARK    3  A    between atoms: N_7  and  C_8
REMARK    4  A    between atoms: C_12  and  C_13
REMARK    5  A    between atoms: C_13  and  C_14
REMARK    6  A    between atoms: C_14  and  O_15
REMARK    7  A    between atoms: O_15  and  C_16
REMARK    8  A    between atoms: C_19  and  C_20
REMARK                            x       y       z     vdW  Elec       q    Type
REMARK                         _______ _______ _______ _____ _____    ______ ____
ROOT
ATOM      1  C   UNL     1      48.358   8.446  12.126  0.00  0.00    +0.000 A 
ATOM      2  C   UNL     1      47.491   9.424  12.604  0.00  0.00    +0.000 A 
ATOM      3  C   UNL     1      46.133   9.158  12.681  0.00  0.00    +0.000 A 
ATOM      4  N   UNL     1      45.571   7.975  12.351  0.00  0.00    +0.000 NA
ATOM      5  C   UNL     1      46.401   7.003  11.916  0.00  0.00    +0.000 A 
ATOM      6  C   UNL     1      47.778   7.215  11.785  0.00  0.00    +0.000 A 
ENDROOT
BRANCH   1  13
ATOM      7  C   UNL     1      52.504   6.991  10.045  0.00  0.00    +0.000 C 
ATOM      8  C   UNL     1      51.441   8.025  10.404  0.00  0.00    +0.000 C 
ATOM      9  C   UNL     1      52.082   9.415  10.584  0.00  0.00    +0.000 C 
ATOM     10  C   UNL     1      51.060  10.465  11.057  0.00  0.00    +0.000 C 
ATOM     11  C   UNL     1      51.749  11.792  11.363  0.00  0.00    +0.000 C 
ATOM     12  C   UNL     1      50.319   9.959  12.297  0.00  0.00    +0.000 C 
ATOM     13  N   UNL     1      49.714   8.662  11.995  0.00  0.00    +0.000 N 
ATOM     14  C   UNL     1      50.669   7.604  11.668  0.00  0.00    +0.000 C 
ENDBRANCH   1  13
BRANCH   5  15
ATOM     15  C   UNL     1      45.776   5.661  11.599  0.00  0.00    +0.000 C 
BRANCH  15  16
ATOM     16  C   UNL     1      44.673   5.757  10.547  0.00  0.00    +0.000 C 
BRANCH  16  17
ATOM     17  O   UNL     1      44.134   4.445  10.227  0.00  0.00    +0.000 OA
BRANCH  17  18
ATOM     18  C   UNL     1      44.978   3.771   9.361  0.00  0.00    +0.000 A 
ATOM     19  C   UNL     1      45.111   2.381   9.387  0.00  0.00    +0.000 A 
ATOM     20  N   UNL     1      45.903   1.687   8.514  0.00  0.00    +0.000 NA
ATOM     21  C   UNL     1      46.559   2.441   7.596  0.00  0.00    +0.000 A 
ATOM     22  C   UNL     1      46.429   3.828   7.576  0.00  0.00    +0.000 A 
ATOM     23  N   UNL     1      45.653   4.507   8.453  0.00  0.00    +0.000 NA
BRANCH  21  24
ATOM     24  C   UNL     1      47.417   1.731   6.601  0.00  0.00    +0.000 C 
ATOM     25  N   UNL     1      48.474   2.398   6.046  0.00  0.00    +0.000 N 
ATOM     26  O   UNL     1      47.200   0.552   6.264  0.00  0.00    +0.000 OA
ATOM     27  H   UNL     1      48.718   3.359   6.266  0.00  0.00    +0.000 HD
ATOM     28  H   UNL     1      49.042   1.905   5.370  0.00  0.00    +0.000 HD
ENDBRANCH  21  24
ENDBRANCH  17  18
ENDBRANCH  16  17
ENDBRANCH  15  16
ENDBRANCH   5  15
TORSDOF 6
ENDMDL
