MODEL 1
REMARK VINA RESULT:    -7.689      0.000      0.000
REMARK INTER + INTRA:         -10.514
REMARK INTER:                  -9.487
REMARK INTRA:                  -1.027
REMARK UNBOUND:                -1.027
REMARK  Name = 
REMARK  4 active torsions:
REMARK  status: ('A' for Active; 'I' for Inactive)
REMARK    1  A    between atoms: C_7  and  N_8
REMARK    2  A    between atoms: N_8  and  C_9
REMARK    3  A    between atoms: C_9  and  C_10
REMARK    4  A    between atoms: C_14  and  C_15
REMARK                            x       y       z     vdW  Elec       q    Type
REMARK                         _______ _______ _______ _____ _____    ______ ____
ROOT
ATOM      1  C   UNL     1      45.868   7.068  12.233  0.00  0.00    +0.000 C 
ATOM      2  C   UNL     1      46.919   6.601  13.244  0.00  0.00    +0.000 C 
ATOM      3  C   UNL     1      47.344   7.019  11.876  0.00  0.00    +0.000 C 
ENDROOT
BRANCH   1   4
ATOM      4  C   UNL     1      44.991   5.982  11.632  0.00  0.00    +0.000 A 
ATOM      5  C   UNL     1      43.707   5.749  12.121  0.00  0.00    +0.000 A 
ATOM      6  C   UNL     1      42.898   4.835  11.484  0.00  0.00    +0.000 A 
ATOM      7  N   UNL     1      43.290   4.107  10.416  0.00  0.00    +0.000 NA
ATOM      8  C   UNL     1      44.549   4.292   9.959  0.00  0.00    +0.000 A 
ATOM      9  C   UNL     1      45.422   5.207  10.541  0.00  0.00    +0.000 A 
BRANCH   8  10
ATOM     10  C   UNL     1      44.990   3.484   8.756  0.00  0.00    +0.000 C 
ATOM     11  C   UNL     1      45.528   2.112   9.197  0.00  0.00    +0.000 C 
ATOM     12  C   UNL     1      46.064   1.305   8.019  0.00  0.00    +0.000 C 
ATOM     13  C   UNL     1      47.113   2.092   7.241  0.00  0.00    +0.000 C 
ATOM     14  C   UNL     1      46.558   3.429   6.759  0.00  0.00    +0.000 C 
ATOM     15  C   UNL     1      46.020   4.262   7.920  0.00  0.00    +0.000 C 
ENDBRANCH   8  10
ENDBRANCH   1   4
BRANCH   1  16
ATOM     16  N   UNL     1      45.105   8.287  12.622  0.00  0.00    +0.000 N 
ATOM     17  H   UNL     1      44.193   8.017  12.993  0.00  0.00    +0.000 HD
BRANCH  16  24
ATOM     18 CL   UNL     1      42.508  10.954   9.012  0.00  0.00    +0.000 Cl
ATOM     19  C   UNL     1      43.842  10.741  10.077  0.00  0.00    +0.000 A 
ATOM     20  C   UNL     1      44.859  11.698  10.097  0.00  0.00    +0.000 A 
ATOM     21  C   UNL     1      45.934  11.504  10.954  0.00  0.00    +0.000 A 
ATOM     22 CL   UNL     1      47.240  12.630  10.951  0.00  0.00    +0.000 Cl
ATOM     23  C   UNL     1      45.982  10.396  11.802  0.00  0.00    +0.000 A 
ATOM     24  C   UNL     1      44.946   9.436  11.807  0.00  0.00    +0.000 A 
ATOM     25  C   UNL     1      43.901   9.607  10.897  0.00  0.00    +0.000 A 
ENDBRANCH  16  24
ENDBRANCH   1  16
TORSDOF 4
ENDMDL
MODEL 2
REMARK VINA RESULT:    -7.459      3.587      5.401
REMARK INTER + INTRA:         -10.230
REMARK INTER:                  -9.408
REMARK INTRA:                  -0.822
REMARK UNBOUND:                -1.027
REMARK  Name = 
REMARK  4 active torsions:
REMARK  status: ('A' for Active; 'I' for Inactive)
REMARK    1  A    between atoms: C_7  and  N_8
REMARK    2  A    between atoms: N_8  and  C_9
REMARK    3  A    between atoms: C_9  and  C_10
REMARK    4  A    between atoms: C_14  and  C_15
REMARK                            x       y       z     vdW  Elec       q    Type
REMARK                         _______ _______ _______ _____ _____    ______ ____
ROOT
ATOM      1  C   UNL     1      46.415   6.841  12.641  0.00  0.00    +0.000 C 
ATOM      2  C   UNL     1      46.960   8.111  11.981  0.00  0.00    +0.000 C 
ATOM      3  C   UNL     1      46.081   8.222  13.182  0.00  0.00    +0.000 C 
ENDROOT
BRANCH   1   4
ATOM      4  C   UNL     1      45.305   6.123  11.892  0.00  0.00    +0.000 A 
ATOM      5  C   UNL     1      43.966   6.374  12.185  0.00  0.00    +0.000 A 
ATOM      6  C   UNL     1      42.987   5.791  11.414  0.00  0.00    +0.000 A 
ATOM      7  N   UNL     1      43.243   4.945  10.393  0.00  0.00    +0.000 NA
ATOM      8  C   UNL     1      44.537   4.659  10.126  0.00  0.00    +0.000 A 
ATOM      9  C   UNL     1      45.585   5.218  10.852  0.00  0.00    +0.000 A 
BRANCH   8  10
ATOM     10  C   UNL     1      44.830   3.717   8.976  0.00  0.00    +0.000 C 
ATOM     11  C   UNL     1      45.205   2.323   9.506  0.00  0.00    +0.000 C 
ATOM     12  C   UNL     1      45.594   1.371   8.378  0.00  0.00    +0.000 C 
ATOM     13  C   UNL     1      46.705   1.960   7.516  0.00  0.00    +0.000 C 
ATOM     14  C   UNL     1      46.307   3.319   6.950  0.00  0.00    +0.000 C 
ATOM     15  C   UNL     1      45.921   4.294   8.059  0.00  0.00    +0.000 C 
ENDBRANCH   8  10
ENDBRANCH   1   4
BRANCH   1  16
ATOM     16  N   UNL     1      47.444   5.916  13.192  0.00  0.00    +0.000 N 
ATOM     17  H   UNL     1      47.311   4.982  12.800  0.00  0.00    +0.000 HD
BRANCH  16  24
ATOM     18 CL   UNL     1      50.003   7.530  17.404  0.00  0.00    +0.000 Cl
ATOM     19  C   UNL     1      48.971   6.424  16.584  0.00  0.00    +0.000 A 
ATOM     20  C   UNL     1      48.483   5.309  17.269  0.00  0.00    +0.000 A 
ATOM     21  C   UNL     1      47.662   4.421  16.589  0.00  0.00    +0.000 A 
ATOM     22 CL   UNL     1      47.101   2.998  17.385  0.00  0.00    +0.000 Cl
ATOM     23  C   UNL     1      47.302   4.654  15.260  0.00  0.00    +0.000 A 
ATOM     24  C   UNL     1      47.769   5.792  14.566  0.00  0.00    +0.000 A 
ATOM     25  C   UNL     1      48.646   6.645  15.240  0.00  0.00    +0.000 A 
ENDBRANCH  16  24
ENDBRANCH   1  16
TORSDOF 4
ENDMDL
MODEL 3
REMARK VINA RESULT:    -7.025      2.124      3.054
REMARK INTER + INTRA:          -9.695
REMARK INTER:                  -8.700
REMARK INTRA:                  -0.995
REMARK UNBOUND:                -1.027
REMARK  Name = 
REMARK  4 active torsions:
REMARK  status: ('A' for Active; 'I' for Inactive)
REMARK    1  A    between atoms: C_7  and  N_8
REMARK    2  A    between atoms: N_8  and  C_9
REMARK    3  A    between atoms: C_9  and  C_10
REMARK    4  A    between atoms: C_14  and  C_15
REMARK                            x       y       z     vdW  Elec       q    Type
REMARK                         _______ _______ _______ _____ _____    ______ ____
ROOT
ATOM      1  C   UNL     1      46.246   5.458  13.404  0.00  0.00    +0.000 C 
ATOM      2  C   UNL     1      46.186   4.598  14.670  0.00  0.00    +0.000 C 
ATOM      3  C   UNL     1      47.273   4.369  13.673  0.00  0.00    +0.000 C 
ENDROOT
BRANCH   1   4
ATOM      4  C   UNL     1      45.203   5.154  12.342  0.00  0.00    +0.000 A 
ATOM      5  C   UNL     1      43.903   5.645  12.458  0.00  0.00    +0.000 A 
ATOM      6  C   UNL     1      43.014   5.446  11.426  0.00  0.00    +0.000 A 
ATOM      7  N   UNL     1      43.315   4.761  10.301  0.00  0.00    +0.000 NA
ATOM      8  C   UNL     1      44.559   4.244  10.196  0.00  0.00    +0.000 A 
ATOM      9  C   UNL     1      45.519   4.412  11.190  0.00  0.00    +0.000 A 
BRANCH   8  10
ATOM     10  C   UNL     1      44.904   3.482   8.932  0.00  0.00    +0.000 C 
ATOM     11  C   UNL     1      45.450   2.086   9.278  0.00  0.00    +0.000 C 
ATOM     12  C   UNL     1      45.892   1.323   8.032  0.00  0.00    +0.000 C 
ATOM     13  C   UNL     1      46.895   2.131   7.216  0.00  0.00    +0.000 C 
ATOM     14  C   UNL     1      46.328   3.494   6.830  0.00  0.00    +0.000 C 
ATOM     15  C   UNL     1      45.885   4.282   8.060  0.00  0.00    +0.000 C 
ENDBRANCH   8  10
ENDBRANCH   1   4
BRANCH   1  16
ATOM     16  N   UNL     1      46.443   6.917  13.632  0.00  0.00    +0.000 N 
ATOM     17  H   UNL     1      45.536   7.372  13.744  0.00  0.00    +0.000 HD
BRANCH  16  24
ATOM     18 CL   UNL     1      50.821   7.730  10.975  0.00  0.00    +0.000 Cl
ATOM     19  C   UNL     1      49.325   8.261  11.636  0.00  0.00    +0.000 A 
ATOM     20  C   UNL     1      48.938   9.593  11.467  0.00  0.00    +0.000 A 
ATOM     21  C   UNL     1      47.733  10.007  12.018  0.00  0.00    +0.000 A 
ATOM     22 CL   UNL     1      47.261  11.661  11.888  0.00  0.00    +0.000 Cl
ATOM     23  C   UNL     1      46.910   9.106  12.696  0.00  0.00    +0.000 A 
ATOM     24  C   UNL     1      47.280   7.752  12.850  0.00  0.00    +0.000 A 
ATOM     25  C   UNL     1      48.523   7.361  12.348  0.00  0.00    +0.000 A 
ENDBRANCH  16  24
ENDBRANCH   1  16
TORSDOF 4
ENDMDL
MODEL 4
REMARK VINA RESULT:    -6.421      3.336      3.730
REMARK INTER + INTRA:          -8.949
REMARK INTER:                  -8.219
REMARK INTRA:                  -0.731
REMARK UNBOUND:                -1.027
REMARK  Name = 
REMARK  4 active torsions:
REMARK  status: ('A' for Active; 'I' for Inactive)
REMARK    1  A    between atoms: C_7  and  N_8
REMARK    2  A    between atoms: N_8  and  C_9
REMARK    3  A    between atoms: C_9  and  C_10
REMARK    4  A    between atoms: C_14  and  C_15
REMARK                            x       y       z     vdW  Elec       q    Type
REMARK                         _______ _______ _______ _____ _____    ______ ____
ROOT
ATOM      1  C   UNL     1      46.160   5.378  13.339  0.00  0.00    +0.000 C 
ATOM      2  C   UNL     1      46.102   4.554  14.628  0.00  0.00    +0.000 C 
ATOM      3  C   UNL     1      47.209   4.325  13.655  0.00  0.00    +0.000 C 
ENDROOT
BRANCH   1   4
ATOM      4  C   UNL     1      45.141   5.018  12.270  0.00  0.00    +0.000 A 
ATOM      5  C   UNL     1      43.808   5.406  12.396  0.00  0.00    +0.000 A 
ATOM      6  C   UNL     1      42.935   5.161  11.360  0.00  0.00    +0.000 A 
ATOM      7  N   UNL     1      43.285   4.523  10.221  0.00  0.00    +0.000 NA
ATOM      8  C   UNL     1      44.566   4.105  10.106  0.00  0.00    +0.000 A 
ATOM      9  C   UNL     1      45.511   4.326  11.104  0.00  0.00    +0.000 A 
BRANCH   8  10
ATOM     10  C   UNL     1      44.965   3.398   8.827  0.00  0.00    +0.000 C 
ATOM     11  C   UNL     1      45.544   2.007   9.140  0.00  0.00    +0.000 C 
ATOM     12  C   UNL     1      46.040   1.301   7.882  0.00  0.00    +0.000 C 
ATOM     13  C   UNL     1      47.040   2.164   7.121  0.00  0.00    +0.000 C 
ATOM     14  C   UNL     1      46.443   3.523   6.766  0.00  0.00    +0.000 C 
ATOM     15  C   UNL     1      45.945   4.255   8.009  0.00  0.00    +0.000 C 
ENDBRANCH   8  10
ENDBRANCH   1   4
BRANCH   1  16
ATOM     16  N   UNL     1      46.316   6.848  13.527  0.00  0.00    +0.000 N 
ATOM     17  H   UNL     1      45.657   7.343  12.925  0.00  0.00    +0.000 HD
BRANCH  16  24
ATOM     18 CL   UNL     1      49.502  10.475  15.421  0.00  0.00    +0.000 Cl
ATOM     19  C   UNL     1      49.101   9.251  14.281  0.00  0.00    +0.000 A 
ATOM     20  C   UNL     1      49.992   8.964  13.244  0.00  0.00    +0.000 A 
ATOM     21  C   UNL     1      49.647   7.983  12.326  0.00  0.00    +0.000 A 
ATOM     22 CL   UNL     1      50.693   7.654  10.995  0.00  0.00    +0.000 Cl
ATOM     23  C   UNL     1      48.451   7.273  12.454  0.00  0.00    +0.000 A 
ATOM     24  C   UNL     1      47.555   7.538  13.513  0.00  0.00    +0.000 A 
ATOM     25  C   UNL     1      47.882   8.571  14.394  0.00  0.00    +0.000 A 
ENDBRANCH  16  24
ENDBRANCH   1  16
TORSDOF 4
ENDMDL
MODEL 5
REMARK VINA RESULT:    -6.243      3.512      7.292
REMARK INTER + INTRA:          -8.730
REMARK INTER:                  -7.658
REMARK INTRA:                  -1.072
REMARK UNBOUND:                -1.027
REMARK  Name = 
REMARK  4 active torsions:
REMARK  status: ('A' for Active; 'I' for Inactive)
REMARK    1  A    between atoms: C_7  and  N_8
REMARK    2  A    between atoms: N_8  and  C_9
REMARK    3  A    between atoms: C_9  and  C_10
REMARK    4  A    between atoms: C_14  and  C_15
REMARK                            x       y       z     vdW  Elec       q    Type
REMARK                         _______ _______ _______ _____ _____    ______ ____
ROOT
ATOM      1  C   UNL     1      44.180   4.334  11.106  0.00  0.00    +0.000 C 
ATOM      2  C   UNL     1      42.803   4.719  11.654  0.00  0.00    +0.000 C 
ATOM      3  C   UNL     1      43.458   5.583  10.628  0.00  0.00    +0.000 C 
ENDROOT
BRANCH   1   4
ATOM      4  C   UNL     1      45.356   4.551  12.043  0.00  0.00    +0.000 A 
ATOM      5  C   UNL     1      45.814   3.522  12.865  0.00  0.00    +0.000 A 
ATOM      6  C   UNL     1      46.948   3.716  13.620  0.00  0.00    +0.000 A 
ATOM      7  N   UNL     1      47.641   4.876  13.644  0.00  0.00    +0.000 NA
ATOM      8  C   UNL     1      47.182   5.895  12.884  0.00  0.00    +0.000 A 
ATOM      9  C   UNL     1      46.050   5.774  12.084  0.00  0.00    +0.000 A 
BRANCH   8  10
ATOM     10  C   UNL     1      47.961   7.195  12.902  0.00  0.00    +0.000 C 
ATOM     11  C   UNL     1      47.010   8.388  13.101  0.00  0.00    +0.000 C 
ATOM     12  C   UNL     1      47.749   9.722  13.035  0.00  0.00    +0.000 C 
ATOM     13  C   UNL     1      48.544   9.850  11.740  0.00  0.00    +0.000 C 
ATOM     14  C   UNL     1      49.523   8.692  11.573  0.00  0.00    +0.000 C 
ATOM     15  C   UNL     1      48.808   7.344  11.627  0.00  0.00    +0.000 C 
ENDBRANCH   8  10
ENDBRANCH   1   4
BRANCH   1  16
ATOM     16  N   UNL     1      44.238   3.031  10.386  0.00  0.00    +0.000 N 
ATOM     17  H   UNL     1      44.282   2.267  11.062  0.00  0.00    +0.000 HD
BRANCH  16  24
ATOM     18 CL   UNL     1      46.917   4.510   6.199  0.00  0.00    +0.000 Cl
ATOM     19  C   UNL     1      46.356   3.311   7.298  0.00  0.00    +0.000 A 
ATOM     20  C   UNL     1      46.709   1.976   7.091  0.00  0.00    +0.000 A 
ATOM     21  C   UNL     1      46.237   1.021   7.980  0.00  0.00    +0.000 A 
ATOM     22 CL   UNL     1      46.596  -0.645   7.712  0.00  0.00    +0.000 Cl
ATOM     23  C   UNL     1      45.455   1.389   9.077  0.00  0.00    +0.000 A 
ATOM     24  C   UNL     1      45.114   2.740   9.309  0.00  0.00    +0.000 A 
ATOM     25  C   UNL     1      45.540   3.684   8.374  0.00  0.00    +0.000 A 
ENDBRANCH  16  24
ENDBRANCH   1  16
TORSDOF 4
ENDMDL
MODEL 6
REMARK VINA RESULT:    -6.032      4.042      7.198
REMARK INTER + INTRA:          -8.470
REMARK INTER:                  -7.616
REMARK INTRA:                  -0.853
REMARK UNBOUND:                -1.027
REMARK  Name = 
REMARK  4 active torsions:
REMARK  status: ('A' for Active; 'I' for Inactive)
REMARK    1  A    between atoms: C_7  and  N_8
REMARK    2  A    between atoms: N_8  and  C_9
REMARK    3  A    between atoms: C_9  and  C_10
REMARK    4  A    between atoms: C_14  and  C_15
REMARK                            x       y       z     vdW  Elec       q    Type
REMARK                         _______ _______ _______ _____ _____    ______ ____
ROOT
ATOM      1  C   UNL     1      48.121   7.903  12.691  0.00  0.00    +0.000 C 
ATOM      2  C   UNL     1      48.963   8.909  11.902  0.00  0.00    +0.000 C 
ATOM      3  C   UNL     1      49.272   7.453  11.806  0.00  0.00    +0.000 C 
ENDROOT
BRANCH   1   4
ATOM      4  C   UNL     1      48.364   7.859  14.190  0.00  0.00    +0.000 A 
ATOM      5  C   UNL     1      48.417   9.034  14.939  0.00  0.00    +0.000 A 
ATOM      6  C   UNL     1      48.528   8.954  16.309  0.00  0.00    +0.000 A 
ATOM      7  N   UNL     1      48.628   7.789  16.985  0.00  0.00    +0.000 NA
ATOM      8  C   UNL     1      48.621   6.645  16.266  0.00  0.00    +0.000 A 
ATOM      9  C   UNL     1      48.500   6.641  14.879  0.00  0.00    +0.000 A 
BRANCH   8  10
ATOM     10  C   UNL     1      48.724   5.335  17.021  0.00  0.00    +0.000 C 
ATOM     11  C   UNL     1      50.196   4.910  17.160  0.00  0.00    +0.000 C 
ATOM     12  C   UNL     1      50.333   3.549  17.837  0.00  0.00    +0.000 C 
ATOM     13  C   UNL     1      49.510   2.487  17.117  0.00  0.00    +0.000 C 
ATOM     14  C   UNL     1      48.041   2.890  17.029  0.00  0.00    +0.000 C 
ATOM     15  C   UNL     1      47.874   4.246  16.347  0.00  0.00    +0.000 C 
ENDBRANCH   8  10
ENDBRANCH   1   4
BRANCH   1  16
ATOM     16  N   UNL     1      46.676   7.859  12.331  0.00  0.00    +0.000 N 
ATOM     17  H   UNL     1      46.128   8.326  13.055  0.00  0.00    +0.000 HD
BRANCH  16  24
ATOM     18 CL   UNL     1      45.451   4.389   8.677  0.00  0.00    +0.000 Cl
ATOM     19  C   UNL     1      45.291   5.054  10.255  0.00  0.00    +0.000 A 
ATOM     20  C   UNL     1      44.385   4.479  11.150  0.00  0.00    +0.000 A 
ATOM     21  C   UNL     1      44.259   5.035  12.415  0.00  0.00    +0.000 A 
ATOM     22 CL   UNL     1      43.099   4.393  13.517  0.00  0.00    +0.000 Cl
ATOM     23  C   UNL     1      45.045   6.124  12.798  0.00  0.00    +0.000 A 
ATOM     24  C   UNL     1      45.982   6.697  11.910  0.00  0.00    +0.000 A 
ATOM     25  C   UNL     1      46.054   6.170  10.619  0.00  0.00    +0.000 A 
ENDBRANCH  16  24
ENDBRANCH   1  16
TORSDOF 4
ENDMDL
MODEL 7
REMARK VINA RESULT:    -6.016      4.390      6.784
REMARK INTER + INTRA:          -8.449
REMARK INTER:                  -7.513
REMARK INTRA:                  -0.936
REMARK UNBOUND:                -1.027
REMARK  Name = 
REMARK  4 active torsions:
REMARK  status: ('A' for Active; 'I' for Inactive)
REMARK    1  A    between atoms: C_7  and  N_8
REMARK    2  A    between atoms: N_8  and  C_9
REMARK    3  A    between atoms: C_9  and  C_10
REMARK    4  A    between atoms: C_14  and  C_15
REMARK                            x       y       z     vdW  Elec       q    Type
REMARK                         _______ _______ _______ _____ _____    ______ ____
ROOT
ATOM      1  C   UNL     1      49.260   7.916  14.295  0.00  0.00    +0.000 C 
ATOM      2  C   UNL     1      50.357   8.285  13.292  0.00  0.00    +0.000 C 
ATOM      3  C   UNL     1      49.865   9.310  14.257  0.00  0.00    +0.000 C 
ENDROOT
BRANCH   1   4
ATOM      4  C   UNL     1      47.858   7.772  13.727  0.00  0.00    +0.000 A 
ATOM      5  C   UNL     1      47.008   8.874  13.637  0.00  0.00    +0.000 A 
ATOM      6  C   UNL     1      45.787   8.733  13.017  0.00  0.00    +0.000 A 
ATOM      7  N   UNL     1      45.334   7.564  12.513  0.00  0.00    +0.000 NA
ATOM      8  C   UNL     1      46.131   6.479  12.633  0.00  0.00    +0.000 A 
ATOM      9  C   UNL     1      47.385   6.543  13.235  0.00  0.00    +0.000 A 
BRANCH   8  10
ATOM     10  C   UNL     1      45.631   5.169  12.061  0.00  0.00    +0.000 C 
ATOM     11  C   UNL     1      45.124   5.368  10.623  0.00  0.00    +0.000 C 
ATOM     12  C   UNL     1      44.530   4.086  10.046  0.00  0.00    +0.000 C 
ATOM     13  C   UNL     1      43.438   3.527  10.951  0.00  0.00    +0.000 C 
ATOM     14  C   UNL     1      43.961   3.280  12.363  0.00  0.00    +0.000 C 
ATOM     15  C   UNL     1      44.554   4.550  12.968  0.00  0.00    +0.000 C 
ENDBRANCH   8  10
ENDBRANCH   1   4
BRANCH   1  16
ATOM     16  N   UNL     1      49.614   6.839  15.261  0.00  0.00    +0.000 N 
ATOM     17  H   UNL     1      49.878   5.994  14.751  0.00  0.00    +0.000 HD
BRANCH  16  24
ATOM     18 CL   UNL     1      47.636   7.872  19.942  0.00  0.00    +0.000 Cl
ATOM     19  C   UNL     1      47.907   6.824  18.604  0.00  0.00    +0.000 A 
ATOM     20  C   UNL     1      47.403   5.522  18.644  0.00  0.00    +0.000 A 
ATOM     21  C   UNL     1      47.641   4.686  17.562  0.00  0.00    +0.000 A 
ATOM     22 CL   UNL     1      47.093   3.052  17.610  0.00  0.00    +0.000 Cl
ATOM     23  C   UNL     1      48.340   5.146  16.444  0.00  0.00    +0.000 A 
ATOM     24  C   UNL     1      48.831   6.469  16.383  0.00  0.00    +0.000 A 
ATOM     25  C   UNL     1      48.642   7.281  17.503  0.00  0.00    +0.000 A 
ENDBRANCH  16  24
ENDBRANCH   1  16
TORSDOF 4
ENDMDL
MODEL 8
REMARK VINA RESULT:    -5.883      4.453      6.692
REMARK INTER + INTRA:          -8.286
REMARK INTER:                  -7.356
REMARK INTRA:                  -0.929
REMARK UNBOUND:                -1.027
REMARK  Name = 
REMARK  4 active torsions:
REMARK  status: ('A' for Active; 'I' for Inactive)
REMARK    1  A    between atoms: C_7  and  N_8
REMARK    2  A    between atoms: N_8  and  C_9
REMARK    3  A    between atoms: C_9  and  C_10
REMARK    4  A    between atoms: C_14  and  C_15
REMARK                            x       y       z     vdW  Elec       q    Type
REMARK                         _______ _______ _______ _____ _____    ______ ____
ROOT
ATOM      1  C   UNL     1      49.154   8.026  14.540  0.00  0.00    +0.000 C 
ATOM      2  C   UNL     1      50.243   8.736  13.730  0.00  0.00    +0.000 C 
ATOM      3  C   UNL     1      49.566   9.457  14.847  0.00  0.00    +0.000 C 
ENDROOT
BRANCH   1   4
ATOM      4  C   UNL     1      47.816   7.843  13.844  0.00  0.00    +0.000 A 
ATOM      5  C   UNL     1      46.941   8.916  13.685  0.00  0.00    +0.000 A 
ATOM      6  C   UNL     1      45.789   8.743  12.953  0.00  0.00    +0.000 A 
ATOM      7  N   UNL     1      45.424   7.566  12.398  0.00  0.00    +0.000 NA
ATOM      8  C   UNL     1      46.244   6.507  12.581  0.00  0.00    +0.000 A 
ATOM      9  C   UNL     1      47.434   6.605  13.298  0.00  0.00    +0.000 A 
BRANCH   8  10
ATOM     10  C   UNL     1      45.844   5.188  11.953  0.00  0.00    +0.000 C 
ATOM     11  C   UNL     1      45.180   5.422  10.586  0.00  0.00    +0.000 C 
ATOM     12  C   UNL     1      44.684   4.121   9.963  0.00  0.00    +0.000 C 
ATOM     13  C   UNL     1      43.756   3.371  10.914  0.00  0.00    +0.000 C 
ATOM     14  C   UNL     1      44.439   3.094  12.250  0.00  0.00    +0.000 C 
ATOM     15  C   UNL     1      44.939   4.382  12.899  0.00  0.00    +0.000 C 
ENDBRANCH   8  10
ENDBRANCH   1   4
BRANCH   1  16
ATOM     16  N   UNL     1      49.600   6.813  15.282  0.00  0.00    +0.000 N 
ATOM     17  H   UNL     1      49.791   6.059  14.621  0.00  0.00    +0.000 HD
BRANCH  16  24
ATOM     18 CL   UNL     1      47.155   2.910  17.666  0.00  0.00    +0.000 Cl
ATOM     19  C   UNL     1      47.729   4.531  17.603  0.00  0.00    +0.000 A 
ATOM     20  C   UNL     1      47.479   5.387  18.679  0.00  0.00    +0.000 A 
ATOM     21  C   UNL     1      47.938   6.694  18.605  0.00  0.00    +0.000 A 
ATOM     22 CL   UNL     1      47.585   7.794  19.885  0.00  0.00    +0.000 Cl
ATOM     23  C   UNL     1      48.663   7.136  17.497  0.00  0.00    +0.000 A 
ATOM     24  C   UNL     1      48.943   6.272  16.416  0.00  0.00    +0.000 A 
ATOM     25  C   UNL     1      48.422   4.978  16.471  0.00  0.00    +0.000 A 
ENDBRANCH  16  24
ENDBRANCH   1  16
TORSDOF 4
ENDMDL
MODEL 9
REMARK VINA RESULT:    -5.713      5.698      8.085
REMARK INTER + INTRA:          -8.075
REMARK INTER:                  -7.379
REMARK INTRA:                  -0.696
REMARK UNBOUND:                -1.027
REMARK  Name = 
REMARK  4 active torsions:
REMARK  status: ('A' for Active; 'I' for Inactive)
REMARK    1  A    between atoms: C_7  and  N_8
REMARK    2  A    between atoms: N_8  and  C_9
REMARK    3  A    between atoms: C_9  and  C_10
REMARK    4  A    between atoms: C_14  and  C_15
REMARK                            x       y       z     vdW  Elec       q    Type
REMARK                         _______ _______ _______ _____ _____    ______ ____
ROOT
ATOM      1  C   UNL     1      47.891   4.199  17.090  0.00  0.00    +0.000 C 
ATOM      2  C   UNL     1      47.730   2.686  16.919  0.00  0.00    +0.000 C 
ATOM      3  C   UNL     1      49.085   3.260  17.167  0.00  0.00    +0.000 C 
ENDROOT
BRANCH   1   4
ATOM      4  C   UNL     1      47.766   5.031  15.825  0.00  0.00    +0.000 A 
ATOM      5  C   UNL     1      48.602   6.124  15.604  0.00  0.00    +0.000 A 
ATOM      6  C   UNL     1      48.538   6.788  14.400  0.00  0.00    +0.000 A 
ATOM      7  N   UNL     1      47.673   6.467  13.413  0.00  0.00    +0.000 NA
ATOM      8  C   UNL     1      46.827   5.435  13.633  0.00  0.00    +0.000 A 
ATOM      9  C   UNL     1      46.839   4.706  14.819  0.00  0.00    +0.000 A 
BRANCH   8  10
ATOM     10  C   UNL     1      45.862   5.065  12.526  0.00  0.00    +0.000 C 
ATOM     11  C   UNL     1      44.584   5.918  12.619  0.00  0.00    +0.000 C 
ATOM     12  C   UNL     1      43.551   5.510  11.573  0.00  0.00    +0.000 C 
ATOM     13  C   UNL     1      43.236   4.021  11.657  0.00  0.00    +0.000 C 
ATOM     14  C   UNL     1      44.500   3.178  11.510  0.00  0.00    +0.000 C 
ATOM     15  C   UNL     1      45.549   3.560  12.551  0.00  0.00    +0.000 C 
ENDBRANCH   8  10
ENDBRANCH   1   4
BRANCH   1  16
ATOM     16  N   UNL     1      47.171   4.789  18.254  0.00  0.00    +0.000 N 
ATOM     17  H   UNL     1      46.278   5.175  17.944  0.00  0.00    +0.000 HD
BRANCH  16  24
ATOM     18 CL   UNL     1      50.305   5.696  22.285  0.00  0.00    +0.000 Cl
ATOM     19  C   UNL     1      49.139   6.198  21.124  0.00  0.00    +0.000 A 
ATOM     20  C   UNL     1      48.675   7.515  21.148  0.00  0.00    +0.000 A 
ATOM     21  C   UNL     1      47.725   7.900  20.213  0.00  0.00    +0.000 A 
ATOM     22 CL   UNL     1      47.080   9.499  20.261  0.00  0.00    +0.000 Cl
ATOM     23  C   UNL     1      47.268   7.001  19.247  0.00  0.00    +0.000 A 
ATOM     24  C   UNL     1      47.749   5.674  19.198  0.00  0.00    +0.000 A 
ATOM     25  C   UNL     1      48.657   5.280  20.183  0.00  0.00    +0.000 A 
ENDBRANCH  16  24
ENDBRANCH   1  16
TORSDOF 4
ENDMDL
