MODEL 1
REMARK VINA RESULT:    -6.889      0.000      0.000
REMARK INTER + INTRA:         -14.132
REMARK INTER:                 -11.320
REMARK INTRA:                  -2.812
REMARK UNBOUND:                -2.812
REMARK  Name = 
REMARK  14 active torsions:
REMARK  status: ('A' for Active; 'I' for Inactive)
REMARK    1  A    between atoms: C_1  and  C_2
REMARK    2  A    between atoms: C_2  and  C_3
REMARK    3  A    between atoms: C_2  and  O_4
REMARK    4  A    between atoms: C_2  and  C_34
REMARK    5  A    between atoms: O_4  and  C_5
REMARK    6  A    between atoms: C_8  and  C_9
REMARK    7  A    between atoms: C_9  and  N_10
REMARK    8  A    between atoms: N_10  and  C_11
REMARK    9  A    between atoms: C_11  and  C_12
REMARK   10  A    between atoms: C_15  and  C_16
REMARK   11  A    between atoms: C_16  and  N_17
REMARK   12  A    between atoms: C_18  and  C_20
REMARK   13  A    between atoms: C_27  and  O_28
REMARK   14  A    between atoms: C_34  and  O_36
REMARK                            x       y       z     vdW  Elec       q    Type
REMARK                         _______ _______ _______ _____ _____    ______ ____
ROOT
ATOM      1  C   UNL     1      49.394   9.825  18.228  0.00  0.00    +0.000 A 
ATOM      2  C   UNL     1      48.154   9.635  17.619  0.00  0.00    +0.000 A 
ATOM      3  C   UNL     1      48.099   9.005  16.377  0.00  0.00    +0.000 A 
ATOM      4  C   UNL     1      49.278   8.576  15.767  0.00  0.00    +0.000 A 
ATOM      5  C   UNL     1      50.471   8.849  16.425  0.00  0.00    +0.000 A 
ATOM      6  N   UNL     1      50.555   9.461  17.629  0.00  0.00    +0.000 NA
ENDROOT
BRANCH   1   7
ATOM      7  C   UNL     1      49.484  10.452  19.610  0.00  0.00    +0.000 C 
BRANCH   7   8
ATOM      8  N   UNL     1      48.374  10.041  20.478  0.00  0.00    +0.000 NA
ATOM      9  H   UNL     1      47.986  10.854  20.950  0.00  0.00    +0.000 HD
BRANCH   8  10
ATOM     10  C   UNL     1      48.811   9.082  21.483  0.00  0.00    +0.000 C 
BRANCH  10  14
ATOM     11  C   UNL     1      48.619   5.103  19.789  0.00  0.00    +0.000 A 
ATOM     12  C   UNL     1      47.470   5.894  19.853  0.00  0.00    +0.000 A 
ATOM     13  C   UNL     1      47.519   7.174  20.419  0.00  0.00    +0.000 A 
ATOM     14  C   UNL     1      48.720   7.674  20.941  0.00  0.00    +0.000 A 
ATOM     15  C   UNL     1      49.841   6.842  20.952  0.00  0.00    +0.000 A 
ATOM     16  C   UNL     1      49.782   5.560  20.402  0.00  0.00    +0.000 A 
BRANCH  11  17
ATOM     17  O   UNL     1      48.489   3.919  19.118  0.00  0.00    +0.000 OA
BRANCH  17  19
ATOM     18  C   UNL     1      49.162   5.169  17.037  0.00  0.00    +0.000 C 
ATOM     19  C   UNL     1      48.712   3.850  17.686  0.00  0.00    +0.000 C 
ATOM     20  C   UNL     1      49.613   2.659  17.344  0.00  0.00    +0.000 C 
BRANCH  19  21
ATOM     21  C   UNL     1      47.333   3.528  17.060  0.00  0.00    +0.000 C 
ATOM     22  O   UNL     1      46.933   3.956  15.989  0.00  0.00    +0.000 OA
BRANCH  21  23
ATOM     23  O   UNL     1      46.571   2.704  17.827  0.00  0.00    +0.000 OA
ATOM     24  H   UNL     1      46.896   2.735  18.753  0.00  0.00    +0.000 HD
ENDBRANCH  21  23
ENDBRANCH  19  21
ENDBRANCH  17  19
ENDBRANCH  11  17
ENDBRANCH  10  14
ENDBRANCH   8  10
ENDBRANCH   7   8
ENDBRANCH   1   7
BRANCH   4  25
ATOM     25  C   UNL     1      49.271   7.877  14.442  0.00  0.00    +0.000 C 
BRANCH  25  26
ATOM     26  N   UNL     1      47.930   7.662  13.966  0.00  0.00    +0.000 N 
ATOM     27  C   UNL     1      47.560   6.469  13.395  0.00  0.00    +0.000 C 
ATOM     28  O   UNL     1      48.332   5.519  13.295  0.00  0.00    +0.000 OA
ATOM     29  H   UNL     1      47.309   8.460  13.891  0.00  0.00    +0.000 HD
BRANCH  27  30
ATOM     30  C   UNL     1      46.166   6.385  12.967  0.00  0.00    +0.000 A 
ATOM     31  C   UNL     1      45.391   7.502  12.675  0.00  0.00    +0.000 A 
ATOM     32  N   UNL     1      44.155   7.085  12.257  0.00  0.00    +0.000 N 
ATOM     33  C   UNL     1      44.094   5.722  12.307  0.00  0.00    +0.000 A 
ATOM     34  N   UNL     1      43.017   4.991  11.978  0.00  0.00    +0.000 NA
ATOM     35  C   UNL     1      43.240   3.675  12.142  0.00  0.00    +0.000 A 
ATOM     36  N   UNL     1      44.362   3.069  12.576  0.00  0.00    +0.000 NA
ATOM     37  C   UNL     1      45.394   3.867  12.877  0.00  0.00    +0.000 A 
ATOM     38  C   UNL     1      45.319   5.249  12.753  0.00  0.00    +0.000 A 
ATOM     39  H   UNL     1      43.391   7.675  11.958  0.00  0.00    +0.000 HD
BRANCH  37  40
ATOM     40  O   UNL     1      46.514   3.214  13.307  0.00  0.00    +0.000 OA
ATOM     41  H   UNL     1      46.539   2.473  12.672  0.00  0.00    +0.000 HD
ENDBRANCH  37  40
ENDBRANCH  27  30
ENDBRANCH  25  26
ENDBRANCH   4  25
TORSDOF 12
ENDMDL
MODEL 2
REMARK VINA RESULT:    -6.537      2.793      5.027
REMARK INTER + INTRA:         -13.553
REMARK INTER:                 -11.779
REMARK INTRA:                  -1.774
REMARK UNBOUND:                -2.812
REMARK  Name = 
REMARK  14 active torsions:
REMARK  status: ('A' for Active; 'I' for Inactive)
REMARK    1  A    between atoms: C_1  and  C_2
REMARK    2  A    between atoms: C_2  and  C_3
REMARK    3  A    between atoms: C_2  and  O_4
REMARK    4  A    between atoms: C_2  and  C_34
REMARK    5  A    between atoms: O_4  and  C_5
REMARK    6  A    between atoms: C_8  and  C_9
REMARK    7  A    between atoms: C_9  and  N_10
REMARK    8  A    between atoms: N_10  and  C_11
REMARK    9  A    between atoms: C_11  and  C_12
REMARK   10  A    between atoms: C_15  and  C_16
REMARK   11  A    between atoms: C_16  and  N_17
REMARK   12  A    between atoms: C_18  and  C_20
REMARK   13  A    between atoms: C_27  and  O_28
REMARK   14  A    between atoms: C_34  and  O_36
REMARK                            x       y       z     vdW  Elec       q    Type
REMARK                         _______ _______ _______ _____ _____    ______ ____
ROOT
ATOM      1  C   UNL     1      48.618   9.749  12.105  0.00  0.00    +0.000 A 
ATOM      2  C   UNL     1      48.577   8.361  11.979  0.00  0.00    +0.000 A 
ATOM      3  C   UNL     1      47.341   7.723  11.896  0.00  0.00    +0.000 A 
ATOM      4  C   UNL     1      46.170   8.479  11.939  0.00  0.00    +0.000 A 
ATOM      5  C   UNL     1      46.304   9.851  12.113  0.00  0.00    +0.000 A 
ATOM      6  N   UNL     1      47.490  10.497  12.200  0.00  0.00    +0.000 NA
ENDROOT
BRANCH   1   7
ATOM      7  C   UNL     1      49.949  10.480  12.135  0.00  0.00    +0.000 C 
BRANCH   7   8
ATOM      8  N   UNL     1      50.125  11.263  13.364  0.00  0.00    +0.000 NA
ATOM      9  H   UNL     1      50.525  12.170  13.142  0.00  0.00    +0.000 HD
BRANCH   8  10
ATOM     10  C   UNL     1      51.002  10.583  14.307  0.00  0.00    +0.000 C 
BRANCH  10  14
ATOM     11  C   UNL     1      48.988   7.055  15.801  0.00  0.00    +0.000 A 
ATOM     12  C   UNL     1      48.394   8.312  15.937  0.00  0.00    +0.000 A 
ATOM     13  C   UNL     1      49.049   9.460  15.475  0.00  0.00    +0.000 A 
ATOM     14  C   UNL     1      50.316   9.366  14.883  0.00  0.00    +0.000 A 
ATOM     15  C   UNL     1      50.937   8.117  14.831  0.00  0.00    +0.000 A 
ATOM     16  C   UNL     1      50.288   6.977  15.308  0.00  0.00    +0.000 A 
BRANCH  11  17
ATOM     17  O   UNL     1      48.219   5.990  16.180  0.00  0.00    +0.000 OA
BRANCH  17  19
ATOM     18  C   UNL     1      49.542   4.214  17.381  0.00  0.00    +0.000 C 
ATOM     19  C   UNL     1      48.464   5.309  17.438  0.00  0.00    +0.000 C 
ATOM     20  C   UNL     1      48.683   6.327  18.561  0.00  0.00    +0.000 C 
BRANCH  19  21
ATOM     21  C   UNL     1      47.145   4.577  17.784  0.00  0.00    +0.000 C 
ATOM     22  O   UNL     1      46.820   3.480  17.357  0.00  0.00    +0.000 OA
BRANCH  21  23
ATOM     23  O   UNL     1      46.343   5.278  18.628  0.00  0.00    +0.000 OA
ATOM     24  H   UNL     1      46.387   4.876  19.522  0.00  0.00    +0.000 HD
ENDBRANCH  21  23
ENDBRANCH  19  21
ENDBRANCH  17  19
ENDBRANCH  11  17
ENDBRANCH  10  14
ENDBRANCH   8  10
ENDBRANCH   7   8
ENDBRANCH   1   7
BRANCH   4  25
ATOM     25  C   UNL     1      44.817   7.844  11.834  0.00  0.00    +0.000 C 
BRANCH  25  26
ATOM     26  N   UNL     1      44.909   6.474  11.402  0.00  0.00    +0.000 N 
ATOM     27  C   UNL     1      43.792   5.682  11.304  0.00  0.00    +0.000 C 
ATOM     28  O   UNL     1      42.663   6.102  11.540  0.00  0.00    +0.000 OA
ATOM     29  H   UNL     1      45.826   6.046  11.342  0.00  0.00    +0.000 HD
BRANCH  27  30
ATOM     30  C   UNL     1      44.031   4.316  10.842  0.00  0.00    +0.000 A 
ATOM     31  C   UNL     1      43.477   3.199  11.455  0.00  0.00    +0.000 A 
ATOM     32  N   UNL     1      43.850   2.081  10.755  0.00  0.00    +0.000 N 
ATOM     33  C   UNL     1      44.667   2.443   9.723  0.00  0.00    +0.000 A 
ATOM     34  N   UNL     1      45.223   1.587   8.851  0.00  0.00    +0.000 NA
ATOM     35  C   UNL     1      45.995   2.223   7.953  0.00  0.00    +0.000 A 
ATOM     36  N   UNL     1      46.244   3.544   7.857  0.00  0.00    +0.000 NA
ATOM     37  C   UNL     1      45.647   4.332   8.759  0.00  0.00    +0.000 A 
ATOM     38  C   UNL     1      44.813   3.822   9.748  0.00  0.00    +0.000 A 
ATOM     39  H   UNL     1      43.579   1.129  10.956  0.00  0.00    +0.000 HD
BRANCH  37  40
ATOM     40  O   UNL     1      45.919   5.663   8.625  0.00  0.00    +0.000 OA
ATOM     41  H   UNL     1      45.131   6.048   9.053  0.00  0.00    +0.000 HD
ENDBRANCH  37  40
ENDBRANCH  27  30
ENDBRANCH  25  26
ENDBRANCH   4  25
TORSDOF 12
ENDMDL
MODEL 3
REMARK VINA RESULT:    -6.451      1.774      2.385
REMARK INTER + INTRA:         -13.412
REMARK INTER:                 -10.861
REMARK INTRA:                  -2.551
REMARK UNBOUND:                -2.812
REMARK  Name = 
REMARK  14 active torsions:
REMARK  status: ('A' for Active; 'I' for Inactive)
REMARK    1  A    between atoms: C_1  and  C_2
REMARK    2  A    between atoms: C_2  and  C_3
REMARK    3  A    between atoms: C_2  and  O_4
REMARK    4  A    between atoms: C_2  and  C_34
REMARK    5  A    between atoms: O_4  and  C_5
REMARK    6  A    between atoms: C_8  and  C_9
REMARK    7  A    between atoms: C_9  and  N_10
REMARK    8  A    between atoms: N_10  and  C_11
REMARK    9  A    between atoms: C_11  and  C_12
REMARK   10  A    between atoms: C_15  and  C_16
REMARK   11  A    between atoms: C_16  and  N_17
REMARK   12  A    between atoms: C_18  and  C_20
REMARK   13  A    between atoms: C_27  and  O_28
REMARK   14  A    between atoms: C_34  and  O_36
REMARK                            x       y       z     vdW  Elec       q    Type
REMARK                         _______ _______ _______ _____ _____    ______ ____
ROOT
ATOM      1  C   UNL     1      50.546  10.526  15.112  0.00  0.00    +0.000 A 
ATOM      2  C   UNL     1      49.304  10.564  14.479  0.00  0.00    +0.000 A 
ATOM      3  C   UNL     1      49.026   9.639  13.475  0.00  0.00    +0.000 A 
ATOM      4  C   UNL     1      49.989   8.695  13.120  0.00  0.00    +0.000 A 
ATOM      5  C   UNL     1      51.216   8.761  13.771  0.00  0.00    +0.000 A 
ATOM      6  N   UNL     1      51.514   9.649  14.747  0.00  0.00    +0.000 NA
ENDROOT
BRANCH   1   7
ATOM      7  C   UNL     1      50.857  11.480  16.253  0.00  0.00    +0.000 C 
BRANCH   7   8
ATOM      8  N   UNL     1      51.266  10.771  17.472  0.00  0.00    +0.000 NA
ATOM      9  H   UNL     1      51.884  10.000  17.232  0.00  0.00    +0.000 HD
BRANCH   8  10
ATOM     10  C   UNL     1      50.116  10.242  18.192  0.00  0.00    +0.000 C 
BRANCH  10  14
ATOM     11  C   UNL     1      49.538   6.116  17.019  0.00  0.00    +0.000 A 
ATOM     12  C   UNL     1      48.448   6.988  17.079  0.00  0.00    +0.000 A 
ATOM     13  C   UNL     1      48.624   8.318  17.478  0.00  0.00    +0.000 A 
ATOM     14  C   UNL     1      49.894   8.791  17.836  0.00  0.00    +0.000 A 
ATOM     15  C   UNL     1      50.960   7.890  17.856  0.00  0.00    +0.000 A 
ATOM     16  C   UNL     1      50.777   6.560  17.474  0.00  0.00    +0.000 A 
BRANCH  11  17
ATOM     17  O   UNL     1      49.279   4.874  16.511  0.00  0.00    +0.000 OA
BRANCH  17  19
ATOM     18  C   UNL     1      49.516   2.469  17.221  0.00  0.00    +0.000 C 
ATOM     19  C   UNL     1      48.782   3.812  17.366  0.00  0.00    +0.000 C 
ATOM     20  C   UNL     1      48.676   4.300  18.814  0.00  0.00    +0.000 C 
BRANCH  19  21
ATOM     21  C   UNL     1      47.329   3.544  16.904  0.00  0.00    +0.000 C 
ATOM     22  O   UNL     1      46.822   3.999  15.891  0.00  0.00    +0.000 OA
BRANCH  21  23
ATOM     23  O   UNL     1      46.633   2.737  17.748  0.00  0.00    +0.000 OA
ATOM     24  H   UNL     1      46.685   3.103  18.657  0.00  0.00    +0.000 HD
ENDBRANCH  21  23
ENDBRANCH  19  21
ENDBRANCH  17  19
ENDBRANCH  11  17
ENDBRANCH  10  14
ENDBRANCH   8  10
ENDBRANCH   7   8
ENDBRANCH   1   7
BRANCH   4  25
ATOM     25  C   UNL     1      49.734   7.666  12.060  0.00  0.00    +0.000 C 
BRANCH  25  26
ATOM     26  N   UNL     1      48.324   7.463  11.852  0.00  0.00    +0.000 N 
ATOM     27  C   UNL     1      47.645   6.466  12.506  0.00  0.00    +0.000 C 
ATOM     28  O   UNL     1      48.186   5.725  13.322  0.00  0.00    +0.000 OA
ATOM     29  H   UNL     1      47.874   7.947  11.083  0.00  0.00    +0.000 HD
BRANCH  27  30
ATOM     30  C   UNL     1      46.217   6.380  12.208  0.00  0.00    +0.000 A 
ATOM     31  C   UNL     1      45.473   7.455  11.737  0.00  0.00    +0.000 A 
ATOM     32  N   UNL     1      44.188   7.038  11.510  0.00  0.00    +0.000 N 
ATOM     33  C   UNL     1      44.068   5.724  11.862  0.00  0.00    +0.000 A 
ATOM     34  N   UNL     1      42.935   5.010  11.780  0.00  0.00    +0.000 NA
ATOM     35  C   UNL     1      43.109   3.748  12.211  0.00  0.00    +0.000 A 
ATOM     36  N   UNL     1      44.235   3.179  12.685  0.00  0.00    +0.000 NA
ATOM     37  C   UNL     1      45.325   3.955  12.728  0.00  0.00    +0.000 A 
ATOM     38  C   UNL     1      45.304   5.281  12.311  0.00  0.00    +0.000 A 
ATOM     39  H   UNL     1      43.430   7.598  11.146  0.00  0.00    +0.000 HD
BRANCH  37  40
ATOM     40  O   UNL     1      46.445   3.340  13.207  0.00  0.00    +0.000 OA
ATOM     41  H   UNL     1      47.135   3.820  12.711  0.00  0.00    +0.000 HD
ENDBRANCH  37  40
ENDBRANCH  27  30
ENDBRANCH  25  26
ENDBRANCH   4  25
TORSDOF 12
ENDMDL
MODEL 4
REMARK VINA RESULT:    -6.196      2.315      3.152
REMARK INTER + INTRA:         -12.993
REMARK INTER:                 -10.840
REMARK INTRA:                  -2.153
REMARK UNBOUND:                -2.812
REMARK  Name = 
REMARK  14 active torsions:
REMARK  status: ('A' for Active; 'I' for Inactive)
REMARK    1  A    between atoms: C_1  and  C_2
REMARK    2  A    between atoms: C_2  and  C_3
REMARK    3  A    between atoms: C_2  and  O_4
REMARK    4  A    between atoms: C_2  and  C_34
REMARK    5  A    between atoms: O_4  and  C_5
REMARK    6  A    between atoms: C_8  and  C_9
REMARK    7  A    between atoms: C_9  and  N_10
REMARK    8  A    between atoms: N_10  and  C_11
REMARK    9  A    between atoms: C_11  and  C_12
REMARK   10  A    between atoms: C_15  and  C_16
REMARK   11  A    between atoms: C_16  and  N_17
REMARK   12  A    between atoms: C_18  and  C_20
REMARK   13  A    between atoms: C_27  and  O_28
REMARK   14  A    between atoms: C_34  and  O_36
REMARK                            x       y       z     vdW  Elec       q    Type
REMARK                         _______ _______ _______ _____ _____    ______ ____
ROOT
ATOM      1  C   UNL     1      50.457  10.519  15.176  0.00  0.00    +0.000 A 
ATOM      2  C   UNL     1      50.957   9.385  14.536  0.00  0.00    +0.000 A 
ATOM      3  C   UNL     1      50.262   8.858  13.450  0.00  0.00    +0.000 A 
ATOM      4  C   UNL     1      49.083   9.469  13.022  0.00  0.00    +0.000 A 
ATOM      5  C   UNL     1      48.635  10.566  13.748  0.00  0.00    +0.000 A 
ATOM      6  N   UNL     1      49.287  11.098  14.808  0.00  0.00    +0.000 NA
ENDROOT
BRANCH   1   7
ATOM      7  C   UNL     1      51.224  11.156  16.323  0.00  0.00    +0.000 C 
BRANCH   7   8
ATOM      8  N   UNL     1      52.006  10.171  17.082  0.00  0.00    +0.000 NA
ATOM      9  H   UNL     1      52.282   9.406  16.472  0.00  0.00    +0.000 HD
BRANCH   8  10
ATOM     10  C   UNL     1      51.241   9.628  18.195  0.00  0.00    +0.000 C 
BRANCH  10  14
ATOM     11  C   UNL     1      49.653   5.782  17.004  0.00  0.00    +0.000 A 
ATOM     12  C   UNL     1      48.787   6.826  17.335  0.00  0.00    +0.000 A 
ATOM     13  C   UNL     1      49.293   8.067  17.742  0.00  0.00    +0.000 A 
ATOM     14  C   UNL     1      50.676   8.274  17.836  0.00  0.00    +0.000 A 
ATOM     15  C   UNL     1      51.530   7.198  17.588  0.00  0.00    +0.000 A 
ATOM     16  C   UNL     1      51.021   5.958  17.200  0.00  0.00    +0.000 A 
BRANCH  11  17
ATOM     17  O   UNL     1      49.062   4.652  16.513  0.00  0.00    +0.000 OA
BRANCH  17  19
ATOM     18  C   UNL     1      48.961   3.823  18.890  0.00  0.00    +0.000 C 
ATOM     19  C   UNL     1      48.690   3.564  17.399  0.00  0.00    +0.000 C 
ATOM     20  C   UNL     1      47.259   3.103  17.106  0.00  0.00    +0.000 C 
BRANCH  19  21
ATOM     21  C   UNL     1      49.604   2.375  17.012  0.00  0.00    +0.000 C 
ATOM     22  O   UNL     1      49.467   1.684  16.014  0.00  0.00    +0.000 OA
BRANCH  21  23
ATOM     23  O   UNL     1      50.603   2.148  17.904  0.00  0.00    +0.000 OA
ATOM     24  H   UNL     1      50.268   1.571  18.623  0.00  0.00    +0.000 HD
ENDBRANCH  21  23
ENDBRANCH  19  21
ENDBRANCH  17  19
ENDBRANCH  11  17
ENDBRANCH  10  14
ENDBRANCH   8  10
ENDBRANCH   7   8
ENDBRANCH   1   7
BRANCH   4  25
ATOM     25  C   UNL     1      48.308   8.952  11.848  0.00  0.00    +0.000 C 
BRANCH  25  26
ATOM     26  N   UNL     1      47.799   7.629  12.093  0.00  0.00    +0.000 N 
ATOM     27  C   UNL     1      46.596   7.435  12.725  0.00  0.00    +0.000 C 
ATOM     28  O   UNL     1      45.878   8.367  13.078  0.00  0.00    +0.000 OA
ATOM     29  H   UNL     1      48.419   6.839  11.957  0.00  0.00    +0.000 HD
BRANCH  27  30
ATOM     30  C   UNL     1      46.196   6.040  12.898  0.00  0.00    +0.000 A 
ATOM     31  C   UNL     1      46.905   5.138  13.682  0.00  0.00    +0.000 A 
ATOM     32  N   UNL     1      46.247   3.937  13.678  0.00  0.00    +0.000 N 
ATOM     33  C   UNL     1      45.144   4.025  12.877  0.00  0.00    +0.000 A 
ATOM     34  N   UNL     1      44.287   3.020  12.641  0.00  0.00    +0.000 NA
ATOM     35  C   UNL     1      43.306   3.389  11.798  0.00  0.00    +0.000 A 
ATOM     36  N   UNL     1      43.121   4.589  11.212  0.00  0.00    +0.000 NA
ATOM     37  C   UNL     1      44.015   5.541  11.504  0.00  0.00    +0.000 A 
ATOM     38  C   UNL     1      45.083   5.312  12.364  0.00  0.00    +0.000 A 
ATOM     39  H   UNL     1      46.518   3.101  14.178  0.00  0.00    +0.000 HD
BRANCH  37  40
ATOM     40  O   UNL     1      43.789   6.742  10.896  0.00  0.00    +0.000 OA
ATOM     41  H   UNL     1      42.814   6.782  10.945  0.00  0.00    +0.000 HD
ENDBRANCH  37  40
ENDBRANCH  27  30
ENDBRANCH  25  26
ENDBRANCH   4  25
TORSDOF 12
ENDMDL
MODEL 5
REMARK VINA RESULT:    -5.596      2.305      3.612
REMARK INTER + INTRA:         -12.007
REMARK INTER:                  -9.470
REMARK INTRA:                  -2.537
REMARK UNBOUND:                -2.812
REMARK  Name = 
REMARK  14 active torsions:
REMARK  status: ('A' for Active; 'I' for Inactive)
REMARK    1  A    between atoms: C_1  and  C_2
REMARK    2  A    between atoms: C_2  and  C_3
REMARK    3  A    between atoms: C_2  and  O_4
REMARK    4  A    between atoms: C_2  and  C_34
REMARK    5  A    between atoms: O_4  and  C_5
REMARK    6  A    between atoms: C_8  and  C_9
REMARK    7  A    between atoms: C_9  and  N_10
REMARK    8  A    between atoms: N_10  and  C_11
REMARK    9  A    between atoms: C_11  and  C_12
REMARK   10  A    between atoms: C_15  and  C_16
REMARK   11  A    between atoms: C_16  and  N_17
REMARK   12  A    between atoms: C_18  and  C_20
REMARK   13  A    between atoms: C_27  and  O_28
REMARK   14  A    between atoms: C_34  and  O_36
REMARK                            x       y       z     vdW  Elec       q    Type
REMARK                         _______ _______ _______ _____ _____    ______ ____
ROOT
ATOM      1  C   UNL     1      52.058  10.618  14.858  0.00  0.00    +0.000 A 
ATOM      2  C   UNL     1      52.344   9.497  14.079  0.00  0.00    +0.000 A 
ATOM      3  C   UNL     1      51.544   9.219  12.973  0.00  0.00    +0.000 A 
ATOM      4  C   UNL     1      50.478  10.062  12.662  0.00  0.00    +0.000 A 
ATOM      5  C   UNL     1      50.238  11.129  13.520  0.00  0.00    +0.000 A 
ATOM      6  N   UNL     1      50.995  11.421  14.603  0.00  0.00    +0.000 NA
ENDROOT
BRANCH   1   7
ATOM      7  C   UNL     1      52.947  10.984  16.035  0.00  0.00    +0.000 C 
BRANCH   7   8
ATOM      8  N   UNL     1      52.301  10.713  17.324  0.00  0.00    +0.000 NA
ATOM      9  H   UNL     1      52.560  11.429  17.998  0.00  0.00    +0.000 HD
BRANCH   8  10
ATOM     10  C   UNL     1      52.690   9.413  17.852  0.00  0.00    +0.000 C 
BRANCH  10  14
ATOM     11  C   UNL     1      49.831   6.343  16.785  0.00  0.00    +0.000 A 
ATOM     12  C   UNL     1      51.201   6.085  16.701  0.00  0.00    +0.000 A 
ATOM     13  C   UNL     1      52.132   7.080  17.024  0.00  0.00    +0.000 A 
ATOM     14  C   UNL     1      51.703   8.353  17.423  0.00  0.00    +0.000 A 
ATOM     15  C   UNL     1      50.333   8.626  17.419  0.00  0.00    +0.000 A 
ATOM     16  C   UNL     1      49.410   7.637  17.080  0.00  0.00    +0.000 A 
BRANCH  11  17
ATOM     17  O   UNL     1      49.010   5.274  16.558  0.00  0.00    +0.000 OA
BRANCH  17  19
ATOM     18  C   UNL     1      49.341   2.908  17.354  0.00  0.00    +0.000 C 
ATOM     19  C   UNL     1      48.749   4.304  17.605  0.00  0.00    +0.000 C 
ATOM     20  C   UNL     1      49.109   4.887  18.974  0.00  0.00    +0.000 C 
BRANCH  19  21
ATOM     21  C   UNL     1      47.213   4.107  17.622  0.00  0.00    +0.000 C 
ATOM     22  O   UNL     1      46.621   3.174  17.102  0.00  0.00    +0.000 OA
BRANCH  21  23
ATOM     23  O   UNL     1      46.549   5.092  18.282  0.00  0.00    +0.000 OA
ATOM     24  H   UNL     1      47.201   5.683  18.717  0.00  0.00    +0.000 HD
ENDBRANCH  21  23
ENDBRANCH  19  21
ENDBRANCH  17  19
ENDBRANCH  11  17
ENDBRANCH  10  14
ENDBRANCH   8  10
ENDBRANCH   7   8
ENDBRANCH   1   7
BRANCH   4  25
ATOM     25  C   UNL     1      49.600   9.819  11.472  0.00  0.00    +0.000 C 
BRANCH  25  26
ATOM     26  N   UNL     1      48.592   8.830  11.753  0.00  0.00    +0.000 N 
ATOM     27  C   UNL     1      47.343   9.192  12.190  0.00  0.00    +0.000 C 
ATOM     28  O   UNL     1      47.006  10.365  12.328  0.00  0.00    +0.000 OA
ATOM     29  H   UNL     1      48.869   7.856  11.799  0.00  0.00    +0.000 HD
BRANCH  27  30
ATOM     30  C   UNL     1      46.417   8.087  12.426  0.00  0.00    +0.000 A 
ATOM     31  C   UNL     1      45.051   8.174  12.184  0.00  0.00    +0.000 A 
ATOM     32  N   UNL     1      44.475   6.961  12.456  0.00  0.00    +0.000 N 
ATOM     33  C   UNL     1      45.430   6.096  12.908  0.00  0.00    +0.000 A 
ATOM     34  N   UNL     1      45.199   4.827  13.280  0.00  0.00    +0.000 NA
ATOM     35  C   UNL     1      46.323   4.219  13.699  0.00  0.00    +0.000 A 
ATOM     36  N   UNL     1      47.567   4.731  13.775  0.00  0.00    +0.000 NA
ATOM     37  C   UNL     1      47.716   6.001  13.380  0.00  0.00    +0.000 A 
ATOM     38  C   UNL     1      46.648   6.760  12.915  0.00  0.00    +0.000 A 
ATOM     39  H   UNL     1      43.499   6.722  12.352  0.00  0.00    +0.000 HD
BRANCH  37  40
ATOM     40  O   UNL     1      48.992   6.480  13.466  0.00  0.00    +0.000 OA
ATOM     41  H   UNL     1      49.492   5.705  13.146  0.00  0.00    +0.000 HD
ENDBRANCH  37  40
ENDBRANCH  27  30
ENDBRANCH  25  26
ENDBRANCH   4  25
TORSDOF 12
ENDMDL
MODEL 6
REMARK VINA RESULT:    -5.552      1.858      2.468
REMARK INTER + INTRA:         -11.935
REMARK INTER:                  -9.368
REMARK INTRA:                  -2.567
REMARK UNBOUND:                -2.812
REMARK  Name = 
REMARK  14 active torsions:
REMARK  status: ('A' for Active; 'I' for Inactive)
REMARK    1  A    between atoms: C_1  and  C_2
REMARK    2  A    between atoms: C_2  and  C_3
REMARK    3  A    between atoms: C_2  and  O_4
REMARK    4  A    between atoms: C_2  and  C_34
REMARK    5  A    between atoms: O_4  and  C_5
REMARK    6  A    between atoms: C_8  and  C_9
REMARK    7  A    between atoms: C_9  and  N_10
REMARK    8  A    between atoms: N_10  and  C_11
REMARK    9  A    between atoms: C_11  and  C_12
REMARK   10  A    between atoms: C_15  and  C_16
REMARK   11  A    between atoms: C_16  and  N_17
REMARK   12  A    between atoms: C_18  and  C_20
REMARK   13  A    between atoms: C_27  and  O_28
REMARK   14  A    between atoms: C_34  and  O_36
REMARK                            x       y       z     vdW  Elec       q    Type
REMARK                         _______ _______ _______ _____ _____    ______ ____
ROOT
ATOM      1  C   UNL     1      51.628   9.772  17.277  0.00  0.00    +0.000 A 
ATOM      2  C   UNL     1      52.542   8.989  16.574  0.00  0.00    +0.000 A 
ATOM      3  C   UNL     1      52.202   8.525  15.305  0.00  0.00    +0.000 A 
ATOM      4  C   UNL     1      50.959   8.849  14.761  0.00  0.00    +0.000 A 
ATOM      5  C   UNL     1      50.093   9.595  15.552  0.00  0.00    +0.000 A 
ATOM      6  N   UNL     1      50.395  10.056  16.788  0.00  0.00    +0.000 NA
ENDROOT
BRANCH   1   7
ATOM      7  C   UNL     1      51.992  10.346  18.637  0.00  0.00    +0.000 C 
BRANCH   7   8
ATOM      8  N   UNL     1      51.066   9.909  19.689  0.00  0.00    +0.000 NA
ATOM      9  H   UNL     1      51.035  10.603  20.431  0.00  0.00    +0.000 HD
BRANCH   8  10
ATOM     10  C   UNL     1      51.473   8.633  20.260  0.00  0.00    +0.000 C 
BRANCH  10  14
ATOM     11  C   UNL     1      50.093   5.432  17.693  0.00  0.00    +0.000 A 
ATOM     12  C   UNL     1      49.209   6.430  18.107  0.00  0.00    +0.000 A 
ATOM     13  C   UNL     1      49.642   7.457  18.955  0.00  0.00    +0.000 A 
ATOM     14  C   UNL     1      50.967   7.490  19.411  0.00  0.00    +0.000 A 
ATOM     15  C   UNL     1      51.819   6.441  19.062  0.00  0.00    +0.000 A 
ATOM     16  C   UNL     1      51.378   5.410  18.231  0.00  0.00    +0.000 A 
BRANCH  11  17
ATOM     17  O   UNL     1      49.601   4.543  16.780  0.00  0.00    +0.000 OA
BRANCH  17  19
ATOM     18  C   UNL     1      49.828   2.035  16.847  0.00  0.00    +0.000 C 
ATOM     19  C   UNL     1      49.014   3.287  17.209  0.00  0.00    +0.000 C 
ATOM     20  C   UNL     1      48.624   3.360  18.689  0.00  0.00    +0.000 C 
BRANCH  19  21
ATOM     21  C   UNL     1      47.682   3.157  16.429  0.00  0.00    +0.000 C 
ATOM     22  O   UNL     1      46.572   3.323  16.909  0.00  0.00    +0.000 OA
BRANCH  21  23
ATOM     23  O   UNL     1      47.852   2.827  15.122  0.00  0.00    +0.000 OA
ATOM     24  H   UNL     1      48.567   2.158  15.050  0.00  0.00    +0.000 HD
ENDBRANCH  21  23
ENDBRANCH  19  21
ENDBRANCH  17  19
ENDBRANCH  11  17
ENDBRANCH  10  14
ENDBRANCH   8  10
ENDBRANCH   7   8
ENDBRANCH   1   7
BRANCH   4  25
ATOM     25  C   UNL     1      50.553   8.391  13.393  0.00  0.00    +0.000 C 
BRANCH  25  26
ATOM     26  N   UNL     1      49.167   8.006  13.356  0.00  0.00    +0.000 N 
ATOM     27  C   UNL     1      48.277   8.631  12.519  0.00  0.00    +0.000 C 
ATOM     28  O   UNL     1      48.615   9.516  11.738  0.00  0.00    +0.000 OA
ATOM     29  H   UNL     1      48.815   7.393  14.083  0.00  0.00    +0.000 HD
BRANCH  27  30
ATOM     30  C   UNL     1      46.904   8.132  12.578  0.00  0.00    +0.000 A 
ATOM     31  C   UNL     1      45.794   8.928  12.320  0.00  0.00    +0.000 A 
ATOM     32  N   UNL     1      44.667   8.155  12.407  0.00  0.00    +0.000 N 
ATOM     33  C   UNL     1      45.015   6.880  12.755  0.00  0.00    +0.000 A 
ATOM     34  N   UNL     1      44.147   5.873  12.940  0.00  0.00    +0.000 NA
ATOM     35  C   UNL     1      44.772   4.737  13.295  0.00  0.00    +0.000 A 
ATOM     36  N   UNL     1      46.093   4.534  13.470  0.00  0.00    +0.000 NA
ATOM     37  C   UNL     1      46.893   5.586  13.259  0.00  0.00    +0.000 A 
ATOM     38  C   UNL     1      46.395   6.828  12.881  0.00  0.00    +0.000 A 
ATOM     39  H   UNL     1      43.716   8.458  12.248  0.00  0.00    +0.000 HD
BRANCH  37  40
ATOM     40  O   UNL     1      48.223   5.337  13.440  0.00  0.00    +0.000 OA
ATOM     41  H   UNL     1      48.597   6.212  13.220  0.00  0.00    +0.000 HD
ENDBRANCH  37  40
ENDBRANCH  27  30
ENDBRANCH  25  26
ENDBRANCH   4  25
TORSDOF 12
ENDMDL
MODEL 7
REMARK VINA RESULT:    -5.544      3.024      5.359
REMARK INTER + INTRA:         -11.922
REMARK INTER:                 -10.731
REMARK INTRA:                  -1.191
REMARK UNBOUND:                -2.812
REMARK  Name = 
REMARK  14 active torsions:
REMARK  status: ('A' for Active; 'I' for Inactive)
REMARK    1  A    between atoms: C_1  and  C_2
REMARK    2  A    between atoms: C_2  and  C_3
REMARK    3  A    between atoms: C_2  and  O_4
REMARK    4  A    between atoms: C_2  and  C_34
REMARK    5  A    between atoms: O_4  and  C_5
REMARK    6  A    between atoms: C_8  and  C_9
REMARK    7  A    between atoms: C_9  and  N_10
REMARK    8  A    between atoms: N_10  and  C_11
REMARK    9  A    between atoms: C_11  and  C_12
REMARK   10  A    between atoms: C_15  and  C_16
REMARK   11  A    between atoms: C_16  and  N_17
REMARK   12  A    between atoms: C_18  and  C_20
REMARK   13  A    between atoms: C_27  and  O_28
REMARK   14  A    between atoms: C_34  and  O_36
REMARK                            x       y       z     vdW  Elec       q    Type
REMARK                         _______ _______ _______ _____ _____    ______ ____
ROOT
ATOM      1  C   UNL     1      46.715   9.176  12.530  0.00  0.00    +0.000 A 
ATOM      2  C   UNL     1      45.450   9.213  11.943  0.00  0.00    +0.000 A 
ATOM      3  C   UNL     1      44.626   8.093  12.035  0.00  0.00    +0.000 A 
ATOM      4  C   UNL     1      45.076   6.959  12.710  0.00  0.00    +0.000 A 
ATOM      5  C   UNL     1      46.368   6.993  13.223  0.00  0.00    +0.000 A 
ATOM      6  N   UNL     1      47.191   8.065  13.146  0.00  0.00    +0.000 NA
ENDROOT
BRANCH   1   7
ATOM      7  C   UNL     1      47.612  10.401  12.501  0.00  0.00    +0.000 C 
BRANCH   7   8
ATOM      8  N   UNL     1      49.022  10.061  12.730  0.00  0.00    +0.000 NA
ATOM      9  H   UNL     1      49.159   9.061  12.613  0.00  0.00    +0.000 HD
BRANCH   8  10
ATOM     10  C   UNL     1      49.451  10.439  14.069  0.00  0.00    +0.000 C 
BRANCH  10  14
ATOM     11  C   UNL     1      49.476   7.086  16.806  0.00  0.00    +0.000 A 
ATOM     12  C   UNL     1      50.211   7.029  15.619  0.00  0.00    +0.000 A 
ATOM     13  C   UNL     1      50.190   8.101  14.719  0.00  0.00    +0.000 A 
ATOM     14  C   UNL     1      49.422   9.241  14.989  0.00  0.00    +0.000 A 
ATOM     15  C   UNL     1      48.624   9.252  16.135  0.00  0.00    +0.000 A 
ATOM     16  C   UNL     1      48.633   8.174  17.020  0.00  0.00    +0.000 A 
BRANCH  11  17
ATOM     17  O   UNL     1      49.653   6.038  17.666  0.00  0.00    +0.000 OA
BRANCH  17  19
ATOM     18  C   UNL     1      47.868   4.797  16.393  0.00  0.00    +0.000 C 
ATOM     19  C   UNL     1      48.746   4.905  17.649  0.00  0.00    +0.000 C 
ATOM     20  C   UNL     1      49.501   3.614  17.984  0.00  0.00    +0.000 C 
BRANCH  19  21
ATOM     21  C   UNL     1      47.764   5.135  18.824  0.00  0.00    +0.000 C 
ATOM     22  O   UNL     1      48.091   5.271  19.993  0.00  0.00    +0.000 OA
BRANCH  21  23
ATOM     23  O   UNL     1      46.461   5.168  18.440  0.00  0.00    +0.000 OA
ATOM     24  H   UNL     1      46.021   5.937  18.864  0.00  0.00    +0.000 HD
ENDBRANCH  21  23
ENDBRANCH  19  21
ENDBRANCH  17  19
ENDBRANCH  11  17
ENDBRANCH  10  14
ENDBRANCH   8  10
ENDBRANCH   7   8
ENDBRANCH   1   7
BRANCH   4  25
ATOM     25  C   UNL     1      44.223   5.736  12.854  0.00  0.00    +0.000 C 
BRANCH  25  26
ATOM     26  N   UNL     1      44.628   4.699  11.942  0.00  0.00    +0.000 N 
ATOM     27  C   UNL     1      43.949   4.476  10.771  0.00  0.00    +0.000 C 
ATOM     28  O   UNL     1      42.994   5.164  10.421  0.00  0.00    +0.000 OA
ATOM     29  H   UNL     1      45.310   4.017  12.257  0.00  0.00    +0.000 HD
BRANCH  27  30
ATOM     30  C   UNL     1      44.477   3.400   9.935  0.00  0.00    +0.000 A 
ATOM     31  C   UNL     1      44.108   2.069  10.087  0.00  0.00    +0.000 A 
ATOM     32  N   UNL     1      44.735   1.323   9.124  0.00  0.00    +0.000 N 
ATOM     33  C   UNL     1      45.537   2.134   8.372  0.00  0.00    +0.000 A 
ATOM     34  N   UNL     1      46.305   1.718   7.353  0.00  0.00    +0.000 NA
ATOM     35  C   UNL     1      47.000   2.732   6.809  0.00  0.00    +0.000 A 
ATOM     36  N   UNL     1      46.997   4.031   7.168  0.00  0.00    +0.000 NA
ATOM     37  C   UNL     1      46.199   4.367   8.189  0.00  0.00    +0.000 A 
ATOM     38  C   UNL     1      45.413   3.430   8.851  0.00  0.00    +0.000 A 
ATOM     39  H   UNL     1      44.639   0.328   8.977  0.00  0.00    +0.000 HD
BRANCH  37  40
ATOM     40  O   UNL     1      46.219   5.691   8.518  0.00  0.00    +0.000 OA
ATOM     41  H   UNL     1      46.870   6.023   7.871  0.00  0.00    +0.000 HD
ENDBRANCH  37  40
ENDBRANCH  27  30
ENDBRANCH  25  26
ENDBRANCH   4  25
TORSDOF 12
ENDMDL
MODEL 8
REMARK VINA RESULT:    -5.046      3.076      6.763
REMARK INTER + INTRA:         -11.104
REMARK INTER:                  -8.334
REMARK INTRA:                  -2.770
REMARK UNBOUND:                -2.812
REMARK  Name = 
REMARK  14 active torsions:
REMARK  status: ('A' for Active; 'I' for Inactive)
REMARK    1  A    between atoms: C_1  and  C_2
REMARK    2  A    between atoms: C_2  and  C_3
REMARK    3  A    between atoms: C_2  and  O_4
REMARK    4  A    between atoms: C_2  and  C_34
REMARK    5  A    between atoms: O_4  and  C_5
REMARK    6  A    between atoms: C_8  and  C_9
REMARK    7  A    between atoms: C_9  and  N_10
REMARK    8  A    between atoms: N_10  and  C_11
REMARK    9  A    between atoms: C_11  and  C_12
REMARK   10  A    between atoms: C_15  and  C_16
REMARK   11  A    between atoms: C_16  and  N_17
REMARK   12  A    between atoms: C_18  and  C_20
REMARK   13  A    between atoms: C_27  and  O_28
REMARK   14  A    between atoms: C_34  and  O_36
REMARK                            x       y       z     vdW  Elec       q    Type
REMARK                         _______ _______ _______ _____ _____    ______ ____
ROOT
ATOM      1  C   UNL     1      48.601   9.121  11.809  0.00  0.00    +0.000 A 
ATOM      2  C   UNL     1      49.381   8.007  12.119  0.00  0.00    +0.000 A 
ATOM      3  C   UNL     1      48.764   6.871  12.640  0.00  0.00    +0.000 A 
ATOM      4  C   UNL     1      47.384   6.866  12.841  0.00  0.00    +0.000 A 
ATOM      5  C   UNL     1      46.693   8.036  12.548  0.00  0.00    +0.000 A 
ATOM      6  N   UNL     1      47.266   9.154  12.045  0.00  0.00    +0.000 NA
ENDROOT
BRANCH   1   7
ATOM      7  C   UNL     1      49.234  10.352  11.182  0.00  0.00    +0.000 C 
BRANCH   7   8
ATOM      8  N   UNL     1      50.580  10.611  11.706  0.00  0.00    +0.000 NA
ATOM      9  H   UNL     1      50.877   9.837  12.294  0.00  0.00    +0.000 HD
BRANCH   8  10
ATOM     10  C   UNL     1      50.619  11.837  12.492  0.00  0.00    +0.000 C 
BRANCH  10  14
ATOM     11  C   UNL     1      50.062  10.819  16.663  0.00  0.00    +0.000 A 
ATOM     12  C   UNL     1      49.411  11.929  16.118  0.00  0.00    +0.000 A 
ATOM     13  C   UNL     1      49.603  12.276  14.776  0.00  0.00    +0.000 A 
ATOM     14  C   UNL     1      50.461  11.525  13.962  0.00  0.00    +0.000 A 
ATOM     15  C   UNL     1      51.174  10.471  14.539  0.00  0.00    +0.000 A 
ATOM     16  C   UNL     1      50.993  10.139  15.882  0.00  0.00    +0.000 A 
BRANCH  11  17
ATOM     17  O   UNL     1      49.721  10.500  17.947  0.00  0.00    +0.000 OA
BRANCH  17  19
ATOM     18  C   UNL     1      47.375  10.645  18.854  0.00  0.00    +0.000 C 
ATOM     19  C   UNL     1      48.489   9.788  18.232  0.00  0.00    +0.000 C 
ATOM     20  C   UNL     1      48.038   8.992  17.004  0.00  0.00    +0.000 C 
BRANCH  19  21
ATOM     21  C   UNL     1      48.852   8.734  19.307  0.00  0.00    +0.000 C 
ATOM     22  O   UNL     1      49.799   8.813  20.073  0.00  0.00    +0.000 OA
BRANCH  21  23
ATOM     23  O   UNL     1      48.005   7.671  19.328  0.00  0.00    +0.000 OA
ATOM     24  H   UNL     1      48.357   6.992  19.944  0.00  0.00    +0.000 HD
ENDBRANCH  21  23
ENDBRANCH  19  21
ENDBRANCH  17  19
ENDBRANCH  11  17
ENDBRANCH  10  14
ENDBRANCH   8  10
ENDBRANCH   7   8
ENDBRANCH   1   7
BRANCH   4  25
ATOM     25  C   UNL     1      46.669   5.664  13.379  0.00  0.00    +0.000 C 
BRANCH  25  26
ATOM     26  N   UNL     1      47.071   5.373  14.730  0.00  0.00    +0.000 N 
ATOM     27  C   UNL     1      47.383   4.095  15.120  0.00  0.00    +0.000 C 
ATOM     28  O   UNL     1      47.373   3.146  14.340  0.00  0.00    +0.000 OA
ATOM     29  H   UNL     1      46.949   6.090  15.437  0.00  0.00    +0.000 HD
BRANCH  27  30
ATOM     30  C   UNL     1      47.786   3.945  16.516  0.00  0.00    +0.000 A 
ATOM     31  C   UNL     1      47.170   3.062  17.395  0.00  0.00    +0.000 A 
ATOM     32  N   UNL     1      47.810   3.125  18.605  0.00  0.00    +0.000 N 
ATOM     33  C   UNL     1      48.805   4.059  18.545  0.00  0.00    +0.000 A 
ATOM     34  N   UNL     1      49.614   4.380  19.566  0.00  0.00    +0.000 NA
ATOM     35  C   UNL     1      50.487   5.345  19.225  0.00  0.00    +0.000 A 
ATOM     36  N   UNL     1      50.610   5.972  18.038  0.00  0.00    +0.000 NA
ATOM     37  C   UNL     1      49.770   5.590  17.069  0.00  0.00    +0.000 A 
ATOM     38  C   UNL     1      48.815   4.599  17.268  0.00  0.00    +0.000 A 
ATOM     39  H   UNL     1      47.594   2.579  19.428  0.00  0.00    +0.000 HD
BRANCH  37  40
ATOM     40  O   UNL     1      49.932   6.244  15.882  0.00  0.00    +0.000 OA
ATOM     41  H   UNL     1      49.789   5.509  15.256  0.00  0.00    +0.000 HD
ENDBRANCH  37  40
ENDBRANCH  27  30
ENDBRANCH  25  26
ENDBRANCH   4  25
TORSDOF 12
ENDMDL
MODEL 9
REMARK VINA RESULT:    -5.003      3.435      5.951
REMARK INTER + INTRA:         -11.033
REMARK INTER:                 -10.406
REMARK INTRA:                  -0.628
REMARK UNBOUND:                -2.812
REMARK  Name = 
REMARK  14 active torsions:
REMARK  status: ('A' for Active; 'I' for Inactive)
REMARK    1  A    between atoms: C_1  and  C_2
REMARK    2  A    between atoms: C_2  and  C_3
REMARK    3  A    between atoms: C_2  and  O_4
REMARK    4  A    between atoms: C_2  and  C_34
REMARK    5  A    between atoms: O_4  and  C_5
REMARK    6  A    between atoms: C_8  and  C_9
REMARK    7  A    between atoms: C_9  and  N_10
REMARK    8  A    between atoms: N_10  and  C_11
REMARK    9  A    between atoms: C_11  and  C_12
REMARK   10  A    between atoms: C_15  and  C_16
REMARK   11  A    between atoms: C_16  and  N_17
REMARK   12  A    between atoms: C_18  and  C_20
REMARK   13  A    between atoms: C_27  and  O_28
REMARK   14  A    between atoms: C_34  and  O_36
REMARK                            x       y       z     vdW  Elec       q    Type
REMARK                         _______ _______ _______ _____ _____    ______ ____
ROOT
ATOM      1  C   UNL     1      46.333   7.752  13.067  0.00  0.00    +0.000 A 
ATOM      2  C   UNL     1      45.617   8.465  12.107  0.00  0.00    +0.000 A 
ATOM      3  C   UNL     1      44.617   7.816  11.386  0.00  0.00    +0.000 A 
ATOM      4  C   UNL     1      44.347   6.471  11.636  0.00  0.00    +0.000 A 
ATOM      5  C   UNL     1      45.141   5.827  12.578  0.00  0.00    +0.000 A 
ATOM      6  N   UNL     1      46.121   6.431  13.290  0.00  0.00    +0.000 NA
ENDROOT
BRANCH   1   7
ATOM      7  C   UNL     1      47.387   8.446  13.914  0.00  0.00    +0.000 C 
BRANCH   7   8
ATOM      8  N   UNL     1      48.707   8.438  13.272  0.00  0.00    +0.000 NA
ATOM      9  H   UNL     1      48.607   8.238  12.281  0.00  0.00    +0.000 HD
BRANCH   8  10
ATOM     10  C   UNL     1      49.581   7.436  13.866  0.00  0.00    +0.000 C 
BRANCH  10  14
ATOM     11  C   UNL     1      49.177   7.243  18.171  0.00  0.00    +0.000 A 
ATOM     12  C   UNL     1      48.677   6.212  17.373  0.00  0.00    +0.000 A 
ATOM     13  C   UNL     1      48.785   6.277  15.978  0.00  0.00    +0.000 A 
ATOM     14  C   UNL     1      49.384   7.385  15.363  0.00  0.00    +0.000 A 
ATOM     15  C   UNL     1      49.801   8.449  16.164  0.00  0.00    +0.000 A 
ATOM     16  C   UNL     1      49.676   8.387  17.553  0.00  0.00    +0.000 A 
BRANCH  11  17
ATOM     17  O   UNL     1      49.123   7.031  19.520  0.00  0.00    +0.000 OA
BRANCH  17  19
ATOM     18  C   UNL     1      51.503   6.221  19.360  0.00  0.00    +0.000 C 
ATOM     19  C   UNL     1      50.275   6.514  20.236  0.00  0.00    +0.000 C 
ATOM     20  C   UNL     1      50.584   7.391  21.453  0.00  0.00    +0.000 C 
BRANCH  19  21
ATOM     21  C   UNL     1      49.835   5.143  20.805  0.00  0.00    +0.000 C 
ATOM     22  O   UNL     1      48.695   4.706  20.777  0.00  0.00    +0.000 OA
BRANCH  21  23
ATOM     23  O   UNL     1      50.853   4.438  21.365  0.00  0.00    +0.000 OA
ATOM     24  H   UNL     1      50.613   4.204  22.288  0.00  0.00    +0.000 HD
ENDBRANCH  21  23
ENDBRANCH  19  21
ENDBRANCH  17  19
ENDBRANCH  11  17
ENDBRANCH  10  14
ENDBRANCH   8  10
ENDBRANCH   7   8
ENDBRANCH   1   7
BRANCH   4  25
ATOM     25  C   UNL     1      43.269   5.732  10.903  0.00  0.00    +0.000 C 
BRANCH  25  26
ATOM     26  N   UNL     1      43.749   4.478  10.384  0.00  0.00    +0.000 N 
ATOM     27  C   UNL     1      44.735   4.434   9.430  0.00  0.00    +0.000 C 
ATOM     28  O   UNL     1      45.281   5.445   8.999  0.00  0.00    +0.000 OA
ATOM     29  H   UNL     1      43.228   3.635  10.597  0.00  0.00    +0.000 HD
BRANCH  27  30
ATOM     30  C   UNL     1      45.133   3.094   9.002  0.00  0.00    +0.000 A 
ATOM     31  C   UNL     1      44.555   1.933   9.501  0.00  0.00    +0.000 A 
ATOM     32  N   UNL     1      45.109   0.854   8.864  0.00  0.00    +0.000 N 
ATOM     33  C   UNL     1      46.065   1.285   7.989  0.00  0.00    +0.000 A 
ATOM     34  N   UNL     1      46.812   0.482   7.215  0.00  0.00    +0.000 NA
ATOM     35  C   UNL     1      47.684   1.181   6.468  0.00  0.00    +0.000 A 
ATOM     36  N   UNL     1      47.862   2.517   6.429  0.00  0.00    +0.000 NA
ATOM     37  C   UNL     1      47.073   3.249   7.224  0.00  0.00    +0.000 A 
ATOM     38  C   UNL     1      46.118   2.670   8.052  0.00  0.00    +0.000 A 
ATOM     39  H   UNL     1      44.869  -0.117   9.007  0.00  0.00    +0.000 HD
BRANCH  37  40
ATOM     40  O   UNL     1      47.280   4.596   7.150  0.00  0.00    +0.000 OA
ATOM     41  H   UNL     1      46.360   4.911   7.062  0.00  0.00    +0.000 HD
ENDBRANCH  37  40
ENDBRANCH  27  30
ENDBRANCH  25  26
ENDBRANCH   4  25
TORSDOF 12
ENDMDL
