MODEL 1
REMARK VINA RESULT:    -7.628      0.000      0.000
REMARK INTER + INTRA:         -10.920
REMARK INTER:                  -9.858
REMARK INTRA:                  -1.062
REMARK UNBOUND:                -1.062
REMARK  Name = 
REMARK  5 active torsions:
REMARK  status: ('A' for Active; 'I' for Inactive)
REMARK    1  A    between atoms: C_4  and  C_5
REMARK    2  A    between atoms: C_5  and  C_6
REMARK    3  A    between atoms: C_6  and  C_7
REMARK    4  A    between atoms: C_11  and  C_12
REMARK    5  A    between atoms: C_20  and  C_21
REMARK                            x       y       z     vdW  Elec       q    Type
REMARK                         _______ _______ _______ _____ _____    ______ ____
ROOT
ATOM      1  C   UNL     1      45.611   7.436  11.376  0.00  0.00    +0.000 C 
ENDROOT
BRANCH   1   2
ATOM      2  C   UNL     1      46.828   7.133  12.225  0.00  0.00    +0.000 A 
ATOM      3  C   UNL     1      48.099   7.495  11.784  0.00  0.00    +0.000 A 
ATOM      4  C   UNL     1      49.194   7.184  12.577  0.00  0.00    +0.000 A 
ATOM      5  N   UNL     1      49.113   6.527  13.755  0.00  0.00    +0.000 NA
ATOM      6  C   UNL     1      47.885   6.133  14.170  0.00  0.00    +0.000 A 
ATOM      7  C   UNL     1      46.737   6.430  13.432  0.00  0.00    +0.000 A 
BRANCH   6   8
ATOM      8  C   UNL     1      47.830   5.377  15.432  0.00  0.00    +0.000 A 
ATOM      9  C   UNL     1      48.599   5.731  16.549  0.00  0.00    +0.000 A 
ATOM     10  C   UNL     1      48.510   5.000  17.733  0.00  0.00    +0.000 A 
ATOM     11  C   UNL     1      47.647   3.918  17.775  0.00  0.00    +0.000 A 
ATOM     12  N   UNL     1      46.890   3.529  16.733  0.00  0.00    +0.000 NA
ATOM     13  C   UNL     1      47.008   4.258  15.596  0.00  0.00    +0.000 A 
ENDBRANCH   6   8
ENDBRANCH   1   2
BRANCH   1  14
ATOM     14  C   UNL     1      44.372   6.600  11.726  0.00  0.00    +0.000 C 
BRANCH  14  18
ATOM     15  F   UNL     1      42.936   1.937  11.610  0.00  0.00    +0.000 F 
ATOM     16  C   UNL     1      43.649   2.930  11.065  0.00  0.00    +0.000 A 
ATOM     17  C   UNL     1      43.661   4.178  11.675  0.00  0.00    +0.000 A 
ATOM     18  C   UNL     1      44.389   5.228  11.102  0.00  0.00    +0.000 A 
ATOM     19  C   UNL     1      45.116   4.993   9.926  0.00  0.00    +0.000 A 
ATOM     20  C   UNL     1      45.105   3.731   9.308  0.00  0.00    +0.000 A 
ATOM     21  C   UNL     1      44.357   2.698   9.891  0.00  0.00    +0.000 A 
BRANCH  20  22
ATOM     22  C   UNL     1      45.871   3.480   8.034  0.00  0.00    +0.000 C 
ATOM     23  F   UNL     1      45.074   3.362   6.936  0.00  0.00    +0.000 F 
ATOM     24  F   UNL     1      46.748   4.482   7.751  0.00  0.00    +0.000 F 
ATOM     25  F   UNL     1      46.608   2.337   8.086  0.00  0.00    +0.000 F 
ENDBRANCH  20  22
ENDBRANCH  14  18
ENDBRANCH   1  14
TORSDOF 5
ENDMDL
MODEL 2
REMARK VINA RESULT:    -7.324      3.773      7.026
REMARK INTER + INTRA:         -10.527
REMARK INTER:                  -9.593
REMARK INTRA:                  -0.934
REMARK UNBOUND:                -1.062
REMARK  Name = 
REMARK  5 active torsions:
REMARK  status: ('A' for Active; 'I' for Inactive)
REMARK    1  A    between atoms: C_4  and  C_5
REMARK    2  A    between atoms: C_5  and  C_6
REMARK    3  A    between atoms: C_6  and  C_7
REMARK    4  A    between atoms: C_11  and  C_12
REMARK    5  A    between atoms: C_20  and  C_21
REMARK                            x       y       z     vdW  Elec       q    Type
REMARK                         _______ _______ _______ _____ _____    ______ ____
ROOT
ATOM      1  C   UNL     1      44.035   6.484  11.702  0.00  0.00    +0.000 C 
ENDROOT
BRANCH   1   2
ATOM      2  C   UNL     1      44.016   5.058  11.193  0.00  0.00    +0.000 A 
ATOM      3  C   UNL     1      43.283   4.082  11.867  0.00  0.00    +0.000 A 
ATOM      4  C   UNL     1      43.305   2.782  11.385  0.00  0.00    +0.000 A 
ATOM      5  N   UNL     1      44.013   2.386  10.304  0.00  0.00    +0.000 NA
ATOM      6  C   UNL     1      44.762   3.320   9.669  0.00  0.00    +0.000 A 
ATOM      7  C   UNL     1      44.773   4.653  10.088  0.00  0.00    +0.000 A 
BRANCH   6   8
ATOM      8  C   UNL     1      45.562   2.854   8.524  0.00  0.00    +0.000 A 
ATOM      9  C   UNL     1      45.918   3.702   7.467  0.00  0.00    +0.000 A 
ATOM     10  C   UNL     1      46.689   3.229   6.406  0.00  0.00    +0.000 A 
ATOM     11  C   UNL     1      47.091   1.903   6.423  0.00  0.00    +0.000 A 
ATOM     12  N   UNL     1      46.773   1.043   7.409  0.00  0.00    +0.000 NA
ATOM     13  C   UNL     1      46.016   1.536   8.420  0.00  0.00    +0.000 A 
ENDBRANCH   6   8
ENDBRANCH   1   2
BRANCH   1  14
ATOM     14  C   UNL     1      45.218   7.321  11.196  0.00  0.00    +0.000 C 
BRANCH  14  18
ATOM     15  F   UNL     1      47.603   5.383  14.987  0.00  0.00    +0.000 F 
ATOM     16  C   UNL     1      47.633   6.123  13.872  0.00  0.00    +0.000 A 
ATOM     17  C   UNL     1      46.455   6.350  13.171  0.00  0.00    +0.000 A 
ATOM     18  C   UNL     1      46.479   7.107  11.993  0.00  0.00    +0.000 A 
ATOM     19  C   UNL     1      47.696   7.647  11.552  0.00  0.00    +0.000 A 
ATOM     20  C   UNL     1      48.888   7.419  12.262  0.00  0.00    +0.000 A 
ATOM     21  C   UNL     1      48.843   6.644  13.430  0.00  0.00    +0.000 A 
BRANCH  20  22
ATOM     22  C   UNL     1      50.201   7.983  11.780  0.00  0.00    +0.000 C 
ATOM     23  F   UNL     1      50.075   9.174  11.133  0.00  0.00    +0.000 F 
ATOM     24  F   UNL     1      51.075   8.202  12.800  0.00  0.00    +0.000 F 
ATOM     25  F   UNL     1      50.836   7.151  10.911  0.00  0.00    +0.000 F 
ENDBRANCH  20  22
ENDBRANCH  14  18
ENDBRANCH   1  14
TORSDOF 5
ENDMDL
MODEL 3
REMARK VINA RESULT:    -7.318      4.284      7.936
REMARK INTER + INTRA:         -10.518
REMARK INTER:                  -9.657
REMARK INTRA:                  -0.861
REMARK UNBOUND:                -1.062
REMARK  Name = 
REMARK  5 active torsions:
REMARK  status: ('A' for Active; 'I' for Inactive)
REMARK    1  A    between atoms: C_4  and  C_5
REMARK    2  A    between atoms: C_5  and  C_6
REMARK    3  A    between atoms: C_6  and  C_7
REMARK    4  A    between atoms: C_11  and  C_12
REMARK    5  A    between atoms: C_20  and  C_21
REMARK                            x       y       z     vdW  Elec       q    Type
REMARK                         _______ _______ _______ _____ _____    ______ ____
ROOT
ATOM      1  C   UNL     1      45.105   5.422  13.280  0.00  0.00    +0.000 C 
ENDROOT
BRANCH   1   2
ATOM      2  C   UNL     1      44.657   4.393  12.264  0.00  0.00    +0.000 A 
ATOM      3  C   UNL     1      43.607   3.524  12.560  0.00  0.00    +0.000 A 
ATOM      4  C   UNL     1      43.236   2.580  11.615  0.00  0.00    +0.000 A 
ATOM      5  N   UNL     1      43.844   2.428  10.417  0.00  0.00    +0.000 NA
ATOM      6  C   UNL     1      44.892   3.240  10.139  0.00  0.00    +0.000 A 
ATOM      7  C   UNL     1      45.308   4.226  11.037  0.00  0.00    +0.000 A 
BRANCH   6   8
ATOM      8  C   UNL     1      45.567   3.022   8.849  0.00  0.00    +0.000 A 
ATOM      9  C   UNL     1      45.992   1.752   8.433  0.00  0.00    +0.000 A 
ATOM     10  C   UNL     1      46.615   1.581   7.198  0.00  0.00    +0.000 A 
ATOM     11  C   UNL     1      46.804   2.694   6.396  0.00  0.00    +0.000 A 
ATOM     12  N   UNL     1      46.422   3.936   6.746  0.00  0.00    +0.000 NA
ATOM     13  C   UNL     1      45.827   4.066   7.957  0.00  0.00    +0.000 A 
ENDBRANCH   6   8
ENDBRANCH   1   2
BRANCH   1  14
ATOM     14  C   UNL     1      46.553   5.899  13.100  0.00  0.00    +0.000 C 
BRANCH  14  18
ATOM     15  F   UNL     1      49.836   7.578  16.297  0.00  0.00    +0.000 F 
ATOM     16  C   UNL     1      49.006   6.600  15.915  0.00  0.00    +0.000 A 
ATOM     17  C   UNL     1      48.274   6.744  14.742  0.00  0.00    +0.000 A 
ATOM     18  C   UNL     1      47.389   5.735  14.343  0.00  0.00    +0.000 A 
ATOM     19  C   UNL     1      47.272   4.579  15.129  0.00  0.00    +0.000 A 
ATOM     20  C   UNL     1      48.012   4.432  16.315  0.00  0.00    +0.000 A 
ATOM     21  C   UNL     1      48.881   5.462  16.703  0.00  0.00    +0.000 A 
BRANCH  20  22
ATOM     22  C   UNL     1      47.875   3.198  17.170  0.00  0.00    +0.000 C 
ATOM     23  F   UNL     1      48.509   3.297  18.371  0.00  0.00    +0.000 F 
ATOM     24  F   UNL     1      46.576   2.907  17.457  0.00  0.00    +0.000 F 
ATOM     25  F   UNL     1      48.386   2.089  16.569  0.00  0.00    +0.000 F 
ENDBRANCH  20  22
ENDBRANCH  14  18
ENDBRANCH   1  14
TORSDOF 5
ENDMDL
MODEL 4
REMARK VINA RESULT:    -7.238      0.775      1.333
REMARK INTER + INTRA:         -10.416
REMARK INTER:                  -9.335
REMARK INTRA:                  -1.081
REMARK UNBOUND:                -1.062
REMARK  Name = 
REMARK  5 active torsions:
REMARK  status: ('A' for Active; 'I' for Inactive)
REMARK    1  A    between atoms: C_4  and  C_5
REMARK    2  A    between atoms: C_5  and  C_6
REMARK    3  A    between atoms: C_6  and  C_7
REMARK    4  A    between atoms: C_11  and  C_12
REMARK    5  A    between atoms: C_20  and  C_21
REMARK                            x       y       z     vdW  Elec       q    Type
REMARK                         _______ _______ _______ _____ _____    ______ ____
ROOT
ATOM      1  C   UNL     1      46.222   7.366  11.617  0.00  0.00    +0.000 C 
ENDROOT
BRANCH   1   2
ATOM      2  C   UNL     1      47.341   7.176  12.620  0.00  0.00    +0.000 A 
ATOM      3  C   UNL     1      48.590   7.751  12.396  0.00  0.00    +0.000 A 
ATOM      4  C   UNL     1      49.598   7.540  13.325  0.00  0.00    +0.000 A 
ATOM      5  N   UNL     1      49.455   6.788  14.439  0.00  0.00    +0.000 NA
ATOM      6  C   UNL     1      48.257   6.190  14.642  0.00  0.00    +0.000 A 
ATOM      7  C   UNL     1      47.191   6.375  13.758  0.00  0.00    +0.000 A 
BRANCH   6   8
ATOM      8  C   UNL     1      48.143   5.337  15.837  0.00  0.00    +0.000 A 
ATOM      9  C   UNL     1      47.272   4.241  15.892  0.00  0.00    +0.000 A 
ATOM     10  C   UNL     1      47.201   3.446  17.036  0.00  0.00    +0.000 A 
ATOM     11  C   UNL     1      48.009   3.769  18.113  0.00  0.00    +0.000 A 
ATOM     12  N   UNL     1      48.859   4.813  18.118  0.00  0.00    +0.000 NA
ATOM     13  C   UNL     1      48.895   5.568  16.993  0.00  0.00    +0.000 A 
ENDBRANCH   6   8
ENDBRANCH   1   2
BRANCH   1  14
ATOM     14  C   UNL     1      44.900   6.692  12.009  0.00  0.00    +0.000 C 
BRANCH  14  18
ATOM     15  F   UNL     1      43.050   2.176  12.047  0.00  0.00    +0.000 F 
ATOM     16  C   UNL     1      43.777   3.111  11.423  0.00  0.00    +0.000 A 
ATOM     17  C   UNL     1      43.975   4.343  12.033  0.00  0.00    +0.000 A 
ATOM     18  C   UNL     1      44.718   5.334  11.381  0.00  0.00    +0.000 A 
ATOM     19  C   UNL     1      45.271   5.056  10.122  0.00  0.00    +0.000 A 
ATOM     20  C   UNL     1      45.072   3.810   9.504  0.00  0.00    +0.000 A 
ATOM     21  C   UNL     1      44.312   2.837  10.169  0.00  0.00    +0.000 A 
BRANCH  20  22
ATOM     22  C   UNL     1      45.651   3.514   8.143  0.00  0.00    +0.000 C 
ATOM     23  F   UNL     1      46.580   4.425   7.739  0.00  0.00    +0.000 F 
ATOM     24  F   UNL     1      46.271   2.303   8.096  0.00  0.00    +0.000 F 
ATOM     25  F   UNL     1      44.702   3.490   7.168  0.00  0.00    +0.000 F 
ENDBRANCH  20  22
ENDBRANCH  14  18
ENDBRANCH   1  14
TORSDOF 5
ENDMDL
MODEL 5
REMARK VINA RESULT:    -7.174      4.391      7.397
REMARK INTER + INTRA:         -10.332
REMARK INTER:                  -9.334
REMARK INTRA:                  -0.998
REMARK UNBOUND:                -1.062
REMARK  Name = 
REMARK  5 active torsions:
REMARK  status: ('A' for Active; 'I' for Inactive)
REMARK    1  A    between atoms: C_4  and  C_5
REMARK    2  A    between atoms: C_5  and  C_6
REMARK    3  A    between atoms: C_6  and  C_7
REMARK    4  A    between atoms: C_11  and  C_12
REMARK    5  A    between atoms: C_20  and  C_21
REMARK                            x       y       z     vdW  Elec       q    Type
REMARK                         _______ _______ _______ _____ _____    ______ ____
ROOT
ATOM      1  C   UNL     1      44.835   5.981  13.076  0.00  0.00    +0.000 C 
ENDROOT
BRANCH   1   2
ATOM      2  C   UNL     1      44.474   4.813  12.183  0.00  0.00    +0.000 A 
ATOM      3  C   UNL     1      43.507   3.893  12.587  0.00  0.00    +0.000 A 
ATOM      4  C   UNL     1      43.215   2.824  11.754  0.00  0.00    +0.000 A 
ATOM      5  N   UNL     1      43.827   2.597  10.570  0.00  0.00    +0.000 NA
ATOM      6  C   UNL     1      44.798   3.463  10.190  0.00  0.00    +0.000 A 
ATOM      7  C   UNL     1      45.130   4.573  10.971  0.00  0.00    +0.000 A 
BRANCH   6   8
ATOM      8  C   UNL     1      45.482   3.166   8.920  0.00  0.00    +0.000 A 
ATOM      9  C   UNL     1      45.859   1.865   8.562  0.00  0.00    +0.000 A 
ATOM     10  C   UNL     1      46.493   1.619   7.344  0.00  0.00    +0.000 A 
ATOM     11  C   UNL     1      46.740   2.691   6.502  0.00  0.00    +0.000 A 
ATOM     12  N   UNL     1      46.405   3.961   6.798  0.00  0.00    +0.000 NA
ATOM     13  C   UNL     1      45.798   4.163   7.993  0.00  0.00    +0.000 A 
ENDBRANCH   6   8
ENDBRANCH   1   2
BRANCH   1  14
ATOM     14  C   UNL     1      46.109   6.727  12.656  0.00  0.00    +0.000 C 
BRANCH  14  18
ATOM     15  F   UNL     1      47.517  11.367  12.099  0.00  0.00    +0.000 F 
ATOM     16  C   UNL     1      46.578  10.427  11.935  0.00  0.00    +0.000 A 
ATOM     17  C   UNL     1      46.815   9.137  12.392  0.00  0.00    +0.000 A 
ATOM     18  C   UNL     1      45.847   8.142  12.209  0.00  0.00    +0.000 A 
ATOM     19  C   UNL     1      44.637   8.474  11.581  0.00  0.00    +0.000 A 
ATOM     20  C   UNL     1      44.395   9.779  11.119  0.00  0.00    +0.000 A 
ATOM     21  C   UNL     1      45.386  10.756  11.300  0.00  0.00    +0.000 A 
BRANCH  20  22
ATOM     22  C   UNL     1      43.103  10.135  10.428  0.00  0.00    +0.000 C 
ATOM     23  F   UNL     1      42.110   9.226  10.635  0.00  0.00    +0.000 F 
ATOM     24  F   UNL     1      42.606  11.332  10.843  0.00  0.00    +0.000 F 
ATOM     25  F   UNL     1      43.245  10.232   9.078  0.00  0.00    +0.000 F 
ENDBRANCH  20  22
ENDBRANCH  14  18
ENDBRANCH   1  14
TORSDOF 5
ENDMDL
MODEL 6
REMARK VINA RESULT:    -7.121      4.101      7.629
REMARK INTER + INTRA:         -10.265
REMARK INTER:                  -9.268
REMARK INTRA:                  -0.997
REMARK UNBOUND:                -1.062
REMARK  Name = 
REMARK  5 active torsions:
REMARK  status: ('A' for Active; 'I' for Inactive)
REMARK    1  A    between atoms: C_4  and  C_5
REMARK    2  A    between atoms: C_5  and  C_6
REMARK    3  A    between atoms: C_6  and  C_7
REMARK    4  A    between atoms: C_11  and  C_12
REMARK    5  A    between atoms: C_20  and  C_21
REMARK                            x       y       z     vdW  Elec       q    Type
REMARK                         _______ _______ _______ _____ _____    ______ ____
ROOT
ATOM      1  C   UNL     1      44.773   5.911  12.701  0.00  0.00    +0.000 C 
ENDROOT
BRANCH   1   2
ATOM      2  C   UNL     1      44.449   4.693  11.861  0.00  0.00    +0.000 A 
ATOM      3  C   UNL     1      43.475   3.789  12.282  0.00  0.00    +0.000 A 
ATOM      4  C   UNL     1      43.219   2.673  11.499  0.00  0.00    +0.000 A 
ATOM      5  N   UNL     1      43.872   2.388  10.351  0.00  0.00    +0.000 NA
ATOM      6  C   UNL     1      44.849   3.240   9.957  0.00  0.00    +0.000 A 
ATOM      7  C   UNL     1      45.148   4.393  10.687  0.00  0.00    +0.000 A 
BRANCH   6   8
ATOM      8  C   UNL     1      45.578   2.880   8.729  0.00  0.00    +0.000 A 
ATOM      9  C   UNL     1      45.886   3.825   7.740  0.00  0.00    +0.000 A 
ATOM     10  C   UNL     1      46.590   3.451   6.596  0.00  0.00    +0.000 A 
ATOM     11  C   UNL     1      46.973   2.127   6.462  0.00  0.00    +0.000 A 
ATOM     12  N   UNL     1      46.699   1.177   7.375  0.00  0.00    +0.000 NA
ATOM     13  C   UNL     1      46.007   1.575   8.471  0.00  0.00    +0.000 A 
ENDBRANCH   6   8
ENDBRANCH   1   2
BRANCH   1  14
ATOM     14  C   UNL     1      45.562   6.999  11.959  0.00  0.00    +0.000 C 
BRANCH  14  18
ATOM     15  F   UNL     1      50.254   8.018  11.083  0.00  0.00    +0.000 F 
ATOM     16  C   UNL     1      49.309   7.623  11.945  0.00  0.00    +0.000 A 
ATOM     17  C   UNL     1      47.997   7.492  11.508  0.00  0.00    +0.000 A 
ATOM     18  C   UNL     1      46.998   7.097  12.406  0.00  0.00    +0.000 A 
ATOM     19  C   UNL     1      47.347   6.816  13.736  0.00  0.00    +0.000 A 
ATOM     20  C   UNL     1      48.674   6.947  14.179  0.00  0.00    +0.000 A 
ATOM     21  C   UNL     1      49.656   7.359  13.265  0.00  0.00    +0.000 A 
BRANCH  20  22
ATOM     22  C   UNL     1      49.049   6.662  15.611  0.00  0.00    +0.000 C 
ATOM     23  F   UNL     1      50.392   6.551  15.808  0.00  0.00    +0.000 F 
ATOM     24  F   UNL     1      48.627   7.638  16.461  0.00  0.00    +0.000 F 
ATOM     25  F   UNL     1      48.507   5.502  16.070  0.00  0.00    +0.000 F 
ENDBRANCH  20  22
ENDBRANCH  14  18
ENDBRANCH   1  14
TORSDOF 5
ENDMDL
MODEL 7
REMARK VINA RESULT:    -6.958      4.253      7.265
REMARK INTER + INTRA:         -10.054
REMARK INTER:                  -9.045
REMARK INTRA:                  -1.009
REMARK UNBOUND:                -1.062
REMARK  Name = 
REMARK  5 active torsions:
REMARK  status: ('A' for Active; 'I' for Inactive)
REMARK    1  A    between atoms: C_4  and  C_5
REMARK    2  A    between atoms: C_5  and  C_6
REMARK    3  A    between atoms: C_6  and  C_7
REMARK    4  A    between atoms: C_11  and  C_12
REMARK    5  A    between atoms: C_20  and  C_21
REMARK                            x       y       z     vdW  Elec       q    Type
REMARK                         _______ _______ _______ _____ _____    ______ ____
ROOT
ATOM      1  C   UNL     1      44.685   5.886  12.922  0.00  0.00    +0.000 C 
ENDROOT
BRANCH   1   2
ATOM      2  C   UNL     1      44.401   4.684  12.046  0.00  0.00    +0.000 A 
ATOM      3  C   UNL     1      43.479   3.721  12.452  0.00  0.00    +0.000 A 
ATOM      4  C   UNL     1      43.259   2.622  11.635  0.00  0.00    +0.000 A 
ATOM      5  N   UNL     1      43.900   2.408  10.465  0.00  0.00    +0.000 NA
ATOM      6  C   UNL     1      44.829   3.318  10.083  0.00  0.00    +0.000 A 
ATOM      7  C   UNL     1      45.088   4.458  10.848  0.00  0.00    +0.000 A 
BRANCH   6   8
ATOM      8  C   UNL     1      45.547   3.037   8.829  0.00  0.00    +0.000 A 
ATOM      9  C   UNL     1      45.986   1.748   8.493  0.00  0.00    +0.000 A 
ATOM     10  C   UNL     1      46.651   1.516   7.289  0.00  0.00    +0.000 A 
ATOM     11  C   UNL     1      46.868   2.588   6.440  0.00  0.00    +0.000 A 
ATOM     12  N   UNL     1      46.475   3.846   6.714  0.00  0.00    +0.000 NA
ATOM     13  C   UNL     1      45.838   4.036   7.896  0.00  0.00    +0.000 A 
ENDBRANCH   6   8
ENDBRANCH   1   2
BRANCH   1  14
ATOM     14  C   UNL     1      44.406   7.238  12.250  0.00  0.00    +0.000 C 
BRANCH  14  18
ATOM     15  F   UNL     1      46.525  11.612  11.809  0.00  0.00    +0.000 F 
ATOM     16  C   UNL     1      46.651  10.284  11.927  0.00  0.00    +0.000 A 
ATOM     17  C   UNL     1      45.512   9.492  11.990  0.00  0.00    +0.000 A 
ATOM     18  C   UNL     1      45.633   8.105  12.132  0.00  0.00    +0.000 A 
ATOM     19  C   UNL     1      46.912   7.532  12.187  0.00  0.00    +0.000 A 
ATOM     20  C   UNL     1      48.066   8.333  12.122  0.00  0.00    +0.000 A 
ATOM     21  C   UNL     1      47.921   9.722  11.995  0.00  0.00    +0.000 A 
BRANCH  20  22
ATOM     22  C   UNL     1      49.443   7.722  12.199  0.00  0.00    +0.000 C 
ATOM     23  F   UNL     1      49.433   6.403  12.535  0.00  0.00    +0.000 F 
ATOM     24  F   UNL     1      50.111   7.801  11.016  0.00  0.00    +0.000 F 
ATOM     25  F   UNL     1      50.234   8.337  13.120  0.00  0.00    +0.000 F 
ENDBRANCH  20  22
ENDBRANCH  14  18
ENDBRANCH   1  14
TORSDOF 5
ENDMDL
MODEL 8
REMARK VINA RESULT:    -6.766      3.777      7.079
REMARK INTER + INTRA:          -9.805
REMARK INTER:                  -8.654
REMARK INTRA:                  -1.151
REMARK UNBOUND:                -1.062
REMARK  Name = 
REMARK  5 active torsions:
REMARK  status: ('A' for Active; 'I' for Inactive)
REMARK    1  A    between atoms: C_4  and  C_5
REMARK    2  A    between atoms: C_5  and  C_6
REMARK    3  A    between atoms: C_6  and  C_7
REMARK    4  A    between atoms: C_11  and  C_12
REMARK    5  A    between atoms: C_20  and  C_21
REMARK                            x       y       z     vdW  Elec       q    Type
REMARK                         _______ _______ _______ _____ _____    ______ ____
ROOT
ATOM      1  C   UNL     1      49.340   7.241  14.271  0.00  0.00    +0.000 C 
ENDROOT
BRANCH   1   2
ATOM      2  C   UNL     1      47.948   7.366  13.688  0.00  0.00    +0.000 A 
ATOM      3  C   UNL     1      47.305   8.602  13.666  0.00  0.00    +0.000 A 
ATOM      4  C   UNL     1      46.022   8.677  13.143  0.00  0.00    +0.000 A 
ATOM      5  N   UNL     1      45.336   7.614  12.666  0.00  0.00    +0.000 NA
ATOM      6  C   UNL     1      45.938   6.402  12.724  0.00  0.00    +0.000 A 
ATOM      7  C   UNL     1      47.236   6.256  13.219  0.00  0.00    +0.000 A 
BRANCH   6   8
ATOM      8  C   UNL     1      45.150   5.255  12.243  0.00  0.00    +0.000 A 
ATOM      9  C   UNL     1      45.053   4.934  10.882  0.00  0.00    +0.000 A 
ATOM     10  C   UNL     1      44.309   3.831  10.464  0.00  0.00    +0.000 A 
ATOM     11  C   UNL     1      43.671   3.064  11.425  0.00  0.00    +0.000 A 
ATOM     12  N   UNL     1      43.725   3.329  12.744  0.00  0.00    +0.000 NA
ATOM     13  C   UNL     1      44.450   4.413  13.113  0.00  0.00    +0.000 A 
ENDBRANCH   6   8
ENDBRANCH   1   2
BRANCH   1  14
ATOM     14  C   UNL     1      49.462   7.721  15.724  0.00  0.00    +0.000 C 
BRANCH  14  18
ATOM     15  F   UNL     1      47.217   6.854  19.970  0.00  0.00    +0.000 F 
ATOM     16  C   UNL     1      47.706   6.384  18.816  0.00  0.00    +0.000 A 
ATOM     17  C   UNL     1      48.330   7.256  17.932  0.00  0.00    +0.000 A 
ATOM     18  C   UNL     1      48.827   6.778  16.714  0.00  0.00    +0.000 A 
ATOM     19  C   UNL     1      48.707   5.413  16.415  0.00  0.00    +0.000 A 
ATOM     20  C   UNL     1      48.077   4.529  17.309  0.00  0.00    +0.000 A 
ATOM     21  C   UNL     1      47.572   5.034  18.516  0.00  0.00    +0.000 A 
BRANCH  20  22
ATOM     22  C   UNL     1      47.930   3.065  16.983  0.00  0.00    +0.000 C 
ATOM     23  F   UNL     1      49.032   2.327  17.291  0.00  0.00    +0.000 F 
ATOM     24  F   UNL     1      46.895   2.487  17.651  0.00  0.00    +0.000 F 
ATOM     25  F   UNL     1      47.693   2.848  15.660  0.00  0.00    +0.000 F 
ENDBRANCH  20  22
ENDBRANCH  14  18
ENDBRANCH   1  14
TORSDOF 5
ENDMDL
MODEL 9
REMARK VINA RESULT:    -6.731      4.238      7.526
REMARK INTER + INTRA:          -9.760
REMARK INTER:                  -8.842
REMARK INTRA:                  -0.918
REMARK UNBOUND:                -1.062
REMARK  Name = 
REMARK  5 active torsions:
REMARK  status: ('A' for Active; 'I' for Inactive)
REMARK    1  A    between atoms: C_4  and  C_5
REMARK    2  A    between atoms: C_5  and  C_6
REMARK    3  A    between atoms: C_6  and  C_7
REMARK    4  A    between atoms: C_11  and  C_12
REMARK    5  A    between atoms: C_20  and  C_21
REMARK                            x       y       z     vdW  Elec       q    Type
REMARK                         _______ _______ _______ _____ _____    ______ ____
ROOT
ATOM      1  C   UNL     1      45.227   5.619  12.987  0.00  0.00    +0.000 C 
ENDROOT
BRANCH   1   2
ATOM      2  C   UNL     1      44.733   4.542  12.043  0.00  0.00    +0.000 A 
ATOM      3  C   UNL     1      43.636   3.755  12.390  0.00  0.00    +0.000 A 
ATOM      4  C   UNL     1      43.223   2.764  11.511  0.00  0.00    +0.000 A 
ATOM      5  N   UNL     1      43.832   2.492  10.336  0.00  0.00    +0.000 NA
ATOM      6  C   UNL     1      44.925   3.224  10.013  0.00  0.00    +0.000 A 
ATOM      7  C   UNL     1      45.385   4.251  10.840  0.00  0.00    +0.000 A 
BRANCH   6   8
ATOM      8  C   UNL     1      45.599   2.875   8.750  0.00  0.00    +0.000 A 
ATOM      9  C   UNL     1      45.858   3.827   7.755  0.00  0.00    +0.000 A 
ATOM     10  C   UNL     1      46.511   3.463   6.578  0.00  0.00    +0.000 A 
ATOM     11  C   UNL     1      46.894   2.141   6.418  0.00  0.00    +0.000 A 
ATOM     12  N   UNL     1      46.665   1.185   7.337  0.00  0.00    +0.000 NA
ATOM     13  C   UNL     1      46.021   1.573   8.466  0.00  0.00    +0.000 A 
ENDBRANCH   6   8
ENDBRANCH   1   2
BRANCH   1  14
ATOM     14  C   UNL     1      45.064   7.049  12.454  0.00  0.00    +0.000 C 
BRANCH  14  18
ATOM     15  F   UNL     1      49.901   6.950  11.807  0.00  0.00    +0.000 F 
ATOM     16  C   UNL     1      48.769   7.662  11.886  0.00  0.00    +0.000 A 
ATOM     17  C   UNL     1      47.570   7.013  12.151  0.00  0.00    +0.000 A 
ATOM     18  C   UNL     1      46.379   7.746  12.216  0.00  0.00    +0.000 A 
ATOM     19  C   UNL     1      46.421   9.136  12.034  0.00  0.00    +0.000 A 
ATOM     20  C   UNL     1      47.635   9.794  11.767  0.00  0.00    +0.000 A 
ATOM     21  C   UNL     1      48.813   9.037  11.691  0.00  0.00    +0.000 A 
BRANCH  20  22
ATOM     22  C   UNL     1      47.681  11.286  11.554  0.00  0.00    +0.000 C 
ATOM     23  F   UNL     1      46.633  11.948  12.118  0.00  0.00    +0.000 F 
ATOM     24  F   UNL     1      48.804  11.850  12.077  0.00  0.00    +0.000 F 
ATOM     25  F   UNL     1      47.670  11.623  10.235  0.00  0.00    +0.000 F 
ENDBRANCH  20  22
ENDBRANCH  14  18
ENDBRANCH   1  14
TORSDOF 5
ENDMDL
