MODEL 1
REMARK VINA RESULT:    -8.364      0.000      0.000
REMARK INTER + INTRA:         -12.021
REMARK INTER:                 -11.297
REMARK INTRA:                  -0.724
REMARK UNBOUND:                -0.724
REMARK  Name = 
REMARK  6 active torsions:
REMARK  status: ('A' for Active; 'I' for Inactive)
REMARK    1  A    between atoms: C_2  and  C_4
REMARK    2  A    between atoms: N_8  and  C_9
REMARK    3  A    between atoms: C_9  and  C_10
REMARK    4  A    between atoms: C_10  and  C_11
REMARK    5  A    between atoms: C_15  and  O_16
REMARK    6  A    between atoms: O_16  and  C_17
REMARK                            x       y       z     vdW  Elec       q    Type
REMARK                         _______ _______ _______ _____ _____    ______ ____
ROOT
ATOM      1  C   UNL     1      46.626   2.477   7.450  0.00  0.00    +0.000 A 
ATOM      2  C   UNL     1      45.831   1.818   8.381  0.00  0.00    +0.000 A 
ATOM      3  C   UNL     1      44.906   2.551   9.127  0.00  0.00    +0.000 A 
ATOM      4  C   UNL     1      44.806   3.926   8.945  0.00  0.00    +0.000 A 
ATOM      5  N   UNL     1      43.855   4.710   9.582  0.00  0.00    +0.000 N 
ATOM      6  N   UNL     1      45.596   4.581   8.073  0.00  0.00    +0.000 NA
ATOM      7  C   UNL     1      46.489   3.854   7.350  0.00  0.00    +0.000 A 
ATOM      8  H   UNL     1      44.096   5.678   9.375  0.00  0.00    +0.000 HD
ENDROOT
BRANCH   1  10
ATOM      9  N   UNL     1      48.772   2.419   6.318  0.00  0.00    +0.000 N 
ATOM     10  C   UNL     1      47.590   1.779   6.575  0.00  0.00    +0.000 C 
ATOM     11  O   UNL     1      47.363   0.663   6.133  0.00  0.00    +0.000 OA
ATOM     12  H   UNL     1      49.470   1.886   5.814  0.00  0.00    +0.000 HD
ATOM     13  H   UNL     1      49.095   3.206   6.864  0.00  0.00    +0.000 HD
ENDBRANCH   1  10
BRANCH   5  14
ATOM     14  C   UNL     1      43.510   4.415  10.965  0.00  0.00    +0.000 C 
BRANCH  14  15
ATOM     15  C   UNL     1      43.767   5.640  11.850  0.00  0.00    +0.000 C 
BRANCH  15  16
ATOM     16  C   UNL     1      45.175   5.650  12.388  0.00  0.00    +0.000 A 
ATOM     17  C   UNL     1      46.092   6.596  11.936  0.00  0.00    +0.000 A 
ATOM     18  N   UNL     1      47.365   6.687  12.378  0.00  0.00    +0.000 NA
ATOM     19  C   UNL     1      47.739   5.787  13.317  0.00  0.00    +0.000 A 
ATOM     20  C   UNL     1      46.903   4.816  13.852  0.00  0.00    +0.000 A 
ATOM     21  C   UNL     1      45.598   4.743  13.372  0.00  0.00    +0.000 A 
BRANCH  20  22
ATOM     22  O   UNL     1      47.460   3.992  14.792  0.00  0.00    +0.000 OA
BRANCH  22  23
ATOM     23  C   UNL     1      47.271   4.285  16.191  0.00  0.00    +0.000 C 
ATOM     24  C   UNL     1      48.422   5.018  16.931  0.00  0.00    +0.000 C 
ATOM     25  C   UNL     1      48.146   4.098  18.137  0.00  0.00    +0.000 C 
ATOM     26  C   UNL     1      47.560   3.086  17.137  0.00  0.00    +0.000 C 
ENDBRANCH  22  23
ENDBRANCH  20  22
ENDBRANCH  15  16
ENDBRANCH  14  15
ENDBRANCH   5  14
TORSDOF 6
ENDMDL
MODEL 2
REMARK VINA RESULT:    -7.894      1.912      3.324
REMARK INTER + INTRA:         -11.388
REMARK INTER:                 -10.611
REMARK INTRA:                  -0.776
REMARK UNBOUND:                -0.724
REMARK  Name = 
REMARK  6 active torsions:
REMARK  status: ('A' for Active; 'I' for Inactive)
REMARK    1  A    between atoms: C_2  and  C_4
REMARK    2  A    between atoms: N_8  and  C_9
REMARK    3  A    between atoms: C_9  and  C_10
REMARK    4  A    between atoms: C_10  and  C_11
REMARK    5  A    between atoms: C_15  and  O_16
REMARK    6  A    between atoms: O_16  and  C_17
REMARK                            x       y       z     vdW  Elec       q    Type
REMARK                         _______ _______ _______ _____ _____    ______ ____
ROOT
ATOM      1  C   UNL     1      46.611   2.457   7.516  0.00  0.00    +0.000 A 
ATOM      2  C   UNL     1      45.775   1.802   8.414  0.00  0.00    +0.000 A 
ATOM      3  C   UNL     1      44.838   2.543   9.136  0.00  0.00    +0.000 A 
ATOM      4  C   UNL     1      44.765   3.922   8.964  0.00  0.00    +0.000 A 
ATOM      5  N   UNL     1      43.806   4.715   9.576  0.00  0.00    +0.000 N 
ATOM      6  N   UNL     1      45.593   4.572   8.124  0.00  0.00    +0.000 NA
ATOM      7  C   UNL     1      46.498   3.838   7.424  0.00  0.00    +0.000 A 
ATOM      8  H   UNL     1      44.068   5.681   9.387  0.00  0.00    +0.000 HD
ENDROOT
BRANCH   1  10
ATOM      9  N   UNL     1      48.747   2.423   6.364  0.00  0.00    +0.000 N 
ATOM     10  C   UNL     1      47.592   1.752   6.667  0.00  0.00    +0.000 C 
ATOM     11  O   UNL     1      47.404   0.607   6.284  0.00  0.00    +0.000 OA
ATOM     12  H   UNL     1      49.460   1.891   5.879  0.00  0.00    +0.000 HD
ATOM     13  H   UNL     1      49.044   3.248   6.865  0.00  0.00    +0.000 HD
ENDBRANCH   1  10
BRANCH   5  14
ATOM     14  C   UNL     1      43.411   4.413  10.945  0.00  0.00    +0.000 C 
BRANCH  14  15
ATOM     15  C   UNL     1      43.616   5.640  11.840  0.00  0.00    +0.000 C 
BRANCH  15  16
ATOM     16  C   UNL     1      44.899   5.546  12.625  0.00  0.00    +0.000 A 
ATOM     17  C   UNL     1      45.163   4.421  13.405  0.00  0.00    +0.000 A 
ATOM     18  N   UNL     1      46.293   4.247  14.123  0.00  0.00    +0.000 NA
ATOM     19  C   UNL     1      47.203   5.246  14.061  0.00  0.00    +0.000 A 
ATOM     20  C   UNL     1      47.052   6.399  13.302  0.00  0.00    +0.000 A 
ATOM     21  C   UNL     1      45.874   6.554  12.576  0.00  0.00    +0.000 A 
BRANCH  20  22
ATOM     22  O   UNL     1      48.080   7.302  13.367  0.00  0.00    +0.000 OA
BRANCH  22  23
ATOM     23  C   UNL     1      48.243   8.263  12.304  0.00  0.00    +0.000 C 
ATOM     24  C   UNL     1      49.562   8.211  11.487  0.00  0.00    +0.000 C 
ATOM     25  C   UNL     1      49.555   9.752  11.498  0.00  0.00    +0.000 C 
ATOM     26  C   UNL     1      48.712   9.666  12.783  0.00  0.00    +0.000 C 
ENDBRANCH  22  23
ENDBRANCH  20  22
ENDBRANCH  15  16
ENDBRANCH  14  15
ENDBRANCH   5  14
TORSDOF 6
ENDMDL
MODEL 3
REMARK VINA RESULT:    -7.515      2.441      4.314
REMARK INTER + INTRA:         -10.875
REMARK INTER:                 -10.064
REMARK INTRA:                  -0.810
REMARK UNBOUND:                -0.724
REMARK  Name = 
REMARK  6 active torsions:
REMARK  status: ('A' for Active; 'I' for Inactive)
REMARK    1  A    between atoms: C_2  and  C_4
REMARK    2  A    between atoms: N_8  and  C_9
REMARK    3  A    between atoms: C_9  and  C_10
REMARK    4  A    between atoms: C_10  and  C_11
REMARK    5  A    between atoms: C_15  and  O_16
REMARK    6  A    between atoms: O_16  and  C_17
REMARK                            x       y       z     vdW  Elec       q    Type
REMARK                         _______ _______ _______ _____ _____    ______ ____
ROOT
ATOM      1  C   UNL     1      46.387   2.858   7.468  0.00  0.00    +0.000 A 
ATOM      2  C   UNL     1      45.977   4.073   8.005  0.00  0.00    +0.000 A 
ATOM      3  C   UNL     1      45.251   4.080   9.198  0.00  0.00    +0.000 A 
ATOM      4  C   UNL     1      44.933   2.877   9.820  0.00  0.00    +0.000 A 
ATOM      5  N   UNL     1      44.293   2.803  11.049  0.00  0.00    +0.000 N 
ATOM      6  N   UNL     1      45.293   1.692   9.290  0.00  0.00    +0.000 NA
ATOM      7  C   UNL     1      46.003   1.701   8.131  0.00  0.00    +0.000 A 
ATOM      8  H   UNL     1      44.067   1.820  11.196  0.00  0.00    +0.000 HD
ENDROOT
BRANCH   1  10
ATOM      9  N   UNL     1      48.554   2.579   6.411  0.00  0.00    +0.000 N 
ATOM     10  C   UNL     1      47.207   2.754   6.244  0.00  0.00    +0.000 C 
ATOM     11  O   UNL     1      46.703   2.782   5.131  0.00  0.00    +0.000 OA
ATOM     12  H   UNL     1      49.090   2.395   5.572  0.00  0.00    +0.000 HD
ATOM     13  H   UNL     1      48.961   2.297   7.292  0.00  0.00    +0.000 HD
ENDBRANCH   1  10
BRANCH   5  14
ATOM     14  C   UNL     1      43.237   3.757  11.352  0.00  0.00    +0.000 C 
BRANCH  14  15
ATOM     15  C   UNL     1      43.394   4.288  12.782  0.00  0.00    +0.000 C 
BRANCH  15  16
ATOM     16  C   UNL     1      44.620   5.152  12.921  0.00  0.00    +0.000 A 
ATOM     17  C   UNL     1      45.723   4.696  13.641  0.00  0.00    +0.000 A 
ATOM     18  N   UNL     1      46.866   5.397  13.799  0.00  0.00    +0.000 NA
ATOM     19  C   UNL     1      46.910   6.614  13.209  0.00  0.00    +0.000 A 
ATOM     20  C   UNL     1      45.880   7.157  12.452  0.00  0.00    +0.000 A 
ATOM     21  C   UNL     1      44.710   6.414  12.312  0.00  0.00    +0.000 A 
BRANCH  20  22
ATOM     22  O   UNL     1      46.105   8.405  11.935  0.00  0.00    +0.000 OA
BRANCH  22  23
ATOM     23  C   UNL     1      45.100   9.427  12.095  0.00  0.00    +0.000 C 
ATOM     24  C   UNL     1      44.088   9.623  10.934  0.00  0.00    +0.000 C 
ATOM     25  C   UNL     1      44.209  11.142  11.172  0.00  0.00    +0.000 C 
ATOM     26  C   UNL     1      45.599  10.863  11.770  0.00  0.00    +0.000 C 
ENDBRANCH  22  23
ENDBRANCH  20  22
ENDBRANCH  15  16
ENDBRANCH  14  15
ENDBRANCH   5  14
TORSDOF 6
ENDMDL
MODEL 4
REMARK VINA RESULT:    -7.092      2.398      8.405
REMARK INTER + INTRA:         -10.304
REMARK INTER:                  -9.927
REMARK INTRA:                  -0.377
REMARK UNBOUND:                -0.724
REMARK  Name = 
REMARK  6 active torsions:
REMARK  status: ('A' for Active; 'I' for Inactive)
REMARK    1  A    between atoms: C_2  and  C_4
REMARK    2  A    between atoms: N_8  and  C_9
REMARK    3  A    between atoms: C_9  and  C_10
REMARK    4  A    between atoms: C_10  and  C_11
REMARK    5  A    between atoms: C_15  and  O_16
REMARK    6  A    between atoms: O_16  and  C_17
REMARK                            x       y       z     vdW  Elec       q    Type
REMARK                         _______ _______ _______ _____ _____    ______ ____
ROOT
ATOM      1  C   UNL     1      48.562   4.344  17.079  0.00  0.00    +0.000 A 
ATOM      2  C   UNL     1      47.549   3.640  16.438  0.00  0.00    +0.000 A 
ATOM      3  C   UNL     1      47.053   4.115  15.223  0.00  0.00    +0.000 A 
ATOM      4  C   UNL     1      47.563   5.290  14.680  0.00  0.00    +0.000 A 
ATOM      5  N   UNL     1      47.188   5.779  13.437  0.00  0.00    +0.000 N 
ATOM      6  N   UNL     1      48.520   6.000  15.309  0.00  0.00    +0.000 NA
ATOM      7  C   UNL     1      48.996   5.524  16.490  0.00  0.00    +0.000 A 
ATOM      8  H   UNL     1      47.604   6.705  13.355  0.00  0.00    +0.000 HD
ENDROOT
BRANCH   1  10
ATOM      9  N   UNL     1      48.369   3.297  19.260  0.00  0.00    +0.000 N 
ATOM     10  C   UNL     1      49.188   3.890  18.337  0.00  0.00    +0.000 C 
ATOM     11  O   UNL     1      50.390   3.999  18.531  0.00  0.00    +0.000 OA
ATOM     12  H   UNL     1      48.825   2.888  20.066  0.00  0.00    +0.000 HD
ATOM     13  H   UNL     1      47.444   2.963  19.031  0.00  0.00    +0.000 HD
ENDBRANCH   1  10
BRANCH   5  14
ATOM     14  C   UNL     1      45.796   5.663  13.025  0.00  0.00    +0.000 C 
BRANCH  14  15
ATOM     15  C   UNL     1      45.633   6.115  11.570  0.00  0.00    +0.000 C 
BRANCH  15  16
ATOM     16  C   UNL     1      45.269   4.964  10.669  0.00  0.00    +0.000 A 
ATOM     17  C   UNL     1      44.551   3.880  11.171  0.00  0.00    +0.000 A 
ATOM     18  N   UNL     1      44.168   2.818  10.430  0.00  0.00    +0.000 NA
ATOM     19  C   UNL     1      44.520   2.839   9.124  0.00  0.00    +0.000 A 
ATOM     20  C   UNL     1      45.216   3.876   8.515  0.00  0.00    +0.000 A 
ATOM     21  C   UNL     1      45.603   4.955   9.305  0.00  0.00    +0.000 A 
BRANCH  20  22
ATOM     22  O   UNL     1      45.485   3.720   7.182  0.00  0.00    +0.000 OA
BRANCH  22  23
ATOM     23  C   UNL     1      46.778   3.227   6.776  0.00  0.00    +0.000 C 
ATOM     24  C   UNL     1      46.936   2.759   5.304  0.00  0.00    +0.000 C 
ATOM     25  C   UNL     1      47.794   1.593   5.834  0.00  0.00    +0.000 C 
ATOM     26  C   UNL     1      47.046   1.747   7.169  0.00  0.00    +0.000 C 
ENDBRANCH  22  23
ENDBRANCH  20  22
ENDBRANCH  15  16
ENDBRANCH  14  15
ENDBRANCH   5  14
TORSDOF 6
ENDMDL
MODEL 5
REMARK VINA RESULT:    -6.928      2.943      8.714
REMARK INTER + INTRA:         -10.082
REMARK INTER:                  -9.718
REMARK INTRA:                  -0.365
REMARK UNBOUND:                -0.724
REMARK  Name = 
REMARK  6 active torsions:
REMARK  status: ('A' for Active; 'I' for Inactive)
REMARK    1  A    between atoms: C_2  and  C_4
REMARK    2  A    between atoms: N_8  and  C_9
REMARK    3  A    between atoms: C_9  and  C_10
REMARK    4  A    between atoms: C_10  and  C_11
REMARK    5  A    between atoms: C_15  and  O_16
REMARK    6  A    between atoms: O_16  and  C_17
REMARK                            x       y       z     vdW  Elec       q    Type
REMARK                         _______ _______ _______ _____ _____    ______ ____
ROOT
ATOM      1  C   UNL     1      48.616   4.436  18.308  0.00  0.00    +0.000 A 
ATOM      2  C   UNL     1      48.669   5.524  17.444  0.00  0.00    +0.000 A 
ATOM      3  C   UNL     1      47.987   5.463  16.228  0.00  0.00    +0.000 A 
ATOM      4  C   UNL     1      47.282   4.312  15.888  0.00  0.00    +0.000 A 
ATOM      5  N   UNL     1      46.508   4.205  14.742  0.00  0.00    +0.000 N 
ATOM      6  N   UNL     1      47.252   3.238  16.700  0.00  0.00    +0.000 NA
ATOM      7  C   UNL     1      47.918   3.314  17.883  0.00  0.00    +0.000 A 
ATOM      8  H   UNL     1      46.224   3.230  14.677  0.00  0.00    +0.000 HD
ENDROOT
BRANCH   1  10
ATOM      9  N   UNL     1      48.518   3.938  20.681  0.00  0.00    +0.000 N 
ATOM     10  C   UNL     1      49.256   4.431  19.638  0.00  0.00    +0.000 C 
ATOM     11  O   UNL     1      50.407   4.810  19.798  0.00  0.00    +0.000 OA
ATOM     12  H   UNL     1      49.004   3.832  21.563  0.00  0.00    +0.000 HD
ATOM     13  H   UNL     1      47.681   3.389  20.544  0.00  0.00    +0.000 HD
ENDBRANCH   1  10
BRANCH   5  14
ATOM     14  C   UNL     1      46.985   4.818  13.510  0.00  0.00    +0.000 C 
BRANCH  14  15
ATOM     15  C   UNL     1      45.931   5.784  12.954  0.00  0.00    +0.000 C 
BRANCH  15  16
ATOM     16  C   UNL     1      45.210   5.195  11.770  0.00  0.00    +0.000 A 
ATOM     17  C   UNL     1      43.938   4.646  11.925  0.00  0.00    +0.000 A 
ATOM     18  N   UNL     1      43.216   4.116  10.914  0.00  0.00    +0.000 NA
ATOM     19  C   UNL     1      43.792   4.134   9.691  0.00  0.00    +0.000 A 
ATOM     20  C   UNL     1      45.043   4.673   9.419  0.00  0.00    +0.000 A 
ATOM     21  C   UNL     1      45.767   5.207  10.482  0.00  0.00    +0.000 A 
BRANCH  20  22
ATOM     22  O   UNL     1      45.463   4.598   8.118  0.00  0.00    +0.000 OA
BRANCH  22  23
ATOM     23  C   UNL     1      45.650   3.304   7.510  0.00  0.00    +0.000 C 
ATOM     24  C   UNL     1      45.992   2.115   8.448  0.00  0.00    +0.000 C 
ATOM     25  C   UNL     1      46.979   1.631   7.368  0.00  0.00    +0.000 C 
ATOM     26  C   UNL     1      47.061   3.092   6.892  0.00  0.00    +0.000 C 
ENDBRANCH  22  23
ENDBRANCH  20  22
ENDBRANCH  15  16
ENDBRANCH  14  15
ENDBRANCH   5  14
TORSDOF 6
ENDMDL
MODEL 6
REMARK VINA RESULT:    -6.626      3.672      8.544
REMARK INTER + INTRA:          -9.674
REMARK INTER:                  -9.286
REMARK INTRA:                  -0.388
REMARK UNBOUND:                -0.724
REMARK  Name = 
REMARK  6 active torsions:
REMARK  status: ('A' for Active; 'I' for Inactive)
REMARK    1  A    between atoms: C_2  and  C_4
REMARK    2  A    between atoms: N_8  and  C_9
REMARK    3  A    between atoms: C_9  and  C_10
REMARK    4  A    between atoms: C_10  and  C_11
REMARK    5  A    between atoms: C_15  and  O_16
REMARK    6  A    between atoms: O_16  and  C_17
REMARK                            x       y       z     vdW  Elec       q    Type
REMARK                         _______ _______ _______ _____ _____    ______ ____
ROOT
ATOM      1  C   UNL     1      51.241   2.986  17.768  0.00  0.00    +0.000 A 
ATOM      2  C   UNL     1      50.592   4.216  17.766  0.00  0.00    +0.000 A 
ATOM      3  C   UNL     1      49.325   4.317  17.189  0.00  0.00    +0.000 A 
ATOM      4  C   UNL     1      48.738   3.196  16.610  0.00  0.00    +0.000 A 
ATOM      5  N   UNL     1      47.449   3.193  16.097  0.00  0.00    +0.000 N 
ATOM      6  N   UNL     1      49.371   2.008  16.574  0.00  0.00    +0.000 NA
ATOM      7  C   UNL     1      50.602   1.923  17.143  0.00  0.00    +0.000 A 
ATOM      8  H   UNL     1      47.332   2.300  15.621  0.00  0.00    +0.000 HD
ENDROOT
BRANCH   1  10
ATOM      9  N   UNL     1      53.135   3.847  19.016  0.00  0.00    +0.000 N 
ATOM     10  C   UNL     1      52.556   2.768  18.404  0.00  0.00    +0.000 C 
ATOM     11  O   UNL     1      53.086   1.668  18.420  0.00  0.00    +0.000 OA
ATOM     12  H   UNL     1      53.978   3.662  19.546  0.00  0.00    +0.000 HD
ATOM     13  H   UNL     1      52.619   4.686  19.243  0.00  0.00    +0.000 HD
ENDBRANCH   1  10
BRANCH   5  14
ATOM     14  C   UNL     1      46.972   4.368  15.382  0.00  0.00    +0.000 C 
BRANCH  14  15
ATOM     15  C   UNL     1      47.211   4.208  13.876  0.00  0.00    +0.000 C 
BRANCH  15  16
ATOM     16  C   UNL     1      45.930   4.345  13.094  0.00  0.00    +0.000 A 
ATOM     17  C   UNL     1      45.122   5.468  13.262  0.00  0.00    +0.000 A 
ATOM     18  N   UNL     1      43.971   5.678  12.589  0.00  0.00    +0.000 NA
ATOM     19  C   UNL     1      43.608   4.719  11.706  0.00  0.00    +0.000 A 
ATOM     20  C   UNL     1      44.346   3.572  11.445  0.00  0.00    +0.000 A 
ATOM     21  C   UNL     1      45.527   3.379  12.159  0.00  0.00    +0.000 A 
BRANCH  20  22
ATOM     22  O   UNL     1      43.819   2.712  10.519  0.00  0.00    +0.000 OA
BRANCH  22  23
ATOM     23  C   UNL     1      44.262   2.791   9.150  0.00  0.00    +0.000 C 
ATOM     24  C   UNL     1      45.530   1.984   8.760  0.00  0.00    +0.000 C 
ATOM     25  C   UNL     1      45.950   3.187   7.892  0.00  0.00    +0.000 C 
ATOM     26  C   UNL     1      45.092   4.063   8.822  0.00  0.00    +0.000 C 
ENDBRANCH  22  23
ENDBRANCH  20  22
ENDBRANCH  15  16
ENDBRANCH  14  15
ENDBRANCH   5  14
TORSDOF 6
ENDMDL
MODEL 7
REMARK VINA RESULT:    -6.540      3.353      7.501
REMARK INTER + INTRA:          -9.558
REMARK INTER:                  -8.872
REMARK INTRA:                  -0.686
REMARK UNBOUND:                -0.724
REMARK  Name = 
REMARK  6 active torsions:
REMARK  status: ('A' for Active; 'I' for Inactive)
REMARK    1  A    between atoms: C_2  and  C_4
REMARK    2  A    between atoms: N_8  and  C_9
REMARK    3  A    between atoms: C_9  and  C_10
REMARK    4  A    between atoms: C_10  and  C_11
REMARK    5  A    between atoms: C_15  and  O_16
REMARK    6  A    between atoms: O_16  and  C_17
REMARK                            x       y       z     vdW  Elec       q    Type
REMARK                         _______ _______ _______ _____ _____    ______ ____
ROOT
ATOM      1  C   UNL     1      47.949   8.744  12.231  0.00  0.00    +0.000 A 
ATOM      2  C   UNL     1      46.665   9.066  12.657  0.00  0.00    +0.000 A 
ATOM      3  C   UNL     1      45.764   8.039  12.943  0.00  0.00    +0.000 A 
ATOM      4  C   UNL     1      46.154   6.713  12.780  0.00  0.00    +0.000 A 
ATOM      5  N   UNL     1      45.349   5.637  13.126  0.00  0.00    +0.000 N 
ATOM      6  N   UNL     1      47.382   6.389  12.334  0.00  0.00    +0.000 NA
ATOM      7  C   UNL     1      48.250   7.400  12.064  0.00  0.00    +0.000 A 
ATOM      8  H   UNL     1      45.820   4.803  12.778  0.00  0.00    +0.000 HD
ENDROOT
BRANCH   1  10
ATOM      9  N   UNL     1      50.154   9.318  11.397  0.00  0.00    +0.000 N 
ATOM     10  C   UNL     1      48.987   9.759  11.961  0.00  0.00    +0.000 C 
ATOM     11  O   UNL     1      48.800  10.944  12.191  0.00  0.00    +0.000 OA
ATOM     12  H   UNL     1      50.812  10.034  11.111  0.00  0.00    +0.000 HD
ATOM     13  H   UNL     1      50.240   8.410  10.964  0.00  0.00    +0.000 HD
ENDBRANCH   1  10
BRANCH   5  14
ATOM     14  C   UNL     1      43.918   5.717  12.874  0.00  0.00    +0.000 C 
BRANCH  14  15
ATOM     15  C   UNL     1      43.651   5.898  11.375  0.00  0.00    +0.000 C 
BRANCH  15  16
ATOM     16  C   UNL     1      44.118   4.706  10.581  0.00  0.00    +0.000 A 
ATOM     17  C   UNL     1      43.593   3.441  10.840  0.00  0.00    +0.000 A 
ATOM     18  N   UNL     1      43.941   2.325  10.164  0.00  0.00    +0.000 NA
ATOM     19  C   UNL     1      44.859   2.479   9.183  0.00  0.00    +0.000 A 
ATOM     20  C   UNL     1      45.431   3.694   8.827  0.00  0.00    +0.000 A 
ATOM     21  C   UNL     1      45.058   4.827   9.545  0.00  0.00    +0.000 A 
BRANCH  20  22
ATOM     22  O   UNL     1      46.346   3.654   7.809  0.00  0.00    +0.000 OA
BRANCH  22  23
ATOM     23  C   UNL     1      46.397   2.497   6.950  0.00  0.00    +0.000 C 
ATOM     24  C   UNL     1      47.655   1.592   7.043  0.00  0.00    +0.000 C 
ATOM     25  C   UNL     1      47.593   1.458   5.508  0.00  0.00    +0.000 C 
ATOM     26  C   UNL     1      46.849   2.805   5.495  0.00  0.00    +0.000 C 
ENDBRANCH  22  23
ENDBRANCH  20  22
ENDBRANCH  15  16
ENDBRANCH  14  15
ENDBRANCH   5  14
TORSDOF 6
ENDMDL
MODEL 8
REMARK VINA RESULT:    -6.495      2.513      7.576
REMARK INTER + INTRA:          -9.497
REMARK INTER:                  -9.170
REMARK INTRA:                  -0.327
REMARK UNBOUND:                -0.724
REMARK  Name = 
REMARK  6 active torsions:
REMARK  status: ('A' for Active; 'I' for Inactive)
REMARK    1  A    between atoms: C_2  and  C_4
REMARK    2  A    between atoms: N_8  and  C_9
REMARK    3  A    between atoms: C_9  and  C_10
REMARK    4  A    between atoms: C_10  and  C_11
REMARK    5  A    between atoms: C_15  and  O_16
REMARK    6  A    between atoms: O_16  and  C_17
REMARK                            x       y       z     vdW  Elec       q    Type
REMARK                         _______ _______ _______ _____ _____    ______ ____
ROOT
ATOM      1  C   UNL     1      47.527   4.575  16.268  0.00  0.00    +0.000 A 
ATOM      2  C   UNL     1      47.144   4.131  15.008  0.00  0.00    +0.000 A 
ATOM      3  C   UNL     1      47.447   4.911  13.890  0.00  0.00    +0.000 A 
ATOM      4  C   UNL     1      48.107   6.125  14.052  0.00  0.00    +0.000 A 
ATOM      5  N   UNL     1      48.520   6.914  12.988  0.00  0.00    +0.000 N 
ATOM      6  N   UNL     1      48.451   6.583  15.271  0.00  0.00    +0.000 NA
ATOM      7  C   UNL     1      48.154   5.811  16.350  0.00  0.00    +0.000 A 
ATOM      8  H   UNL     1      48.845   7.791  13.391  0.00  0.00    +0.000 HD
ENDROOT
BRANCH   1  10
ATOM      9  N   UNL     1      47.937   4.226  18.635  0.00  0.00    +0.000 N 
ATOM     10  C   UNL     1      47.303   3.793  17.501  0.00  0.00    +0.000 C 
ATOM     11  O   UNL     1      46.554   2.828  17.521  0.00  0.00    +0.000 OA
ATOM     12  H   UNL     1      47.687   3.754  19.495  0.00  0.00    +0.000 HD
ATOM     13  H   UNL     1      48.344   5.147  18.713  0.00  0.00    +0.000 HD
ENDBRANCH   1  10
BRANCH   5  14
ATOM     14  C   UNL     1      47.662   7.024  11.818  0.00  0.00    +0.000 C 
BRANCH  14  15
ATOM     15  C   UNL     1      46.234   7.389  12.237  0.00  0.00    +0.000 C 
BRANCH  15  16
ATOM     16  C   UNL     1      45.230   6.399  11.705  0.00  0.00    +0.000 A 
ATOM     17  C   UNL     1      43.874   6.723  11.673  0.00  0.00    +0.000 A 
ATOM     18  N   UNL     1      42.912   5.904  11.196  0.00  0.00    +0.000 NA
ATOM     19  C   UNL     1      43.324   4.703  10.730  0.00  0.00    +0.000 A 
ATOM     20  C   UNL     1      44.648   4.286  10.696  0.00  0.00    +0.000 A 
ATOM     21  C   UNL     1      45.618   5.149  11.200  0.00  0.00    +0.000 A 
BRANCH  20  22
ATOM     22  O   UNL     1      44.873   3.033  10.190  0.00  0.00    +0.000 OA
BRANCH  22  23
ATOM     23  C   UNL     1      44.967   2.854   8.762  0.00  0.00    +0.000 C 
ATOM     24  C   UNL     1      46.086   1.919   8.230  0.00  0.00    +0.000 C 
ATOM     25  C   UNL     1      46.301   2.933   7.089  0.00  0.00    +0.000 C 
ATOM     26  C   UNL     1      45.713   4.002   8.026  0.00  0.00    +0.000 C 
ENDBRANCH  22  23
ENDBRANCH  20  22
ENDBRANCH  15  16
ENDBRANCH  14  15
ENDBRANCH   5  14
TORSDOF 6
ENDMDL
MODEL 9
REMARK VINA RESULT:    -6.254      3.342      7.411
REMARK INTER + INTRA:          -9.171
REMARK INTER:                  -8.727
REMARK INTRA:                  -0.444
REMARK UNBOUND:                -0.724
REMARK  Name = 
REMARK  6 active torsions:
REMARK  status: ('A' for Active; 'I' for Inactive)
REMARK    1  A    between atoms: C_2  and  C_4
REMARK    2  A    between atoms: N_8  and  C_9
REMARK    3  A    between atoms: C_9  and  C_10
REMARK    4  A    between atoms: C_10  and  C_11
REMARK    5  A    between atoms: C_15  and  O_16
REMARK    6  A    between atoms: O_16  and  C_17
REMARK                            x       y       z     vdW  Elec       q    Type
REMARK                         _______ _______ _______ _____ _____    ______ ____
ROOT
ATOM      1  C   UNL     1      45.037  10.119  11.510  0.00  0.00    +0.000 A 
ATOM      2  C   UNL     1      44.596   8.803  11.423  0.00  0.00    +0.000 A 
ATOM      3  C   UNL     1      45.279   7.809  12.126  0.00  0.00    +0.000 A 
ATOM      4  C   UNL     1      46.397   8.142  12.885  0.00  0.00    +0.000 A 
ATOM      5  N   UNL     1      47.075   7.229  13.680  0.00  0.00    +0.000 N 
ATOM      6  N   UNL     1      46.855   9.406  12.948  0.00  0.00    +0.000 NA
ATOM      7  C   UNL     1      46.177  10.366  12.262  0.00  0.00    +0.000 A 
ATOM      8  H   UNL     1      47.916   7.702  14.006  0.00  0.00    +0.000 HD
ENDROOT
BRANCH   1  10
ATOM      9  N   UNL     1      44.042  12.330  11.630  0.00  0.00    +0.000 N 
ATOM     10  C   UNL     1      44.347  11.246  10.850  0.00  0.00    +0.000 C 
ATOM     11  O   UNL     1      44.094  11.232   9.655  0.00  0.00    +0.000 OA
ATOM     12  H   UNL     1      43.674  13.140  11.146  0.00  0.00    +0.000 HD
ATOM     13  H   UNL     1      44.458  12.481  12.538  0.00  0.00    +0.000 HD
ENDBRANCH   1  10
BRANCH   5  14
ATOM     14  C   UNL     1      47.252   5.868  13.196  0.00  0.00    +0.000 C 
BRANCH  14  15
ATOM     15  C   UNL     1      46.276   4.921  13.904  0.00  0.00    +0.000 C 
BRANCH  15  16
ATOM     16  C   UNL     1      45.167   4.477  12.985  0.00  0.00    +0.000 A 
ATOM     17  C   UNL     1      43.880   4.989  13.140  0.00  0.00    +0.000 A 
ATOM     18  N   UNL     1      42.836   4.661  12.350  0.00  0.00    +0.000 NA
ATOM     19  C   UNL     1      43.089   3.776  11.358  0.00  0.00    +0.000 A 
ATOM     20  C   UNL     1      44.335   3.220  11.100  0.00  0.00    +0.000 A 
ATOM     21  C   UNL     1      45.392   3.573  11.935  0.00  0.00    +0.000 A 
BRANCH  20  22
ATOM     22  O   UNL     1      44.398   2.341  10.053  0.00  0.00    +0.000 OA
BRANCH  22  23
ATOM     23  C   UNL     1      44.690   2.837   8.730  0.00  0.00    +0.000 C 
ATOM     24  C   UNL     1      45.953   2.280   8.019  0.00  0.00    +0.000 C 
ATOM     25  C   UNL     1      46.213   3.709   7.502  0.00  0.00    +0.000 C 
ATOM     26  C   UNL     1      45.410   4.214   8.713  0.00  0.00    +0.000 C 
ENDBRANCH  22  23
ENDBRANCH  20  22
ENDBRANCH  15  16
ENDBRANCH  14  15
ENDBRANCH   5  14
TORSDOF 6
ENDMDL
