MODEL 1
REMARK VINA RESULT:    -7.587      0.000      0.000
REMARK INTER + INTRA:         -10.273
REMARK INTER:                  -9.805
REMARK INTRA:                  -0.468
REMARK UNBOUND:                -0.468
REMARK  Name = 
REMARK  6 active torsions:
REMARK  status: ('A' for Active; 'I' for Inactive)
REMARK    1  A    between atoms: C_1  and  C_2
REMARK    2  A    between atoms: C_5  and  O_6
REMARK    3  A    between atoms: O_6  and  C_7
REMARK    4  A    between atoms: C_7  and  C_8
REMARK    5  A    between atoms: C_10  and  C_11
REMARK    6  A    between atoms: C_15  and  C_16
REMARK                            x       y       z     vdW  Elec       q    Type
REMARK                         _______ _______ _______ _____ _____    ______ ____
ROOT
ATOM      1  C   UNL     1      45.121   4.812  12.081  0.00  0.00    +0.000 A 
ATOM      2  C   UNL     1      45.944   5.893  11.750  0.00  0.00    +0.000 A 
ATOM      3  C   UNL     1      47.108   6.174  12.478  0.00  0.00    +0.000 A 
ATOM      4  C   UNL     1      47.438   5.274  13.495  0.00  0.00    +0.000 A 
ATOM      5  C   UNL     1      46.618   4.181  13.729  0.00  0.00    +0.000 A 
ATOM      6  N   UNL     1      45.476   3.941  13.056  0.00  0.00    +0.000 NA
ENDROOT
BRANCH   3   7
ATOM      7  C   UNL     1      47.904   7.395  12.207  0.00  0.00    +0.000 A 
ATOM      8  C   UNL     1      49.282   7.354  11.984  0.00  0.00    +0.000 A 
ATOM      9  C   UNL     1      49.978   8.539  11.761  0.00  0.00    +0.000 A 
ATOM     10  N   UNL     1      49.405   9.756  11.733  0.00  0.00    +0.000 NA
ATOM     11  C   UNL     1      48.068   9.797  11.940  0.00  0.00    +0.000 A 
ATOM     12  C   UNL     1      47.296   8.669  12.189  0.00  0.00    +0.000 A 
BRANCH  11  13
ATOM     13  C   UNL     1      47.459  11.100  11.899  0.00  0.00    +0.000 C 
ATOM     14  N   UNL     1      46.933  12.137  11.910  0.00  0.00    +0.000 NA
ENDBRANCH  11  13
ENDBRANCH   3   7
BRANCH   1  15
ATOM     15  C   UNL     1      43.768   4.684  11.404  0.00  0.00    +0.000 C 
ATOM     16  C   UNL     1      42.503   5.118  12.140  0.00  0.00    +0.000 C 
ATOM     17  C   UNL     1      43.059   5.986  11.064  0.00  0.00    +0.000 C 
BRANCH  15  18
ATOM     18  O   UNL     1      43.535   3.453  10.687  0.00  0.00    +0.000 OA
BRANCH  18  23
ATOM     19  C   UNL     1      47.390   2.840   6.784  0.00  0.00    +0.000 C 
ATOM     20  C   UNL     1      46.207   2.924   7.693  0.00  0.00    +0.000 A 
ATOM     21  C   UNL     1      45.788   1.833   8.454  0.00  0.00    +0.000 A 
ATOM     22  N   UNL     1      44.826   1.916   9.407  0.00  0.00    +0.000 NA
ATOM     23  C   UNL     1      44.313   3.152   9.588  0.00  0.00    +0.000 A 
ATOM     24  C   UNL     1      44.674   4.226   8.788  0.00  0.00    +0.000 A 
ATOM     25  N   UNL     1      45.617   4.137   7.821  0.00  0.00    +0.000 NA
ENDBRANCH  18  23
ENDBRANCH  15  18
ENDBRANCH   1  15
TORSDOF 5
ENDMDL
MODEL 2
REMARK VINA RESULT:    -7.574      0.792      1.940
REMARK INTER + INTRA:         -10.256
REMARK INTER:                  -9.791
REMARK INTRA:                  -0.466
REMARK UNBOUND:                -0.468
REMARK  Name = 
REMARK  6 active torsions:
REMARK  status: ('A' for Active; 'I' for Inactive)
REMARK    1  A    between atoms: C_1  and  C_2
REMARK    2  A    between atoms: C_5  and  O_6
REMARK    3  A    between atoms: O_6  and  C_7
REMARK    4  A    between atoms: C_7  and  C_8
REMARK    5  A    between atoms: C_10  and  C_11
REMARK    6  A    between atoms: C_15  and  C_16
REMARK                            x       y       z     vdW  Elec       q    Type
REMARK                         _______ _______ _______ _____ _____    ______ ____
ROOT
ATOM      1  C   UNL     1      45.105   4.826  12.095  0.00  0.00    +0.000 A 
ATOM      2  C   UNL     1      45.956   5.885  11.762  0.00  0.00    +0.000 A 
ATOM      3  C   UNL     1      47.108   6.159  12.510  0.00  0.00    +0.000 A 
ATOM      4  C   UNL     1      47.399   5.272  13.550  0.00  0.00    +0.000 A 
ATOM      5  C   UNL     1      46.554   4.199  13.787  0.00  0.00    +0.000 A 
ATOM      6  N   UNL     1      45.423   3.967  13.094  0.00  0.00    +0.000 NA
ENDROOT
BRANCH   3   7
ATOM      7  C   UNL     1      47.933   7.359  12.233  0.00  0.00    +0.000 A 
ATOM      8  C   UNL     1      47.384   8.642  12.161  0.00  0.00    +0.000 A 
ATOM      9  C   UNL     1      48.206   9.727  11.872  0.00  0.00    +0.000 A 
ATOM     10  N   UNL     1      49.531   9.632  11.657  0.00  0.00    +0.000 NA
ATOM     11  C   UNL     1      50.067   8.391  11.734  0.00  0.00    +0.000 A 
ATOM     12  C   UNL     1      49.321   7.249  11.999  0.00  0.00    +0.000 A 
BRANCH  11  13
ATOM     13  C   UNL     1      51.485   8.296  11.514  0.00  0.00    +0.000 C 
ATOM     14  N   UNL     1      52.636   8.273  11.349  0.00  0.00    +0.000 NA
ENDBRANCH  11  13
ENDBRANCH   3   7
BRANCH   1  15
ATOM     15  C   UNL     1      43.765   4.710  11.391  0.00  0.00    +0.000 C 
ATOM     16  C   UNL     1      42.492   5.174  12.094  0.00  0.00    +0.000 C 
ATOM     17  C   UNL     1      43.084   6.018  11.019  0.00  0.00    +0.000 C 
BRANCH  15  18
ATOM     18  O   UNL     1      43.527   3.473  10.686  0.00  0.00    +0.000 OA
BRANCH  18  23
ATOM     19  C   UNL     1      47.389   2.812   6.798  0.00  0.00    +0.000 C 
ATOM     20  C   UNL     1      46.205   2.904   7.705  0.00  0.00    +0.000 A 
ATOM     21  C   UNL     1      45.797   1.826   8.490  0.00  0.00    +0.000 A 
ATOM     22  N   UNL     1      44.833   1.921   9.441  0.00  0.00    +0.000 NA
ATOM     23  C   UNL     1      44.309   3.155   9.595  0.00  0.00    +0.000 A 
ATOM     24  C   UNL     1      44.659   4.215   8.771  0.00  0.00    +0.000 A 
ATOM     25  N   UNL     1      45.603   4.114   7.806  0.00  0.00    +0.000 NA
ENDBRANCH  18  23
ENDBRANCH  15  18
ENDBRANCH   1  15
TORSDOF 5
ENDMDL
MODEL 3
REMARK VINA RESULT:    -7.463      2.662      7.228
REMARK INTER + INTRA:         -10.113
REMARK INTER:                  -9.569
REMARK INTRA:                  -0.544
REMARK UNBOUND:                -0.468
REMARK  Name = 
REMARK  6 active torsions:
REMARK  status: ('A' for Active; 'I' for Inactive)
REMARK    1  A    between atoms: C_1  and  C_2
REMARK    2  A    between atoms: C_5  and  O_6
REMARK    3  A    between atoms: O_6  and  C_7
REMARK    4  A    between atoms: C_7  and  C_8
REMARK    5  A    between atoms: C_10  and  C_11
REMARK    6  A    between atoms: C_15  and  C_16
REMARK                            x       y       z     vdW  Elec       q    Type
REMARK                         _______ _______ _______ _____ _____    ______ ____
ROOT
ATOM      1  C   UNL     1      45.292   6.105  11.330  0.00  0.00    +0.000 A 
ATOM      2  C   UNL     1      45.863   5.440  10.240  0.00  0.00    +0.000 A 
ATOM      3  C   UNL     1      45.150   4.473   9.520  0.00  0.00    +0.000 A 
ATOM      4  C   UNL     1      43.821   4.269   9.899  0.00  0.00    +0.000 A 
ATOM      5  C   UNL     1      43.289   5.011  10.943  0.00  0.00    +0.000 A 
ATOM      6  N   UNL     1      43.993   5.906  11.662  0.00  0.00    +0.000 NA
ENDROOT
BRANCH   3   7
ATOM      7  C   UNL     1      45.804   3.678   8.452  0.00  0.00    +0.000 A 
ATOM      8  C   UNL     1      46.290   4.261   7.279  0.00  0.00    +0.000 A 
ATOM      9  C   UNL     1      46.870   3.458   6.302  0.00  0.00    +0.000 A 
ATOM     10  N   UNL     1      47.011   2.124   6.409  0.00  0.00    +0.000 NA
ATOM     11  C   UNL     1      46.549   1.558   7.548  0.00  0.00    +0.000 A 
ATOM     12  C   UNL     1      45.939   2.278   8.568  0.00  0.00    +0.000 A 
BRANCH  11  13
ATOM     13  C   UNL     1      46.711   0.133   7.662  0.00  0.00    +0.000 C 
ATOM     14  N   UNL     1      46.798  -1.025   7.720  0.00  0.00    +0.000 NA
ENDBRANCH  11  13
ENDBRANCH   3   7
BRANCH   1  15
ATOM     15  C   UNL     1      46.174   6.976  12.205  0.00  0.00    +0.000 C 
ATOM     16  C   UNL     1      46.438   8.428  11.816  0.00  0.00    +0.000 C 
ATOM     17  C   UNL     1      45.485   8.128  12.920  0.00  0.00    +0.000 C 
BRANCH  15  18
ATOM     18  O   UNL     1      47.383   6.359  12.696  0.00  0.00    +0.000 OA
BRANCH  18  23
ATOM     19  C   UNL     1      47.878   3.291  17.257  0.00  0.00    +0.000 C 
ATOM     20  C   UNL     1      47.613   4.250  16.142  0.00  0.00    +0.000 A 
ATOM     21  C   UNL     1      48.352   5.422  15.993  0.00  0.00    +0.000 A 
ATOM     22  N   UNL     1      48.252   6.232  14.908  0.00  0.00    +0.000 NA
ATOM     23  C   UNL     1      47.395   5.802  13.958  0.00  0.00    +0.000 A 
ATOM     24  C   UNL     1      46.605   4.674  14.130  0.00  0.00    +0.000 A 
ATOM     25  N   UNL     1      46.687   3.881  15.223  0.00  0.00    +0.000 NA
ENDBRANCH  18  23
ENDBRANCH  15  18
ENDBRANCH   1  15
TORSDOF 5
ENDMDL
MODEL 4
REMARK VINA RESULT:    -7.278      1.528      2.004
REMARK INTER + INTRA:          -9.874
REMARK INTER:                  -9.134
REMARK INTRA:                  -0.740
REMARK UNBOUND:                -0.468
REMARK  Name = 
REMARK  6 active torsions:
REMARK  status: ('A' for Active; 'I' for Inactive)
REMARK    1  A    between atoms: C_1  and  C_2
REMARK    2  A    between atoms: C_5  and  O_6
REMARK    3  A    between atoms: O_6  and  C_7
REMARK    4  A    between atoms: C_7  and  C_8
REMARK    5  A    between atoms: C_10  and  C_11
REMARK    6  A    between atoms: C_15  and  C_16
REMARK                            x       y       z     vdW  Elec       q    Type
REMARK                         _______ _______ _______ _____ _____    ______ ____
ROOT
ATOM      1  C   UNL     1      45.105   4.733  11.958  0.00  0.00    +0.000 A 
ATOM      2  C   UNL     1      46.016   5.793  11.934  0.00  0.00    +0.000 A 
ATOM      3  C   UNL     1      47.100   5.846  12.821  0.00  0.00    +0.000 A 
ATOM      4  C   UNL     1      47.262   4.748  13.670  0.00  0.00    +0.000 A 
ATOM      5  C   UNL     1      46.365   3.693  13.598  0.00  0.00    +0.000 A 
ATOM      6  N   UNL     1      45.299   3.669  12.776  0.00  0.00    +0.000 NA
ENDROOT
BRANCH   3   7
ATOM      7  C   UNL     1      47.984   7.034  12.879  0.00  0.00    +0.000 A 
ATOM      8  C   UNL     1      48.472   7.660  11.728  0.00  0.00    +0.000 A 
ATOM      9  C   UNL     1      49.319   8.756  11.849  0.00  0.00    +0.000 A 
ATOM     10  N   UNL     1      49.709   9.282  13.025  0.00  0.00    +0.000 NA
ATOM     11  C   UNL     1      49.231   8.684  14.140  0.00  0.00    +0.000 A 
ATOM     12  C   UNL     1      48.396   7.573  14.117  0.00  0.00    +0.000 A 
BRANCH  11  13
ATOM     13  C   UNL     1      49.643   9.255  15.395  0.00  0.00    +0.000 C 
ATOM     14  N   UNL     1      50.013   9.748  16.381  0.00  0.00    +0.000 NA
ENDBRANCH  11  13
ENDBRANCH   3   7
BRANCH   1  15
ATOM     15  C   UNL     1      43.836   4.833  11.132  0.00  0.00    +0.000 C 
ATOM     16  C   UNL     1      42.503   5.126  11.815  0.00  0.00    +0.000 C 
ATOM     17  C   UNL     1      43.189   6.208  11.057  0.00  0.00    +0.000 C 
BRANCH  15  18
ATOM     18  O   UNL     1      43.667   3.830  10.109  0.00  0.00    +0.000 OA
BRANCH  18  23
ATOM     19  C   UNL     1      47.240   1.898   6.372  0.00  0.00    +0.000 C 
ATOM     20  C   UNL     1      46.449   2.478   7.500  0.00  0.00    +0.000 A 
ATOM     21  C   UNL     1      46.165   3.841   7.570  0.00  0.00    +0.000 A 
ATOM     22  N   UNL     1      45.318   4.378   8.485  0.00  0.00    +0.000 NA
ATOM     23  C   UNL     1      44.741   3.484   9.316  0.00  0.00    +0.000 A 
ATOM     24  C   UNL     1      45.072   2.137   9.297  0.00  0.00    +0.000 A 
ATOM     25  N   UNL     1      45.936   1.606   8.401  0.00  0.00    +0.000 NA
ENDBRANCH  18  23
ENDBRANCH  15  18
ENDBRANCH   1  15
TORSDOF 5
ENDMDL
MODEL 5
REMARK VINA RESULT:    -7.000      1.702      2.554
REMARK INTER + INTRA:          -9.513
REMARK INTER:                  -9.386
REMARK INTRA:                  -0.128
REMARK UNBOUND:                -0.468
REMARK  Name = 
REMARK  6 active torsions:
REMARK  status: ('A' for Active; 'I' for Inactive)
REMARK    1  A    between atoms: C_1  and  C_2
REMARK    2  A    between atoms: C_5  and  O_6
REMARK    3  A    between atoms: O_6  and  C_7
REMARK    4  A    between atoms: C_7  and  C_8
REMARK    5  A    between atoms: C_10  and  C_11
REMARK    6  A    between atoms: C_15  and  C_16
REMARK                            x       y       z     vdW  Elec       q    Type
REMARK                         _______ _______ _______ _____ _____    ______ ____
ROOT
ATOM      1  C   UNL     1      44.892   5.833  11.499  0.00  0.00    +0.000 A 
ATOM      2  C   UNL     1      44.979   7.221  11.351  0.00  0.00    +0.000 A 
ATOM      3  C   UNL     1      46.037   7.950  11.911  0.00  0.00    +0.000 A 
ATOM      4  C   UNL     1      47.033   7.208  12.551  0.00  0.00    +0.000 A 
ATOM      5  C   UNL     1      46.926   5.827  12.604  0.00  0.00    +0.000 A 
ATOM      6  N   UNL     1      45.883   5.135  12.104  0.00  0.00    +0.000 NA
ENDROOT
BRANCH   3   7
ATOM      7  C   UNL     1      46.054   9.432  11.864  0.00  0.00    +0.000 A 
ATOM      8  C   UNL     1      47.211  10.174  12.113  0.00  0.00    +0.000 A 
ATOM      9  C   UNL     1      47.157  11.564  12.080  0.00  0.00    +0.000 A 
ATOM     10  N   UNL     1      46.042  12.268  11.809  0.00  0.00    +0.000 NA
ATOM     11  C   UNL     1      44.922  11.551  11.559  0.00  0.00    +0.000 A 
ATOM     12  C   UNL     1      44.878  10.163  11.589  0.00  0.00    +0.000 A 
BRANCH  11  13
ATOM     13  C   UNL     1      43.736  12.309  11.260  0.00  0.00    +0.000 C 
ATOM     14  N   UNL     1      42.752  12.873  11.005  0.00  0.00    +0.000 NA
ENDBRANCH  11  13
ENDBRANCH   3   7
BRANCH   1  15
ATOM     15  C   UNL     1      43.621   5.125  11.066  0.00  0.00    +0.000 C 
ATOM     16  C   UNL     1      42.986   4.075  11.973  0.00  0.00    +0.000 C 
ATOM     17  C   UNL     1      42.371   5.429  11.878  0.00  0.00    +0.000 C 
BRANCH  15  18
ATOM     18  O   UNL     1      43.576   4.694   9.689  0.00  0.00    +0.000 OA
BRANCH  18  23
ATOM     19  C   UNL     1      47.172   1.505   6.975  0.00  0.00    +0.000 C 
ATOM     20  C   UNL     1      46.367   2.419   7.841  0.00  0.00    +0.000 A 
ATOM     21  C   UNL     1      46.335   3.796   7.623  0.00  0.00    +0.000 A 
ATOM     22  N   UNL     1      45.493   4.634   8.280  0.00  0.00    +0.000 NA
ATOM     23  C   UNL     1      44.659   4.029   9.152  0.00  0.00    +0.000 A 
ATOM     24  C   UNL     1      44.733   2.671   9.425  0.00  0.00    +0.000 A 
ATOM     25  N   UNL     1      45.589   1.840   8.787  0.00  0.00    +0.000 NA
ENDBRANCH  18  23
ENDBRANCH  15  18
ENDBRANCH   1  15
TORSDOF 5
ENDMDL
MODEL 6
REMARK VINA RESULT:    -6.888      2.683      7.145
REMARK INTER + INTRA:          -9.369
REMARK INTER:                  -8.889
REMARK INTRA:                  -0.480
REMARK UNBOUND:                -0.468
REMARK  Name = 
REMARK  6 active torsions:
REMARK  status: ('A' for Active; 'I' for Inactive)
REMARK    1  A    between atoms: C_1  and  C_2
REMARK    2  A    between atoms: C_5  and  O_6
REMARK    3  A    between atoms: O_6  and  C_7
REMARK    4  A    between atoms: C_7  and  C_8
REMARK    5  A    between atoms: C_10  and  C_11
REMARK    6  A    between atoms: C_15  and  C_16
REMARK                            x       y       z     vdW  Elec       q    Type
REMARK                         _______ _______ _______ _____ _____    ______ ____
ROOT
ATOM      1  C   UNL     1      47.066   7.772  12.748  0.00  0.00    +0.000 A 
ATOM      2  C   UNL     1      46.766   6.671  11.941  0.00  0.00    +0.000 A 
ATOM      3  C   UNL     1      45.542   6.574  11.265  0.00  0.00    +0.000 A 
ATOM      4  C   UNL     1      44.681   7.668  11.377  0.00  0.00    +0.000 A 
ATOM      5  C   UNL     1      45.067   8.763  12.136  0.00  0.00    +0.000 A 
ATOM      6  N   UNL     1      46.224   8.831  12.821  0.00  0.00    +0.000 NA
ENDROOT
BRANCH   3   7
ATOM      7  C   UNL     1      45.176   5.346  10.519  0.00  0.00    +0.000 A 
ATOM      8  C   UNL     1      44.265   4.412  11.019  0.00  0.00    +0.000 A 
ATOM      9  C   UNL     1      43.982   3.265  10.283  0.00  0.00    +0.000 A 
ATOM     10  N   UNL     1      44.529   2.983   9.087  0.00  0.00    +0.000 NA
ATOM     11  C   UNL     1      45.406   3.890   8.597  0.00  0.00    +0.000 A 
ATOM     12  C   UNL     1      45.763   5.053   9.269  0.00  0.00    +0.000 A 
BRANCH  11  13
ATOM     13  C   UNL     1      45.981   3.589   7.313  0.00  0.00    +0.000 C 
ATOM     14  N   UNL     1      46.496   3.349   6.299  0.00  0.00    +0.000 NA
ENDBRANCH  11  13
ENDBRANCH   3   7
BRANCH   1  15
ATOM     15  C   UNL     1      48.304   7.725  13.627  0.00  0.00    +0.000 C 
ATOM     16  C   UNL     1      49.447   8.707  13.388  0.00  0.00    +0.000 C 
ATOM     17  C   UNL     1      48.527   8.921  14.540  0.00  0.00    +0.000 C 
BRANCH  15  18
ATOM     18  O   UNL     1      48.823   6.409  13.916  0.00  0.00    +0.000 OA
BRANCH  18  23
ATOM     19  C   UNL     1      47.288   2.793  17.793  0.00  0.00    +0.000 C 
ATOM     20  C   UNL     1      47.579   3.916  16.851  0.00  0.00    +0.000 A 
ATOM     21  C   UNL     1      48.588   4.844  17.106  0.00  0.00    +0.000 A 
ATOM     22  N   UNL     1      48.988   5.774  16.204  0.00  0.00    +0.000 NA
ATOM     23  C   UNL     1      48.351   5.722  15.015  0.00  0.00    +0.000 A 
ATOM     24  C   UNL     1      47.300   4.848  14.778  0.00  0.00    +0.000 A 
ATOM     25  N   UNL     1      46.884   3.936  15.688  0.00  0.00    +0.000 NA
ENDBRANCH  18  23
ENDBRANCH  15  18
ENDBRANCH   1  15
TORSDOF 5
ENDMDL
MODEL 7
REMARK VINA RESULT:    -6.295      3.009      7.858
REMARK INTER + INTRA:          -8.603
REMARK INTER:                  -7.920
REMARK INTRA:                  -0.683
REMARK UNBOUND:                -0.468
REMARK  Name = 
REMARK  6 active torsions:
REMARK  status: ('A' for Active; 'I' for Inactive)
REMARK    1  A    between atoms: C_1  and  C_2
REMARK    2  A    between atoms: C_5  and  O_6
REMARK    3  A    between atoms: O_6  and  C_7
REMARK    4  A    between atoms: C_7  and  C_8
REMARK    5  A    between atoms: C_10  and  C_11
REMARK    6  A    between atoms: C_15  and  C_16
REMARK                            x       y       z     vdW  Elec       q    Type
REMARK                         _______ _______ _______ _____ _____    ______ ____
ROOT
ATOM      1  C   UNL     1      47.686   7.967  12.166  0.00  0.00    +0.000 A 
ATOM      2  C   UNL     1      46.940   6.838  11.815  0.00  0.00    +0.000 A 
ATOM      3  C   UNL     1      45.547   6.899  11.673  0.00  0.00    +0.000 A 
ATOM      4  C   UNL     1      44.961   8.159  11.822  0.00  0.00    +0.000 A 
ATOM      5  C   UNL     1      45.764   9.254  12.101  0.00  0.00    +0.000 A 
ATOM      6  N   UNL     1      47.096   9.181  12.282  0.00  0.00    +0.000 NA
ENDROOT
BRANCH   3   7
ATOM      7  C   UNL     1      44.748   5.673  11.431  0.00  0.00    +0.000 A 
ATOM      8  C   UNL     1      43.521   5.445  12.058  0.00  0.00    +0.000 A 
ATOM      9  C   UNL     1      42.831   4.262  11.810  0.00  0.00    +0.000 A 
ATOM     10  N   UNL     1      43.266   3.296  10.980  0.00  0.00    +0.000 NA
ATOM     11  C   UNL     1      44.450   3.519  10.365  0.00  0.00    +0.000 A 
ATOM     12  C   UNL     1      45.217   4.660  10.566  0.00  0.00    +0.000 A 
BRANCH  11  13
ATOM     13  C   UNL     1      44.906   2.488   9.470  0.00  0.00    +0.000 C 
ATOM     14  N   UNL     1      45.227   1.627   8.758  0.00  0.00    +0.000 NA
ENDBRANCH  11  13
ENDBRANCH   3   7
BRANCH   1  15
ATOM     15  C   UNL     1      49.153   7.798  12.521  0.00  0.00    +0.000 C 
ATOM     16  C   UNL     1      50.203   7.745  11.415  0.00  0.00    +0.000 C 
ATOM     17  C   UNL     1      50.057   8.986  12.226  0.00  0.00    +0.000 C 
BRANCH  15  18
ATOM     18  O   UNL     1      49.447   6.822  13.542  0.00  0.00    +0.000 OA
BRANCH  18  23
ATOM     19  C   UNL     1      48.823   7.158  19.016  0.00  0.00    +0.000 C 
ATOM     20  C   UNL     1      48.803   7.177  17.521  0.00  0.00    +0.000 A 
ATOM     21  C   UNL     1      49.297   8.261  16.796  0.00  0.00    +0.000 A 
ATOM     22  N   UNL     1      49.445   8.248  15.447  0.00  0.00    +0.000 NA
ATOM     23  C   UNL     1      49.103   7.086  14.851  0.00  0.00    +0.000 A 
ATOM     24  C   UNL     1      48.547   6.029  15.557  0.00  0.00    +0.000 A 
ATOM     25  N   UNL     1      48.376   6.052  16.899  0.00  0.00    +0.000 NA
ENDBRANCH  18  23
ENDBRANCH  15  18
ENDBRANCH   1  15
TORSDOF 5
ENDMDL
MODEL 8
REMARK VINA RESULT:    -6.202      4.749      8.691
REMARK INTER + INTRA:          -8.483
REMARK INTER:                  -8.098
REMARK INTRA:                  -0.385
REMARK UNBOUND:                -0.468
REMARK  Name = 
REMARK  6 active torsions:
REMARK  status: ('A' for Active; 'I' for Inactive)
REMARK    1  A    between atoms: C_1  and  C_2
REMARK    2  A    between atoms: C_5  and  O_6
REMARK    3  A    between atoms: O_6  and  C_7
REMARK    4  A    between atoms: C_7  and  C_8
REMARK    5  A    between atoms: C_10  and  C_11
REMARK    6  A    between atoms: C_15  and  C_16
REMARK                            x       y       z     vdW  Elec       q    Type
REMARK                         _______ _______ _______ _____ _____    ______ ____
ROOT
ATOM      1  C   UNL     1      47.728   4.958  15.823  0.00  0.00    +0.000 A 
ATOM      2  C   UNL     1      46.766   4.561  14.890  0.00  0.00    +0.000 A 
ATOM      3  C   UNL     1      46.610   5.235  13.672  0.00  0.00    +0.000 A 
ATOM      4  C   UNL     1      47.515   6.266  13.410  0.00  0.00    +0.000 A 
ATOM      5  C   UNL     1      48.493   6.567  14.346  0.00  0.00    +0.000 A 
ATOM      6  N   UNL     1      48.610   5.946  15.535  0.00  0.00    +0.000 NA
ENDROOT
BRANCH   3   7
ATOM      7  C   UNL     1      45.503   4.894  12.746  0.00  0.00    +0.000 A 
ATOM      8  C   UNL     1      44.198   4.669  13.192  0.00  0.00    +0.000 A 
ATOM      9  C   UNL     1      43.208   4.326  12.276  0.00  0.00    +0.000 A 
ATOM     10  N   UNL     1      43.416   4.200  10.952  0.00  0.00    +0.000 NA
ATOM     11  C   UNL     1      44.678   4.425  10.517  0.00  0.00    +0.000 A 
ATOM     12  C   UNL     1      45.732   4.753  11.360  0.00  0.00    +0.000 A 
BRANCH  11  13
ATOM     13  C   UNL     1      44.893   4.297   9.100  0.00  0.00    +0.000 C 
ATOM     14  N   UNL     1      45.056   4.140   7.960  0.00  0.00    +0.000 NA
ENDBRANCH  11  13
ENDBRANCH   3   7
BRANCH   1  15
ATOM     15  C   UNL     1      47.709   4.339  17.210  0.00  0.00    +0.000 C 
ATOM     16  C   UNL     1      47.678   2.821  17.367  0.00  0.00    +0.000 C 
ATOM     17  C   UNL     1      48.949   3.557  17.615  0.00  0.00    +0.000 C 
BRANCH  15  18
ATOM     18  O   UNL     1      46.826   4.962  18.167  0.00  0.00    +0.000 OA
BRANCH  18  23
ATOM     19  C   UNL     1      47.917   8.818  21.962  0.00  0.00    +0.000 C 
ATOM     20  C   UNL     1      47.839   7.755  20.915  0.00  0.00    +0.000 A 
ATOM     21  C   UNL     1      47.911   6.401  21.239  0.00  0.00    +0.000 A 
ATOM     22  N   UNL     1      47.682   5.408  20.342  0.00  0.00    +0.000 NA
ATOM     23  C   UNL     1      47.348   5.829  19.104  0.00  0.00    +0.000 A 
ATOM     24  C   UNL     1      47.341   7.172  18.757  0.00  0.00    +0.000 A 
ATOM     25  N   UNL     1      47.594   8.161  19.645  0.00  0.00    +0.000 NA
ENDBRANCH  18  23
ENDBRANCH  15  18
ENDBRANCH   1  15
TORSDOF 5
ENDMDL
MODEL 9
REMARK VINA RESULT:    -6.139      3.756      8.036
REMARK INTER + INTRA:          -8.402
REMARK INTER:                  -7.937
REMARK INTRA:                  -0.464
REMARK UNBOUND:                -0.468
REMARK  Name = 
REMARK  6 active torsions:
REMARK  status: ('A' for Active; 'I' for Inactive)
REMARK    1  A    between atoms: C_1  and  C_2
REMARK    2  A    between atoms: C_5  and  O_6
REMARK    3  A    between atoms: O_6  and  C_7
REMARK    4  A    between atoms: C_7  and  C_8
REMARK    5  A    between atoms: C_10  and  C_11
REMARK    6  A    between atoms: C_15  and  C_16
REMARK                            x       y       z     vdW  Elec       q    Type
REMARK                         _______ _______ _______ _____ _____    ______ ____
ROOT
ATOM      1  C   UNL     1      47.720   7.283  14.088  0.00  0.00    +0.000 A 
ATOM      2  C   UNL     1      47.019   6.287  13.403  0.00  0.00    +0.000 A 
ATOM      3  C   UNL     1      45.877   6.586  12.648  0.00  0.00    +0.000 A 
ATOM      4  C   UNL     1      45.530   7.936  12.553  0.00  0.00    +0.000 A 
ATOM      5  C   UNL     1      46.307   8.886  13.198  0.00  0.00    +0.000 A 
ATOM      6  N   UNL     1      47.377   8.588  13.961  0.00  0.00    +0.000 NA
ENDROOT
BRANCH   3   7
ATOM      7  C   UNL     1      45.063   5.509  12.034  0.00  0.00    +0.000 A 
ATOM      8  C   UNL     1      44.079   4.818  12.746  0.00  0.00    +0.000 A 
ATOM      9  C   UNL     1      43.366   3.800  12.121  0.00  0.00    +0.000 A 
ATOM     10  N   UNL     1      43.552   3.425  10.842  0.00  0.00    +0.000 NA
ATOM     11  C   UNL     1      44.498   4.098  10.148  0.00  0.00    +0.000 A 
ATOM     12  C   UNL     1      45.272   5.115  10.694  0.00  0.00    +0.000 A 
BRANCH  11  13
ATOM     13  C   UNL     1      44.687   3.700   8.778  0.00  0.00    +0.000 C 
ATOM     14  N   UNL     1      44.813   3.425   7.656  0.00  0.00    +0.000 NA
ENDBRANCH  11  13
ENDBRANCH   3   7
BRANCH   1  15
ATOM     15  C   UNL     1      48.811   6.878  15.063  0.00  0.00    +0.000 C 
ATOM     16  C   UNL     1      50.232   7.405  14.880  0.00  0.00    +0.000 C 
ATOM     17  C   UNL     1      49.369   7.983  15.947  0.00  0.00    +0.000 C 
BRANCH  15  18
ATOM     18  O   UNL     1      48.836   5.485  15.439  0.00  0.00    +0.000 OA
BRANCH  18  23
ATOM     19  C   UNL     1      48.650   4.896  20.924  0.00  0.00    +0.000 C 
ATOM     20  C   UNL     1      48.605   4.859  19.431  0.00  0.00    +0.000 A 
ATOM     21  C   UNL     1      47.472   5.254  18.721  0.00  0.00    +0.000 A 
ATOM     22  N   UNL     1      47.449   5.389  17.371  0.00  0.00    +0.000 NA
ATOM     23  C   UNL     1      48.624   5.135  16.757  0.00  0.00    +0.000 A 
ATOM     24  C   UNL     1      49.735   4.674  17.448  0.00  0.00    +0.000 A 
ATOM     25  N   UNL     1      49.750   4.517  18.792  0.00  0.00    +0.000 NA
ENDBRANCH  18  23
ENDBRANCH  15  18
ENDBRANCH   1  15
TORSDOF 5
ENDMDL
