MODEL 1
REMARK VINA RESULT:    -6.862      0.000      0.000
REMARK INTER + INTRA:         -10.035
REMARK INTER:                  -9.068
REMARK INTRA:                  -0.967
REMARK UNBOUND:                -0.967
REMARK  Name = 
REMARK  9 active torsions:
REMARK  status: ('A' for Active; 'I' for Inactive)
REMARK    1  A    between atoms: C_1  and  O_2
REMARK    2  A    between atoms: O_2  and  C_3
REMARK    3  A    between atoms: C_7  and  C_8
REMARK    4  A    between atoms: C_8  and  C_9
REMARK    5  A    between atoms: C_8  and  N_10
REMARK    6  A    between atoms: N_10  and  C_11
REMARK    7  A    between atoms: C_14  and  C_15
REMARK    8  A    between atoms: C_15  and  O_17
REMARK    9  A    between atoms: C_19  and  C_20
REMARK                            x       y       z     vdW  Elec       q    Type
REMARK                         _______ _______ _______ _____ _____    ______ ____
ROOT
ATOM      1  N   UNL     1      44.244   5.076  10.014  0.00  0.00    +0.000 N 
ATOM      2  H   UNL     1      43.396   5.340   9.530  0.00  0.00    +0.000 HD
ENDROOT
BRANCH   1   3
ATOM      3  C   UNL     1      45.043   4.275   9.198  0.00  0.00    +0.000 A 
ATOM      4  N   UNL     1      45.889   4.850   8.318  0.00  0.00    +0.000 NA
ATOM      5  C   UNL     1      46.668   4.047   7.549  0.00  0.00    +0.000 A 
ATOM      6  C   UNL     1      46.661   2.666   7.618  0.00  0.00    +0.000 A 
ATOM      7  C   UNL     1      45.794   2.072   8.529  0.00  0.00    +0.000 A 
ATOM      8  C   UNL     1      44.992   2.878   9.352  0.00  0.00    +0.000 A 
ATOM      9  C   UNL     1      44.070   2.218  10.341  0.00  0.00    +0.000 C 
BRANCH   6  10
ATOM     10  C   UNL     1      47.519   1.902   6.690  0.00  0.00    +0.000 C 
ATOM     11  O   UNL     1      47.244   0.764   6.340  0.00  0.00    +0.000 OA
BRANCH  10  12
ATOM     12  O   UNL     1      48.608   2.562   6.255  0.00  0.00    +0.000 OA
ATOM     13  H   UNL     1      49.022   2.212   5.446  0.00  0.00    +0.000 HD
ENDBRANCH  10  12
ENDBRANCH   6  10
ENDBRANCH   1   3
BRANCH   1  14
ATOM     14  C   UNL     1      44.844   6.222  10.703  0.00  0.00    +0.000 C 
ATOM     15  C   UNL     1      43.754   7.169  11.211  0.00  0.00    +0.000 C 
BRANCH  14  20
ATOM     16  C   UNL     1      47.706   5.805  13.231  0.00  0.00    +0.000 A 
ATOM     17  C   UNL     1      47.143   4.912  14.138  0.00  0.00    +0.000 A 
ATOM     18  C   UNL     1      45.874   4.381  13.894  0.00  0.00    +0.000 A 
ATOM     19  C   UNL     1      45.155   4.766  12.761  0.00  0.00    +0.000 A 
ATOM     20  C   UNL     1      45.697   5.682  11.847  0.00  0.00    +0.000 A 
ATOM     21  C   UNL     1      47.006   6.145  12.071  0.00  0.00    +0.000 A 
BRANCH  16  23
ATOM     22  C   UNL     1      49.284   7.359  12.377  0.00  0.00    +0.000 C 
ATOM     23  O   UNL     1      48.935   6.388  13.359  0.00  0.00    +0.000 OA
ENDBRANCH  16  23
ENDBRANCH  14  20
ENDBRANCH   1  14
TORSDOF 6
ENDMDL
MODEL 2
REMARK VINA RESULT:    -6.526      1.060      1.843
REMARK INTER + INTRA:          -9.591
REMARK INTER:                  -8.848
REMARK INTRA:                  -0.744
REMARK UNBOUND:                -0.967
REMARK  Name = 
REMARK  9 active torsions:
REMARK  status: ('A' for Active; 'I' for Inactive)
REMARK    1  A    between atoms: C_1  and  O_2
REMARK    2  A    between atoms: O_2  and  C_3
REMARK    3  A    between atoms: C_7  and  C_8
REMARK    4  A    between atoms: C_8  and  C_9
REMARK    5  A    between atoms: C_8  and  N_10
REMARK    6  A    between atoms: N_10  and  C_11
REMARK    7  A    between atoms: C_14  and  C_15
REMARK    8  A    between atoms: C_15  and  O_17
REMARK    9  A    between atoms: C_19  and  C_20
REMARK                            x       y       z     vdW  Elec       q    Type
REMARK                         _______ _______ _______ _____ _____    ______ ____
ROOT
ATOM      1  N   UNL     1      44.354   4.922  10.247  0.00  0.00    +0.000 N 
ATOM      2  H   UNL     1      43.370   4.867  10.020  0.00  0.00    +0.000 HD
ENDROOT
BRANCH   1   3
ATOM      3  C   UNL     1      45.115   4.272   9.276  0.00  0.00    +0.000 A 
ATOM      4  N   UNL     1      45.925   4.989   8.469  0.00  0.00    +0.000 NA
ATOM      5  C   UNL     1      46.669   4.329   7.545  0.00  0.00    +0.000 A 
ATOM      6  C   UNL     1      46.661   2.956   7.384  0.00  0.00    +0.000 A 
ATOM      7  C   UNL     1      45.833   2.214   8.219  0.00  0.00    +0.000 A 
ATOM      8  C   UNL     1      45.068   2.869   9.198  0.00  0.00    +0.000 A 
ATOM      9  C   UNL     1      44.187   2.049  10.102  0.00  0.00    +0.000 C 
BRANCH   6  10
ATOM     10  C   UNL     1      47.478   2.360   6.307  0.00  0.00    +0.000 C 
ATOM     11  O   UNL     1      46.989   1.658   5.435  0.00  0.00    +0.000 OA
BRANCH  10  12
ATOM     12  O   UNL     1      48.788   2.666   6.357  0.00  0.00    +0.000 OA
ATOM     13  H   UNL     1      49.031   3.401   6.948  0.00  0.00    +0.000 HD
ENDBRANCH  10  12
ENDBRANCH   6  10
ENDBRANCH   1   3
BRANCH   1  14
ATOM     14  C   UNL     1      44.729   6.275  10.666  0.00  0.00    +0.000 C 
ATOM     15  C   UNL     1      43.494   7.049  11.135  0.00  0.00    +0.000 C 
BRANCH  14  20
ATOM     16  C   UNL     1      46.601   5.018  13.777  0.00  0.00    +0.000 A 
ATOM     17  C   UNL     1      47.816   5.686  13.654  0.00  0.00    +0.000 A 
ATOM     18  C   UNL     1      48.004   6.601  12.616  0.00  0.00    +0.000 A 
ATOM     19  C   UNL     1      46.990   6.827  11.682  0.00  0.00    +0.000 A 
ATOM     20  C   UNL     1      45.767   6.147  11.777  0.00  0.00    +0.000 A 
ATOM     21  C   UNL     1      45.570   5.288  12.873  0.00  0.00    +0.000 A 
BRANCH  16  23
ATOM     22  C   UNL     1      47.262   3.930  15.780  0.00  0.00    +0.000 C 
ATOM     23  O   UNL     1      46.298   4.105  14.746  0.00  0.00    +0.000 OA
ENDBRANCH  16  23
ENDBRANCH  14  20
ENDBRANCH   1  14
TORSDOF 6
ENDMDL
MODEL 3
REMARK VINA RESULT:    -6.414      1.488      2.648
REMARK INTER + INTRA:          -9.443
REMARK INTER:                  -9.056
REMARK INTRA:                  -0.388
REMARK UNBOUND:                -0.967
REMARK  Name = 
REMARK  9 active torsions:
REMARK  status: ('A' for Active; 'I' for Inactive)
REMARK    1  A    between atoms: C_1  and  O_2
REMARK    2  A    between atoms: O_2  and  C_3
REMARK    3  A    between atoms: C_7  and  C_8
REMARK    4  A    between atoms: C_8  and  C_9
REMARK    5  A    between atoms: C_8  and  N_10
REMARK    6  A    between atoms: N_10  and  C_11
REMARK    7  A    between atoms: C_14  and  C_15
REMARK    8  A    between atoms: C_15  and  O_17
REMARK    9  A    between atoms: C_19  and  C_20
REMARK                            x       y       z     vdW  Elec       q    Type
REMARK                         _______ _______ _______ _____ _____    ______ ____
ROOT
ATOM      1  N   UNL     1      43.536   4.396  10.251  0.00  0.00    +0.000 N 
ATOM      2  H   UNL     1      43.693   5.350   9.955  0.00  0.00    +0.000 HD
ENDROOT
BRANCH   1   3
ATOM      3  C   UNL     1      44.397   3.529   9.579  0.00  0.00    +0.000 A 
ATOM      4  N   UNL     1      44.097   2.216   9.498  0.00  0.00    +0.000 NA
ATOM      5  C   UNL     1      44.944   1.398   8.822  0.00  0.00    +0.000 A 
ATOM      6  C   UNL     1      46.098   1.828   8.194  0.00  0.00    +0.000 A 
ATOM      7  C   UNL     1      46.406   3.182   8.270  0.00  0.00    +0.000 A 
ATOM      8  C   UNL     1      45.537   4.055   8.945  0.00  0.00    +0.000 A 
ATOM      9  C   UNL     1      45.880   5.519   9.005  0.00  0.00    +0.000 C 
BRANCH   6  10
ATOM     10  C   UNL     1      46.964   0.830   7.535  0.00  0.00    +0.000 C 
ATOM     11  O   UNL     1      47.899   1.154   6.818  0.00  0.00    +0.000 OA
BRANCH  10  12
ATOM     12  O   UNL     1      46.651  -0.452   7.798  0.00  0.00    +0.000 OA
ATOM     13  H   UNL     1      47.137  -0.867   8.533  0.00  0.00    +0.000 HD
ENDBRANCH  10  12
ENDBRANCH   6  10
ENDBRANCH   1   3
BRANCH   1  14
ATOM     14  C   UNL     1      43.418   4.302  11.709  0.00  0.00    +0.000 C 
ATOM     15  C   UNL     1      43.537   2.844  12.161  0.00  0.00    +0.000 C 
BRANCH  14  20
ATOM     16  C   UNL     1      46.647   5.377  13.492  0.00  0.00    +0.000 A 
ATOM     17  C   UNL     1      46.691   6.734  13.184  0.00  0.00    +0.000 A 
ATOM     18  C   UNL     1      45.642   7.320  12.472  0.00  0.00    +0.000 A 
ATOM     19  C   UNL     1      44.563   6.545  12.041  0.00  0.00    +0.000 A 
ATOM     20  C   UNL     1      44.512   5.171  12.322  0.00  0.00    +0.000 A 
ATOM     21  C   UNL     1      45.541   4.617  13.105  0.00  0.00    +0.000 A 
BRANCH  16  23
ATOM     22  C   UNL     1      47.280   4.297  15.508  0.00  0.00    +0.000 C 
ATOM     23  O   UNL     1      47.608   4.693  14.180  0.00  0.00    +0.000 OA
ENDBRANCH  16  23
ENDBRANCH  14  20
ENDBRANCH   1  14
TORSDOF 6
ENDMDL
MODEL 4
REMARK VINA RESULT:    -6.042      2.064      6.889
REMARK INTER + INTRA:          -8.951
REMARK INTER:                  -8.318
REMARK INTRA:                  -0.632
REMARK UNBOUND:                -0.967
REMARK  Name = 
REMARK  9 active torsions:
REMARK  status: ('A' for Active; 'I' for Inactive)
REMARK    1  A    between atoms: C_1  and  O_2
REMARK    2  A    between atoms: O_2  and  C_3
REMARK    3  A    between atoms: C_7  and  C_8
REMARK    4  A    between atoms: C_8  and  C_9
REMARK    5  A    between atoms: C_8  and  N_10
REMARK    6  A    between atoms: N_10  and  C_11
REMARK    7  A    between atoms: C_14  and  C_15
REMARK    8  A    between atoms: C_15  and  O_17
REMARK    9  A    between atoms: C_19  and  C_20
REMARK                            x       y       z     vdW  Elec       q    Type
REMARK                         _______ _______ _______ _____ _____    ______ ____
ROOT
ATOM      1  N   UNL     1      45.541   5.566  11.532  0.00  0.00    +0.000 N 
ATOM      2  H   UNL     1      45.066   6.457  11.481  0.00  0.00    +0.000 HD
ENDROOT
BRANCH   1   3
ATOM      3  C   UNL     1      46.200   5.433  12.754  0.00  0.00    +0.000 A 
ATOM      4  N   UNL     1      45.907   4.393  13.562  0.00  0.00    +0.000 NA
ATOM      5  C   UNL     1      46.576   4.277  14.738  0.00  0.00    +0.000 A 
ATOM      6  C   UNL     1      47.557   5.157  15.159  0.00  0.00    +0.000 A 
ATOM      7  C   UNL     1      47.865   6.225  14.324  0.00  0.00    +0.000 A 
ATOM      8  C   UNL     1      47.204   6.357  13.093  0.00  0.00    +0.000 A 
ATOM      9  C   UNL     1      47.559   7.513  12.196  0.00  0.00    +0.000 C 
BRANCH   6  10
ATOM     10  C   UNL     1      48.176   4.952  16.484  0.00  0.00    +0.000 C 
ATOM     11  O   UNL     1      49.232   4.355  16.622  0.00  0.00    +0.000 OA
BRANCH  10  12
ATOM     12  O   UNL     1      47.494   5.485  17.515  0.00  0.00    +0.000 OA
ATOM     13  H   UNL     1      47.678   6.423  17.707  0.00  0.00    +0.000 HD
ENDBRANCH  10  12
ENDBRANCH   6  10
ENDBRANCH   1   3
BRANCH   1  14
ATOM     14  C   UNL     1      44.684   4.477  11.057  0.00  0.00    +0.000 C 
ATOM     15  C   UNL     1      43.268   4.993  10.785  0.00  0.00    +0.000 C 
BRANCH  14  20
ATOM     16  C   UNL     1      45.838   1.980   8.375  0.00  0.00    +0.000 A 
ATOM     17  C   UNL     1      46.213   2.838   7.344  0.00  0.00    +0.000 A 
ATOM     18  C   UNL     1      46.170   4.220   7.541  0.00  0.00    +0.000 A 
ATOM     19  C   UNL     1      45.724   4.746   8.756  0.00  0.00    +0.000 A 
ATOM     20  C   UNL     1      45.322   3.898   9.798  0.00  0.00    +0.000 A 
ATOM     21  C   UNL     1      45.445   2.509   9.606  0.00  0.00    +0.000 A 
BRANCH  16  23
ATOM     22  C   UNL     1      46.874   0.019   7.529  0.00  0.00    +0.000 C 
ATOM     23  O   UNL     1      45.838   0.616   8.303  0.00  0.00    +0.000 OA
ENDBRANCH  16  23
ENDBRANCH  14  20
ENDBRANCH   1  14
TORSDOF 6
ENDMDL
MODEL 5
REMARK VINA RESULT:    -6.001      2.784      6.996
REMARK INTER + INTRA:          -8.897
REMARK INTER:                  -8.244
REMARK INTRA:                  -0.653
REMARK UNBOUND:                -0.967
REMARK  Name = 
REMARK  9 active torsions:
REMARK  status: ('A' for Active; 'I' for Inactive)
REMARK    1  A    between atoms: C_1  and  O_2
REMARK    2  A    between atoms: O_2  and  C_3
REMARK    3  A    between atoms: C_7  and  C_8
REMARK    4  A    between atoms: C_8  and  C_9
REMARK    5  A    between atoms: C_8  and  N_10
REMARK    6  A    between atoms: N_10  and  C_11
REMARK    7  A    between atoms: C_14  and  C_15
REMARK    8  A    between atoms: C_15  and  O_17
REMARK    9  A    between atoms: C_19  and  C_20
REMARK                            x       y       z     vdW  Elec       q    Type
REMARK                         _______ _______ _______ _____ _____    ______ ____
ROOT
ATOM      1  N   UNL     1      46.825   5.985  12.565  0.00  0.00    +0.000 N 
ATOM      2  H   UNL     1      47.390   6.798  12.357  0.00  0.00    +0.000 HD
ENDROOT
BRANCH   1   3
ATOM      3  C   UNL     1      47.121   5.497  13.837  0.00  0.00    +0.000 A 
ATOM      4  N   UNL     1      46.554   4.349  14.262  0.00  0.00    +0.000 NA
ATOM      5  C   UNL     1      46.874   3.886  15.498  0.00  0.00    +0.000 A 
ATOM      6  C   UNL     1      47.761   4.514  16.353  0.00  0.00    +0.000 A 
ATOM      7  C   UNL     1      48.352   5.694  15.914  0.00  0.00    +0.000 A 
ATOM      8  C   UNL     1      48.056   6.184  14.632  0.00  0.00    +0.000 A 
ATOM      9  C   UNL     1      48.714   7.456  14.169  0.00  0.00    +0.000 C 
BRANCH   6  10
ATOM     10  C   UNL     1      47.987   3.939  17.694  0.00  0.00    +0.000 C 
ATOM     11  O   UNL     1      49.015   4.140  18.322  0.00  0.00    +0.000 OA
BRANCH  10  12
ATOM     12  O   UNL     1      46.970   3.195  18.167  0.00  0.00    +0.000 OA
ATOM     13  H   UNL     1      47.190   2.588  18.898  0.00  0.00    +0.000 HD
ENDBRANCH  10  12
ENDBRANCH   6  10
ENDBRANCH   1   3
BRANCH   1  14
ATOM     14  C   UNL     1      45.425   6.198  12.186  0.00  0.00    +0.000 C 
ATOM     15  C   UNL     1      45.201   7.654  11.772  0.00  0.00    +0.000 C 
BRANCH  14  20
ATOM     16  C   UNL     1      45.543   4.383   8.801  0.00  0.00    +0.000 A 
ATOM     17  C   UNL     1      44.736   3.277   9.055  0.00  0.00    +0.000 A 
ATOM     18  C   UNL     1      44.089   3.157  10.287  0.00  0.00    +0.000 A 
ATOM     19  C   UNL     1      44.273   4.125  11.277  0.00  0.00    +0.000 A 
ATOM     20  C   UNL     1      45.100   5.234  11.048  0.00  0.00    +0.000 A 
ATOM     21  C   UNL     1      45.680   5.376   9.774  0.00  0.00    +0.000 A 
BRANCH  16  23
ATOM     22  C   UNL     1      46.576   3.465   6.871  0.00  0.00    +0.000 C 
ATOM     23  O   UNL     1      46.224   4.612   7.639  0.00  0.00    +0.000 OA
ENDBRANCH  16  23
ENDBRANCH  14  20
ENDBRANCH   1  14
TORSDOF 6
ENDMDL
MODEL 6
REMARK VINA RESULT:    -5.896      2.542      3.940
REMARK INTER + INTRA:          -8.759
REMARK INTER:                  -8.500
REMARK INTRA:                  -0.259
REMARK UNBOUND:                -0.967
REMARK  Name = 
REMARK  9 active torsions:
REMARK  status: ('A' for Active; 'I' for Inactive)
REMARK    1  A    between atoms: C_1  and  O_2
REMARK    2  A    between atoms: O_2  and  C_3
REMARK    3  A    between atoms: C_7  and  C_8
REMARK    4  A    between atoms: C_8  and  C_9
REMARK    5  A    between atoms: C_8  and  N_10
REMARK    6  A    between atoms: N_10  and  C_11
REMARK    7  A    between atoms: C_14  and  C_15
REMARK    8  A    between atoms: C_15  and  O_17
REMARK    9  A    between atoms: C_19  and  C_20
REMARK                            x       y       z     vdW  Elec       q    Type
REMARK                         _______ _______ _______ _____ _____    ______ ____
ROOT
ATOM      1  N   UNL     1      43.913   5.576  10.530  0.00  0.00    +0.000 N 
ATOM      2  H   UNL     1      43.594   6.297   9.897  0.00  0.00    +0.000 HD
ENDROOT
BRANCH   1   3
ATOM      3  C   UNL     1      44.535   4.547   9.825  0.00  0.00    +0.000 A 
ATOM      4  N   UNL     1      45.363   4.842   8.801  0.00  0.00    +0.000 NA
ATOM      5  C   UNL     1      45.969   3.821   8.143  0.00  0.00    +0.000 A 
ATOM      6  C   UNL     1      45.803   2.487   8.465  0.00  0.00    +0.000 A 
ATOM      7  C   UNL     1      44.956   2.181   9.525  0.00  0.00    +0.000 A 
ATOM      8  C   UNL     1      44.332   3.218  10.237  0.00  0.00    +0.000 A 
ATOM      9  C   UNL     1      43.429   2.869  11.389  0.00  0.00    +0.000 C 
BRANCH   6  10
ATOM     10  C   UNL     1      46.479   1.465   7.639  0.00  0.00    +0.000 C 
ATOM     11  O   UNL     1      46.564   0.299   7.991  0.00  0.00    +0.000 OA
BRANCH  10  12
ATOM     12  O   UNL     1      46.974   1.919   6.473  0.00  0.00    +0.000 OA
ATOM     13  H   UNL     1      47.218   1.237   5.821  0.00  0.00    +0.000 HD
ENDBRANCH  10  12
ENDBRANCH   6  10
ENDBRANCH   1   3
BRANCH   1  14
ATOM     14  C   UNL     1      44.584   6.153  11.699  0.00  0.00    +0.000 C 
ATOM     15  C   UNL     1      46.003   5.592  11.829  0.00  0.00    +0.000 C 
BRANCH  14  20
ATOM     16  C   UNL     1      43.477   9.730  10.839  0.00  0.00    +0.000 A 
ATOM     17  C   UNL     1      44.452  10.482  11.489  0.00  0.00    +0.000 A 
ATOM     18  C   UNL     1      45.509   9.839  12.136  0.00  0.00    +0.000 A 
ATOM     19  C   UNL     1      45.578   8.444  12.160  0.00  0.00    +0.000 A 
ATOM     20  C   UNL     1      44.593   7.669  11.530  0.00  0.00    +0.000 A 
ATOM     21  C   UNL     1      43.579   8.337  10.819  0.00  0.00    +0.000 A 
BRANCH  16  23
ATOM     22  C   UNL     1      41.155  10.219  10.865  0.00  0.00    +0.000 C 
ATOM     23  O   UNL     1      42.400  10.242  10.173  0.00  0.00    +0.000 OA
ENDBRANCH  16  23
ENDBRANCH  14  20
ENDBRANCH   1  14
TORSDOF 6
ENDMDL
MODEL 7
REMARK VINA RESULT:    -5.739      3.501      5.058
REMARK INTER + INTRA:          -8.551
REMARK INTER:                  -7.904
REMARK INTRA:                  -0.647
REMARK UNBOUND:                -0.967
REMARK  Name = 
REMARK  9 active torsions:
REMARK  status: ('A' for Active; 'I' for Inactive)
REMARK    1  A    between atoms: C_1  and  O_2
REMARK    2  A    between atoms: O_2  and  C_3
REMARK    3  A    between atoms: C_7  and  C_8
REMARK    4  A    between atoms: C_8  and  C_9
REMARK    5  A    between atoms: C_8  and  N_10
REMARK    6  A    between atoms: N_10  and  C_11
REMARK    7  A    between atoms: C_14  and  C_15
REMARK    8  A    between atoms: C_15  and  O_17
REMARK    9  A    between atoms: C_19  and  C_20
REMARK                            x       y       z     vdW  Elec       q    Type
REMARK                         _______ _______ _______ _____ _____    ______ ____
ROOT
ATOM      1  N   UNL     1      46.338   5.447  14.385  0.00  0.00    +0.000 N 
ATOM      2  H   UNL     1      45.944   6.357  14.582  0.00  0.00    +0.000 HD
ENDROOT
BRANCH   1   3
ATOM      3  C   UNL     1      45.859   4.960  13.170  0.00  0.00    +0.000 A 
ATOM      4  N   UNL     1      45.766   3.628  12.972  0.00  0.00    +0.000 NA
ATOM      5  C   UNL     1      45.279   3.181  11.786  0.00  0.00    +0.000 A 
ATOM      6  C   UNL     1      44.856   4.009  10.763  0.00  0.00    +0.000 A 
ATOM      7  C   UNL     1      44.944   5.382  10.967  0.00  0.00    +0.000 A 
ATOM      8  C   UNL     1      45.424   5.872  12.192  0.00  0.00    +0.000 A 
ATOM      9  C   UNL     1      45.501   7.361  12.400  0.00  0.00    +0.000 C 
BRANCH   6  10
ATOM     10  C   UNL     1      44.394   3.401   9.499  0.00  0.00    +0.000 C 
ATOM     11  O   UNL     1      44.346   2.190   9.341  0.00  0.00    +0.000 OA
BRANCH  10  12
ATOM     12  O   UNL     1      44.020   4.281   8.552  0.00  0.00    +0.000 OA
ATOM     13  H   UNL     1      43.312   4.902   8.804  0.00  0.00    +0.000 HD
ENDBRANCH  10  12
ENDBRANCH   6  10
ENDBRANCH   1   3
BRANCH   1  14
ATOM     14  C   UNL     1      47.779   5.422  14.650  0.00  0.00    +0.000 C 
ATOM     15  C   UNL     1      48.358   6.838  14.584  0.00  0.00    +0.000 C 
BRANCH  14  20
ATOM     16  C   UNL     1      48.423   5.030  18.418  0.00  0.00    +0.000 A 
ATOM     17  C   UNL     1      48.072   3.698  18.619  0.00  0.00    +0.000 A 
ATOM     18  C   UNL     1      47.706   2.904  17.529  0.00  0.00    +0.000 A 
ATOM     19  C   UNL     1      47.660   3.448  16.244  0.00  0.00    +0.000 A 
ATOM     20  C   UNL     1      47.989   4.794  16.025  0.00  0.00    +0.000 A 
ATOM     21  C   UNL     1      48.429   5.555  17.123  0.00  0.00    +0.000 A 
BRANCH  16  23
ATOM     22  C   UNL     1      47.792   6.280  20.334  0.00  0.00    +0.000 C 
ATOM     23  O   UNL     1      48.798   5.903  19.399  0.00  0.00    +0.000 OA
ENDBRANCH  16  23
ENDBRANCH  14  20
ENDBRANCH   1  14
TORSDOF 6
ENDMDL
MODEL 8
REMARK VINA RESULT:    -5.493      3.605      5.496
REMARK INTER + INTRA:          -8.226
REMARK INTER:                  -7.948
REMARK INTRA:                  -0.278
REMARK UNBOUND:                -0.967
REMARK  Name = 
REMARK  9 active torsions:
REMARK  status: ('A' for Active; 'I' for Inactive)
REMARK    1  A    between atoms: C_1  and  O_2
REMARK    2  A    between atoms: O_2  and  C_3
REMARK    3  A    between atoms: C_7  and  C_8
REMARK    4  A    between atoms: C_8  and  C_9
REMARK    5  A    between atoms: C_8  and  N_10
REMARK    6  A    between atoms: N_10  and  C_11
REMARK    7  A    between atoms: C_14  and  C_15
REMARK    8  A    between atoms: C_15  and  O_17
REMARK    9  A    between atoms: C_19  and  C_20
REMARK                            x       y       z     vdW  Elec       q    Type
REMARK                         _______ _______ _______ _____ _____    ______ ____
ROOT
ATOM      1  N   UNL     1      46.031   7.343  13.325  0.00  0.00    +0.000 N 
ATOM      2  H   UNL     1      45.304   8.022  13.505  0.00  0.00    +0.000 HD
ENDROOT
BRANCH   1   3
ATOM      3  C   UNL     1      45.497   6.203  12.724  0.00  0.00    +0.000 A 
ATOM      4  N   UNL     1      44.656   6.331  11.678  0.00  0.00    +0.000 NA
ATOM      5  C   UNL     1      44.165   5.204  11.100  0.00  0.00    +0.000 A 
ATOM      6  C   UNL     1      44.485   3.923  11.509  0.00  0.00    +0.000 A 
ATOM      7  C   UNL     1      45.358   3.789  12.584  0.00  0.00    +0.000 A 
ATOM      8  C   UNL     1      45.897   4.937  13.187  0.00  0.00    +0.000 A 
ATOM      9  C   UNL     1      46.851   4.773  14.339  0.00  0.00    +0.000 C 
BRANCH   6  10
ATOM     10  C   UNL     1      43.844   2.778  10.832  0.00  0.00    +0.000 C 
ATOM     11  O   UNL     1      44.043   2.526   9.653  0.00  0.00    +0.000 OA
BRANCH  10  12
ATOM     12  O   UNL     1      43.042   2.034  11.617  0.00  0.00    +0.000 OA
ATOM     13  H   UNL     1      42.097   2.271  11.605  0.00  0.00    +0.000 HD
ENDBRANCH  10  12
ENDBRANCH   6  10
ENDBRANCH   1   3
BRANCH   1  14
ATOM     14  C   UNL     1      47.217   7.974  12.739  0.00  0.00    +0.000 C 
ATOM     15  C   UNL     1      47.791   7.097  11.623  0.00  0.00    +0.000 C 
BRANCH  14  20
ATOM     16  C   UNL     1      45.080  11.033  11.825  0.00  0.00    +0.000 A 
ATOM     17  C   UNL     1      46.062  11.983  11.556  0.00  0.00    +0.000 A 
ATOM     18  C   UNL     1      47.410  11.617  11.589  0.00  0.00    +0.000 A 
ATOM     19  C   UNL     1      47.779  10.312  11.922  0.00  0.00    +0.000 A 
ATOM     20  C   UNL     1      46.804   9.347  12.219  0.00  0.00    +0.000 A 
ATOM     21  C   UNL     1      45.452   9.715  12.104  0.00  0.00    +0.000 A 
BRANCH  16  23
ATOM     22  C   UNL     1      42.946  10.441  10.972  0.00  0.00    +0.000 C 
ATOM     23  O   UNL     1      43.735  11.268  11.822  0.00  0.00    +0.000 OA
ENDBRANCH  16  23
ENDBRANCH  14  20
ENDBRANCH   1  14
TORSDOF 6
ENDMDL
MODEL 9
REMARK VINA RESULT:    -5.453      3.385      5.189
REMARK INTER + INTRA:          -8.173
REMARK INTER:                  -7.453
REMARK INTRA:                  -0.720
REMARK UNBOUND:                -0.967
REMARK  Name = 
REMARK  9 active torsions:
REMARK  status: ('A' for Active; 'I' for Inactive)
REMARK    1  A    between atoms: C_1  and  O_2
REMARK    2  A    between atoms: O_2  and  C_3
REMARK    3  A    between atoms: C_7  and  C_8
REMARK    4  A    between atoms: C_8  and  C_9
REMARK    5  A    between atoms: C_8  and  N_10
REMARK    6  A    between atoms: N_10  and  C_11
REMARK    7  A    between atoms: C_14  and  C_15
REMARK    8  A    between atoms: C_15  and  O_17
REMARK    9  A    between atoms: C_19  and  C_20
REMARK                            x       y       z     vdW  Elec       q    Type
REMARK                         _______ _______ _______ _____ _____    ______ ____
ROOT
ATOM      1  N   UNL     1      46.755   6.652  13.709  0.00  0.00    +0.000 N 
ATOM      2  H   UNL     1      46.519   7.590  13.412  0.00  0.00    +0.000 HD
ENDROOT
BRANCH   1   3
ATOM      3  C   UNL     1      46.061   5.711  12.950  0.00  0.00    +0.000 A 
ATOM      4  N   UNL     1      46.127   4.404  13.281  0.00  0.00    +0.000 NA
ATOM      5  C   UNL     1      45.427   3.511  12.537  0.00  0.00    +0.000 A 
ATOM      6  C   UNL     1      44.632   3.856  11.460  0.00  0.00    +0.000 A 
ATOM      7  C   UNL     1      44.556   5.203  11.121  0.00  0.00    +0.000 A 
ATOM      8  C   UNL     1      45.254   6.152  11.887  0.00  0.00    +0.000 A 
ATOM      9  C   UNL     1      45.150   7.606  11.514  0.00  0.00    +0.000 C 
BRANCH   6  10
ATOM     10  C   UNL     1      43.960   2.785  10.697  0.00  0.00    +0.000 C 
ATOM     11  O   UNL     1      44.156   2.617   9.503  0.00  0.00    +0.000 OA
BRANCH  10  12
ATOM     12  O   UNL     1      43.134   2.008  11.422  0.00  0.00    +0.000 OA
ATOM     13  H   UNL     1      42.346   1.674  10.957  0.00  0.00    +0.000 HD
ENDBRANCH  10  12
ENDBRANCH   6  10
ENDBRANCH   1   3
BRANCH   1  14
ATOM     14  C   UNL     1      48.201   6.501  13.893  0.00  0.00    +0.000 C 
ATOM     15  C   UNL     1      48.949   7.650  13.211  0.00  0.00    +0.000 C 
BRANCH  14  20
ATOM     16  C   UNL     1      48.577   5.225  17.497  0.00  0.00    +0.000 A 
ATOM     17  C   UNL     1      49.273   6.276  18.089  0.00  0.00    +0.000 A 
ATOM     18  C   UNL     1      49.551   7.428  17.350  0.00  0.00    +0.000 A 
ATOM     19  C   UNL     1      49.161   7.520  16.012  0.00  0.00    +0.000 A 
ATOM     20  C   UNL     1      48.478   6.462  15.393  0.00  0.00    +0.000 A 
ATOM     21  C   UNL     1      48.141   5.343  16.175  0.00  0.00    +0.000 A 
BRANCH  16  23
ATOM     22  C   UNL     1      47.377   3.180  17.400  0.00  0.00    +0.000 C 
ATOM     23  O   UNL     1      48.247   4.053  18.115  0.00  0.00    +0.000 OA
ENDBRANCH  16  23
ENDBRANCH  14  20
ENDBRANCH   1  14
TORSDOF 6
ENDMDL
