MODEL 1
REMARK VINA RESULT:    -7.491      0.000      0.000
REMARK INTER + INTRA:         -12.388
REMARK INTER:                 -11.432
REMARK INTRA:                  -0.956
REMARK UNBOUND:                -0.956
REMARK  Name = 
REMARK  11 active torsions:
REMARK  status: ('A' for Active; 'I' for Inactive)
REMARK    1  A    between atoms: C_1  and  O_2
REMARK    2  A    between atoms: O_2  and  C_3
REMARK    3  A    between atoms: C_3  and  C_4
REMARK    4  A    between atoms: C_4  and  C_5
REMARK    5  A    between atoms: C_4  and  C_16
REMARK    6  A    between atoms: C_5  and  O_6
REMARK    7  A    between atoms: O_6  and  C_7
REMARK    8  A    between atoms: C_10  and  C_11
REMARK    9  A    between atoms: C_20  and  O_21
REMARK   10  A    between atoms: O_21  and  C_22
REMARK   11  A    between atoms: N_24  and  C_25
REMARK                            x       y       z     vdW  Elec       q    Type
REMARK                         _______ _______ _______ _____ _____    ______ ____
ROOT
ATOM      1  C   UNL     1      44.509   4.622  11.994  0.00  0.00    +0.000 C 
ENDROOT
BRANCH   1   2
ATOM      2  C   UNL     1      45.847   5.141  12.536  0.00  0.00    +0.000 A 
ATOM      3  C   UNL     1      46.550   6.213  11.966  0.00  0.00    +0.000 A 
ATOM      4  C   UNL     1      47.680   6.751  12.592  0.00  0.00    +0.000 A 
ATOM      5  C   UNL     1      48.155   6.202  13.780  0.00  0.00    +0.000 A 
ATOM      6  C   UNL     1      47.508   5.104  14.334  0.00  0.00    +0.000 A 
ATOM      7  C   UNL     1      46.358   4.593  13.725  0.00  0.00    +0.000 A 
BRANCH   6   8
ATOM      8  O   UNL     1      47.879   4.481  15.496  0.00  0.00    +0.000 OA
BRANCH   8   9
ATOM      9  C   UNL     1      48.129   5.290  16.667  0.00  0.00    +0.000 C 
ATOM     10  C   UNL     1      49.450   5.070  17.436  0.00  0.00    +0.000 C 
ATOM     11  N   UNL     1      48.705   4.879  18.695  0.00  0.00    +0.000 NA
ATOM     12  C   UNL     1      48.735   6.094  19.507  0.00  0.00    +0.000 C 
ATOM     13  C   UNL     1      47.436   4.788  17.951  0.00  0.00    +0.000 C 
ENDBRANCH   8   9
ENDBRANCH   6   8
ENDBRANCH   1   2
BRANCH   1  14
ATOM     14  C   UNL     1      43.367   4.669  13.040  0.00  0.00    +0.000 C 
BRANCH  14  16
ATOM     15  C   UNL     1      42.545   6.202  11.422  0.00  0.00    +0.000 C 
ATOM     16  O   UNL     1      42.227   5.353  12.514  0.00  0.00    +0.000 OA
ENDBRANCH  14  16
ENDBRANCH   1  14
BRANCH   1  17
ATOM     17  C   UNL     1      44.572   3.197  11.395  0.00  0.00    +0.000 C 
BRANCH  17  18
ATOM     18  O   UNL     1      44.100   3.224  10.039  0.00  0.00    +0.000 OA
BRANCH  18  19
ATOM     19  C   UNL     1      45.017   2.878   9.085  0.00  0.00    +0.000 A 
ATOM     20  C   UNL     1      45.437   1.572   8.843  0.00  0.00    +0.000 A 
ATOM     21  C   UNL     1      46.338   1.311   7.810  0.00  0.00    +0.000 A 
ATOM     22  C   UNL     1      46.816   2.349   6.999  0.00  0.00    +0.000 A 
ATOM     23  C   UNL     1      46.402   3.660   7.249  0.00  0.00    +0.000 A 
ATOM     24  C   UNL     1      45.499   3.921   8.287  0.00  0.00    +0.000 A 
BRANCH  22  25
ATOM     25  C   UNL     1      47.751   1.990   5.901  0.00  0.00    +0.000 C 
ATOM     26  N   UNL     1      48.099   2.972   5.016  0.00  0.00    +0.000 N 
ATOM     27  O   UNL     1      48.158   0.846   5.754  0.00  0.00    +0.000 OA
ATOM     28  H   UNL     1      47.590   3.841   4.949  0.00  0.00    +0.000 HD
ATOM     29  H   UNL     1      48.610   2.664   4.199  0.00  0.00    +0.000 HD
ENDBRANCH  22  25
ENDBRANCH  18  19
ENDBRANCH  17  18
ENDBRANCH   1  17
TORSDOF 9
ENDMDL
MODEL 2
REMARK VINA RESULT:    -7.385      1.778      2.181
REMARK INTER + INTRA:         -12.227
REMARK INTER:                 -11.158
REMARK INTRA:                  -1.069
REMARK UNBOUND:                -0.956
REMARK  Name = 
REMARK  11 active torsions:
REMARK  status: ('A' for Active; 'I' for Inactive)
REMARK    1  A    between atoms: C_1  and  O_2
REMARK    2  A    between atoms: O_2  and  C_3
REMARK    3  A    between atoms: C_3  and  C_4
REMARK    4  A    between atoms: C_4  and  C_5
REMARK    5  A    between atoms: C_4  and  C_16
REMARK    6  A    between atoms: C_5  and  O_6
REMARK    7  A    between atoms: O_6  and  C_7
REMARK    8  A    between atoms: C_10  and  C_11
REMARK    9  A    between atoms: C_20  and  O_21
REMARK   10  A    between atoms: O_21  and  C_22
REMARK   11  A    between atoms: N_24  and  C_25
REMARK                            x       y       z     vdW  Elec       q    Type
REMARK                         _______ _______ _______ _____ _____    ______ ____
ROOT
ATOM      1  C   UNL     1      44.758   6.278  11.173  0.00  0.00    +0.000 C 
ENDROOT
BRANCH   1   2
ATOM      2  C   UNL     1      46.011   6.100  12.041  0.00  0.00    +0.000 A 
ATOM      3  C   UNL     1      47.189   6.842  11.862  0.00  0.00    +0.000 A 
ATOM      4  C   UNL     1      48.242   6.757  12.779  0.00  0.00    +0.000 A 
ATOM      5  C   UNL     1      48.158   5.898  13.871  0.00  0.00    +0.000 A 
ATOM      6  C   UNL     1      47.025   5.112  14.039  0.00  0.00    +0.000 A 
ATOM      7  C   UNL     1      45.959   5.227  13.141  0.00  0.00    +0.000 A 
BRANCH   6   8
ATOM      8  O   UNL     1      46.826   4.235  15.071  0.00  0.00    +0.000 OA
BRANCH   8   9
ATOM      9  C   UNL     1      47.756   4.242  16.176  0.00  0.00    +0.000 C 
ATOM     10  C   UNL     1      48.187   2.885  16.776  0.00  0.00    +0.000 C 
ATOM     11  N   UNL     1      47.799   3.340  18.125  0.00  0.00    +0.000 NA
ATOM     12  C   UNL     1      48.972   3.757  18.890  0.00  0.00    +0.000 C 
ATOM     13  C   UNL     1      47.114   4.512  17.553  0.00  0.00    +0.000 C 
ENDBRANCH   8   9
ENDBRANCH   6   8
ENDBRANCH   1   2
BRANCH   1  14
ATOM     14  C   UNL     1      43.898   7.498  11.587  0.00  0.00    +0.000 C 
BRANCH  14  16
ATOM     15  C   UNL     1      44.805   9.666  11.932  0.00  0.00    +0.000 C 
ATOM     16  O   UNL     1      44.394   8.695  10.983  0.00  0.00    +0.000 OA
ENDBRANCH  14  16
ENDBRANCH   1  14
BRANCH   1  17
ATOM     17  C   UNL     1      43.847   5.031  11.105  0.00  0.00    +0.000 C 
BRANCH  17  18
ATOM     18  O   UNL     1      43.539   4.736   9.732  0.00  0.00    +0.000 OA
BRANCH  18  19
ATOM     19  C   UNL     1      44.426   3.917   9.089  0.00  0.00    +0.000 A 
ATOM     20  C   UNL     1      45.379   4.363   8.175  0.00  0.00    +0.000 A 
ATOM     21  C   UNL     1      46.277   3.457   7.609  0.00  0.00    +0.000 A 
ATOM     22  C   UNL     1      46.243   2.101   7.961  0.00  0.00    +0.000 A 
ATOM     23  C   UNL     1      45.279   1.654   8.870  0.00  0.00    +0.000 A 
ATOM     24  C   UNL     1      44.377   2.563   9.436  0.00  0.00    +0.000 A 
BRANCH  22  25
ATOM     25  C   UNL     1      47.248   1.203   7.339  0.00  0.00    +0.000 C 
ATOM     26  N   UNL     1      47.001  -0.142   7.363  0.00  0.00    +0.000 N 
ATOM     27  O   UNL     1      48.290   1.636   6.868  0.00  0.00    +0.000 OA
ATOM     28  H   UNL     1      46.298  -0.549   7.961  0.00  0.00    +0.000 HD
ATOM     29  H   UNL     1      47.769  -0.733   7.071  0.00  0.00    +0.000 HD
ENDBRANCH  22  25
ENDBRANCH  18  19
ENDBRANCH  17  18
ENDBRANCH   1  17
TORSDOF 9
ENDMDL
MODEL 3
REMARK VINA RESULT:    -7.008      3.392      5.569
REMARK INTER + INTRA:         -11.651
REMARK INTER:                 -10.873
REMARK INTRA:                  -0.778
REMARK UNBOUND:                -0.956
REMARK  Name = 
REMARK  11 active torsions:
REMARK  status: ('A' for Active; 'I' for Inactive)
REMARK    1  A    between atoms: C_1  and  O_2
REMARK    2  A    between atoms: O_2  and  C_3
REMARK    3  A    between atoms: C_3  and  C_4
REMARK    4  A    between atoms: C_4  and  C_5
REMARK    5  A    between atoms: C_4  and  C_16
REMARK    6  A    between atoms: C_5  and  O_6
REMARK    7  A    between atoms: O_6  and  C_7
REMARK    8  A    between atoms: C_10  and  C_11
REMARK    9  A    between atoms: C_20  and  O_21
REMARK   10  A    between atoms: O_21  and  C_22
REMARK   11  A    between atoms: N_24  and  C_25
REMARK                            x       y       z     vdW  Elec       q    Type
REMARK                         _______ _______ _______ _____ _____    ______ ____
ROOT
ATOM      1  C   UNL     1      44.414   5.373  12.271  0.00  0.00    +0.000 C 
ENDROOT
BRANCH   1   2
ATOM      2  C   UNL     1      45.317   6.614  12.261  0.00  0.00    +0.000 A 
ATOM      3  C   UNL     1      46.702   6.562  12.047  0.00  0.00    +0.000 A 
ATOM      4  C   UNL     1      47.453   7.731  11.887  0.00  0.00    +0.000 A 
ATOM      5  C   UNL     1      46.842   8.979  11.978  0.00  0.00    +0.000 A 
ATOM      6  C   UNL     1      45.480   9.057  12.246  0.00  0.00    +0.000 A 
ATOM      7  C   UNL     1      44.727   7.885  12.369  0.00  0.00    +0.000 A 
BRANCH   6   8
ATOM      8  O   UNL     1      44.770  10.222  12.356  0.00  0.00    +0.000 OA
BRANCH   8   9
ATOM      9  C   UNL     1      43.681  10.459  11.437  0.00  0.00    +0.000 C 
ATOM     10  C   UNL     1      44.002  10.525   9.927  0.00  0.00    +0.000 C 
ATOM     11  N   UNL     1      43.333  11.836   9.825  0.00  0.00    +0.000 NA
ATOM     12  C   UNL     1      41.990  11.693   9.269  0.00  0.00    +0.000 C 
ATOM     13  C   UNL     1      43.274  11.941  11.294  0.00  0.00    +0.000 C 
ENDBRANCH   8   9
ENDBRANCH   6   8
ENDBRANCH   1   2
BRANCH   1  14
ATOM     14  C   UNL     1      45.167   4.075  12.654  0.00  0.00    +0.000 C 
BRANCH  14  16
ATOM     15  C   UNL     1      46.976   3.740  14.156  0.00  0.00    +0.000 C 
ATOM     16  O   UNL     1      45.621   4.133  14.008  0.00  0.00    +0.000 OA
ENDBRANCH  14  16
ENDBRANCH   1  14
BRANCH   1  17
ATOM     17  C   UNL     1      43.648   5.130  10.950  0.00  0.00    +0.000 C 
BRANCH  17  18
ATOM     18  O   UNL     1      43.775   3.750  10.568  0.00  0.00    +0.000 OA
BRANCH  18  19
ATOM     19  C   UNL     1      44.656   3.494   9.554  0.00  0.00    +0.000 A 
ATOM     20  C   UNL     1      45.308   4.481   8.818  0.00  0.00    +0.000 A 
ATOM     21  C   UNL     1      46.232   4.121   7.836  0.00  0.00    +0.000 A 
ATOM     22  C   UNL     1      46.527   2.773   7.592  0.00  0.00    +0.000 A 
ATOM     23  C   UNL     1      45.865   1.783   8.325  0.00  0.00    +0.000 A 
ATOM     24  C   UNL     1      44.936   2.146   9.308  0.00  0.00    +0.000 A 
BRANCH  22  25
ATOM     25  C   UNL     1      47.542   2.467   6.552  0.00  0.00    +0.000 C 
ATOM     26  N   UNL     1      47.392   3.054   5.326  0.00  0.00    +0.000 N 
ATOM     27  O   UNL     1      48.453   1.679   6.758  0.00  0.00    +0.000 OA
ATOM     28  H   UNL     1      46.529   3.490   5.041  0.00  0.00    +0.000 HD
ATOM     29  H   UNL     1      48.006   2.709   4.599  0.00  0.00    +0.000 HD
ENDBRANCH  22  25
ENDBRANCH  18  19
ENDBRANCH  17  18
ENDBRANCH   1  17
TORSDOF 9
ENDMDL
MODEL 4
REMARK VINA RESULT:    -6.809      2.577      3.930
REMARK INTER + INTRA:         -11.348
REMARK INTER:                 -10.739
REMARK INTRA:                  -0.608
REMARK UNBOUND:                -0.956
REMARK  Name = 
REMARK  11 active torsions:
REMARK  status: ('A' for Active; 'I' for Inactive)
REMARK    1  A    between atoms: C_1  and  O_2
REMARK    2  A    between atoms: O_2  and  C_3
REMARK    3  A    between atoms: C_3  and  C_4
REMARK    4  A    between atoms: C_4  and  C_5
REMARK    5  A    between atoms: C_4  and  C_16
REMARK    6  A    between atoms: C_5  and  O_6
REMARK    7  A    between atoms: O_6  and  C_7
REMARK    8  A    between atoms: C_10  and  C_11
REMARK    9  A    between atoms: C_20  and  O_21
REMARK   10  A    between atoms: O_21  and  C_22
REMARK   11  A    between atoms: N_24  and  C_25
REMARK                            x       y       z     vdW  Elec       q    Type
REMARK                         _______ _______ _______ _____ _____    ______ ____
ROOT
ATOM      1  C   UNL     1      44.346   5.638  11.922  0.00  0.00    +0.000 C 
ENDROOT
BRANCH   1   2
ATOM      2  C   UNL     1      44.848   7.089  11.931  0.00  0.00    +0.000 A 
ATOM      3  C   UNL     1      44.205   8.135  11.252  0.00  0.00    +0.000 A 
ATOM      4  C   UNL     1      44.609   9.463  11.423  0.00  0.00    +0.000 A 
ATOM      5  C   UNL     1      45.691   9.770  12.244  0.00  0.00    +0.000 A 
ATOM      6  C   UNL     1      46.379   8.745  12.882  0.00  0.00    +0.000 A 
ATOM      7  C   UNL     1      45.949   7.423  12.738  0.00  0.00    +0.000 A 
BRANCH   6   8
ATOM      8  O   UNL     1      47.453   8.922  13.713  0.00  0.00    +0.000 OA
BRANCH   8   9
ATOM      9  C   UNL     1      48.771   9.029  13.130  0.00  0.00    +0.000 C 
ATOM     10  C   UNL     1      48.961   8.565  11.669  0.00  0.00    +0.000 C 
ATOM     11  N   UNL     1      50.072   7.684  12.076  0.00  0.00    +0.000 NA
ATOM     12  C   UNL     1      51.362   8.301  11.776  0.00  0.00    +0.000 C 
ATOM     13  C   UNL     1      49.728   7.875  13.496  0.00  0.00    +0.000 C 
ENDBRANCH   8   9
ENDBRANCH   6   8
ENDBRANCH   1   2
BRANCH   1  14
ATOM     14  C   UNL     1      45.446   4.610  12.287  0.00  0.00    +0.000 C 
BRANCH  14  16
ATOM     15  C   UNL     1      46.593   4.243  14.334  0.00  0.00    +0.000 C 
ATOM     16  O   UNL     1      45.344   4.226  13.660  0.00  0.00    +0.000 OA
ENDBRANCH  14  16
ENDBRANCH   1  14
BRANCH   1  17
ATOM     17  C   UNL     1      43.680   5.201  10.596  0.00  0.00    +0.000 C 
BRANCH  17  18
ATOM     18  O   UNL     1      43.826   3.782  10.431  0.00  0.00    +0.000 OA
BRANCH  18  19
ATOM     19  C   UNL     1      44.682   3.386   9.439  0.00  0.00    +0.000 A 
ATOM     20  C   UNL     1      45.349   4.263   8.587  0.00  0.00    +0.000 A 
ATOM     21  C   UNL     1      46.245   3.766   7.639  0.00  0.00    +0.000 A 
ATOM     22  C   UNL     1      46.494   2.390   7.543  0.00  0.00    +0.000 A 
ATOM     23  C   UNL     1      45.815   1.511   8.392  0.00  0.00    +0.000 A 
ATOM     24  C   UNL     1      44.916   2.010   9.341  0.00  0.00    +0.000 A 
BRANCH  22  25
ATOM     25  C   UNL     1      47.481   1.939   6.529  0.00  0.00    +0.000 C 
ATOM     26  N   UNL     1      48.531   2.768   6.251  0.00  0.00    +0.000 N 
ATOM     27  O   UNL     1      47.339   0.888   5.921  0.00  0.00    +0.000 OA
ATOM     28  H   UNL     1      48.540   3.737   6.531  0.00  0.00    +0.000 HD
ATOM     29  H   UNL     1      49.096   2.505   5.453  0.00  0.00    +0.000 HD
ENDBRANCH  22  25
ENDBRANCH  18  19
ENDBRANCH  17  18
ENDBRANCH   1  17
TORSDOF 9
ENDMDL
MODEL 5
REMARK VINA RESULT:    -6.532      3.433      8.179
REMARK INTER + INTRA:         -10.924
REMARK INTER:                  -9.693
REMARK INTRA:                  -1.231
REMARK UNBOUND:                -0.956
REMARK  Name = 
REMARK  11 active torsions:
REMARK  status: ('A' for Active; 'I' for Inactive)
REMARK    1  A    between atoms: C_1  and  O_2
REMARK    2  A    between atoms: O_2  and  C_3
REMARK    3  A    between atoms: C_3  and  C_4
REMARK    4  A    between atoms: C_4  and  C_5
REMARK    5  A    between atoms: C_4  and  C_16
REMARK    6  A    between atoms: C_5  and  O_6
REMARK    7  A    between atoms: O_6  and  C_7
REMARK    8  A    between atoms: C_10  and  C_11
REMARK    9  A    between atoms: C_20  and  O_21
REMARK   10  A    between atoms: O_21  and  C_22
REMARK   11  A    between atoms: N_24  and  C_25
REMARK                            x       y       z     vdW  Elec       q    Type
REMARK                         _______ _______ _______ _____ _____    ______ ____
ROOT
ATOM      1  C   UNL     1      46.966   4.800  13.261  0.00  0.00    +0.000 C 
ENDROOT
BRANCH   1   2
ATOM      2  C   UNL     1      45.566   4.601  12.664  0.00  0.00    +0.000 A 
ATOM      3  C   UNL     1      44.387   5.012  13.303  0.00  0.00    +0.000 A 
ATOM      4  C   UNL     1      43.152   4.954  12.648  0.00  0.00    +0.000 A 
ATOM      5  C   UNL     1      43.064   4.447  11.355  0.00  0.00    +0.000 A 
ATOM      6  C   UNL     1      44.211   3.981  10.722  0.00  0.00    +0.000 A 
ATOM      7  C   UNL     1      45.448   4.075  11.366  0.00  0.00    +0.000 A 
BRANCH   6   8
ATOM      8  O   UNL     1      44.250   3.464   9.455  0.00  0.00    +0.000 OA
BRANCH   8   9
ATOM      9  C   UNL     1      45.537   3.202   8.853  0.00  0.00    +0.000 C 
ATOM     10  C   UNL     1      45.699   3.453   7.337  0.00  0.00    +0.000 C 
ATOM     11  N   UNL     1      46.211   2.083   7.147  0.00  0.00    +0.000 NA
ATOM     12  C   UNL     1      47.668   2.083   7.040  0.00  0.00    +0.000 C 
ATOM     13  C   UNL     1      45.796   1.719   8.514  0.00  0.00    +0.000 C 
ENDBRANCH   8   9
ENDBRANCH   6   8
ENDBRANCH   1   2
BRANCH   1  14
ATOM     14  C   UNL     1      46.988   4.711  14.807  0.00  0.00    +0.000 C 
BRANCH  14  16
ATOM     15  C   UNL     1      47.787   3.373  16.600  0.00  0.00    +0.000 C 
ATOM     16  O   UNL     1      47.406   3.412  15.234  0.00  0.00    +0.000 OA
ENDBRANCH  14  16
ENDBRANCH   1  14
BRANCH   1  17
ATOM     17  C   UNL     1      47.663   6.111  12.830  0.00  0.00    +0.000 C 
BRANCH  17  18
ATOM     18  O   UNL     1      47.300   7.167  13.735  0.00  0.00    +0.000 OA
BRANCH  18  19
ATOM     19  C   UNL     1      46.872   8.328  13.150  0.00  0.00    +0.000 A 
ATOM     20  C   UNL     1      47.718   9.364  12.761  0.00  0.00    +0.000 A 
ATOM     21  C   UNL     1      47.193  10.488  12.123  0.00  0.00    +0.000 A 
ATOM     22  C   UNL     1      45.821  10.581  11.852  0.00  0.00    +0.000 A 
ATOM     23  C   UNL     1      44.972   9.545  12.253  0.00  0.00    +0.000 A 
ATOM     24  C   UNL     1      45.500   8.419  12.895  0.00  0.00    +0.000 A 
BRANCH  22  25
ATOM     25  C   UNL     1      45.340  11.795  11.144  0.00  0.00    +0.000 C 
ATOM     26  N   UNL     1      44.663  12.732  11.876  0.00  0.00    +0.000 N 
ATOM     27  O   UNL     1      45.490  11.936   9.939  0.00  0.00    +0.000 OA
ATOM     28  H   UNL     1      44.296  12.534  12.794  0.00  0.00    +0.000 HD
ATOM     29  H   UNL     1      44.219  13.466  11.341  0.00  0.00    +0.000 HD
ENDBRANCH  22  25
ENDBRANCH  18  19
ENDBRANCH  17  18
ENDBRANCH   1  17
TORSDOF 9
ENDMDL
MODEL 6
REMARK VINA RESULT:    -6.460      4.033      6.247
REMARK INTER + INTRA:         -10.814
REMARK INTER:                 -10.155
REMARK INTRA:                  -0.659
REMARK UNBOUND:                -0.956
REMARK  Name = 
REMARK  11 active torsions:
REMARK  status: ('A' for Active; 'I' for Inactive)
REMARK    1  A    between atoms: C_1  and  O_2
REMARK    2  A    between atoms: O_2  and  C_3
REMARK    3  A    between atoms: C_3  and  C_4
REMARK    4  A    between atoms: C_4  and  C_5
REMARK    5  A    between atoms: C_4  and  C_16
REMARK    6  A    between atoms: C_5  and  O_6
REMARK    7  A    between atoms: O_6  and  C_7
REMARK    8  A    between atoms: C_10  and  C_11
REMARK    9  A    between atoms: C_20  and  O_21
REMARK   10  A    between atoms: O_21  and  C_22
REMARK   11  A    between atoms: N_24  and  C_25
REMARK                            x       y       z     vdW  Elec       q    Type
REMARK                         _______ _______ _______ _____ _____    ______ ____
ROOT
ATOM      1  C   UNL     1      44.684   6.525  11.635  0.00  0.00    +0.000 C 
ENDROOT
BRANCH   1   2
ATOM      2  C   UNL     1      44.989   8.024  11.758  0.00  0.00    +0.000 A 
ATOM      3  C   UNL     1      46.235   8.530  12.159  0.00  0.00    +0.000 A 
ATOM      4  C   UNL     1      46.511   9.900  12.099  0.00  0.00    +0.000 A 
ATOM      5  C   UNL     1      45.534  10.798  11.677  0.00  0.00    +0.000 A 
ATOM      6  C   UNL     1      44.274  10.325  11.328  0.00  0.00    +0.000 A 
ATOM      7  C   UNL     1      44.014   8.952  11.354  0.00  0.00    +0.000 A 
BRANCH   6   8
ATOM      8  O   UNL     1      43.236  11.107  10.897  0.00  0.00    +0.000 OA
BRANCH   8   9
ATOM      9  C   UNL     1      41.923  10.888  11.457  0.00  0.00    +0.000 C 
ATOM     10  C   UNL     1      40.755  10.600  10.488  0.00  0.00    +0.000 C 
ATOM     11  N   UNL     1      39.965  11.692  11.089  0.00  0.00    +0.000 NA
ATOM     12  C   UNL     1      38.976  11.165  12.026  0.00  0.00    +0.000 C 
ATOM     13  C   UNL     1      41.154  12.177  11.813  0.00  0.00    +0.000 C 
ENDBRANCH   8   9
ENDBRANCH   6   8
ENDBRANCH   1   2
BRANCH   1  14
ATOM     14  C   UNL     1      44.853   5.757  12.970  0.00  0.00    +0.000 C 
BRANCH  14  16
ATOM     15  C   UNL     1      46.410   4.417  14.163  0.00  0.00    +0.000 C 
ATOM     16  O   UNL     1      46.229   5.448  13.205  0.00  0.00    +0.000 OA
ENDBRANCH  14  16
ENDBRANCH   1  14
BRANCH   1  17
ATOM     17  C   UNL     1      45.496   5.796  10.539  0.00  0.00    +0.000 C 
BRANCH  17  18
ATOM     18  O   UNL     1      44.688   4.765   9.948  0.00  0.00    +0.000 OA
BRANCH  18  19
ATOM     19  C   UNL     1      45.322   3.960   9.042  0.00  0.00    +0.000 A 
ATOM     20  C   UNL     1      46.071   4.434   7.966  0.00  0.00    +0.000 A 
ATOM     21  C   UNL     1      46.727   3.534   7.126  0.00  0.00    +0.000 A 
ATOM     22  C   UNL     1      46.655   2.154   7.359  0.00  0.00    +0.000 A 
ATOM     23  C   UNL     1      45.895   1.680   8.433  0.00  0.00    +0.000 A 
ATOM     24  C   UNL     1      45.236   2.584   9.275  0.00  0.00    +0.000 A 
BRANCH  22  25
ATOM     25  C   UNL     1      47.402   1.260   6.439  0.00  0.00    +0.000 C 
ATOM     26  N   UNL     1      48.499   1.774   5.804  0.00  0.00    +0.000 N 
ATOM     27  O   UNL     1      47.026   0.119   6.208  0.00  0.00    +0.000 OA
ATOM     28  H   UNL     1      48.682   2.765   5.765  0.00  0.00    +0.000 HD
ATOM     29  H   UNL     1      48.893   1.194   5.074  0.00  0.00    +0.000 HD
ENDBRANCH  22  25
ENDBRANCH  18  19
ENDBRANCH  17  18
ENDBRANCH   1  17
TORSDOF 9
ENDMDL
MODEL 7
REMARK VINA RESULT:    -6.316      1.914      8.997
REMARK INTER + INTRA:         -10.595
REMARK INTER:                  -9.937
REMARK INTRA:                  -0.659
REMARK UNBOUND:                -0.956
REMARK  Name = 
REMARK  11 active torsions:
REMARK  status: ('A' for Active; 'I' for Inactive)
REMARK    1  A    between atoms: C_1  and  O_2
REMARK    2  A    between atoms: O_2  and  C_3
REMARK    3  A    between atoms: C_3  and  C_4
REMARK    4  A    between atoms: C_4  and  C_5
REMARK    5  A    between atoms: C_4  and  C_16
REMARK    6  A    between atoms: C_5  and  O_6
REMARK    7  A    between atoms: O_6  and  C_7
REMARK    8  A    between atoms: C_10  and  C_11
REMARK    9  A    between atoms: C_20  and  O_21
REMARK   10  A    between atoms: O_21  and  C_22
REMARK   11  A    between atoms: N_24  and  C_25
REMARK                            x       y       z     vdW  Elec       q    Type
REMARK                         _______ _______ _______ _____ _____    ______ ____
ROOT
ATOM      1  C   UNL     1      46.014   5.780  13.132  0.00  0.00    +0.000 C 
ENDROOT
BRANCH   1   2
ATOM      2  C   UNL     1      45.250   4.796  12.236  0.00  0.00    +0.000 A 
ATOM      3  C   UNL     1      44.368   3.823  12.729  0.00  0.00    +0.000 A 
ATOM      4  C   UNL     1      43.575   3.061  11.865  0.00  0.00    +0.000 A 
ATOM      5  C   UNL     1      43.677   3.227  10.486  0.00  0.00    +0.000 A 
ATOM      6  C   UNL     1      44.584   4.146   9.971  0.00  0.00    +0.000 A 
ATOM      7  C   UNL     1      45.347   4.931  10.840  0.00  0.00    +0.000 A 
BRANCH   6   8
ATOM      8  O   UNL     1      44.771   4.399   8.639  0.00  0.00    +0.000 OA
BRANCH   8   9
ATOM      9  C   UNL     1      45.249   3.331   7.791  0.00  0.00    +0.000 C 
ATOM     10  C   UNL     1      45.961   2.133   8.458  0.00  0.00    +0.000 C 
ATOM     11  N   UNL     1      47.121   2.303   7.561  0.00  0.00    +0.000 NA
ATOM     12  C   UNL     1      47.077   1.335   6.467  0.00  0.00    +0.000 C 
ATOM     13  C   UNL     1      46.607   3.609   7.114  0.00  0.00    +0.000 C 
ENDBRANCH   8   9
ENDBRANCH   6   8
ENDBRANCH   1   2
BRANCH   1  14
ATOM     14  C   UNL     1      46.225   7.167  12.476  0.00  0.00    +0.000 C 
BRANCH  14  16
ATOM     15  C   UNL     1      44.669   8.644  11.454  0.00  0.00    +0.000 C 
ATOM     16  O   UNL     1      45.068   7.989  12.649  0.00  0.00    +0.000 OA
ENDBRANCH  14  16
ENDBRANCH   1  14
BRANCH   1  17
ATOM     17  C   UNL     1      47.381   5.257  13.633  0.00  0.00    +0.000 C 
BRANCH  17  18
ATOM     18  O   UNL     1      47.173   4.182  14.563  0.00  0.00    +0.000 OA
BRANCH  18  19
ATOM     19  C   UNL     1      47.698   4.368  15.812  0.00  0.00    +0.000 A 
ATOM     20  C   UNL     1      48.271   5.562  16.248  0.00  0.00    +0.000 A 
ATOM     21  C   UNL     1      48.732   5.673  17.560  0.00  0.00    +0.000 A 
ATOM     22  C   UNL     1      48.613   4.600  18.454  0.00  0.00    +0.000 A 
ATOM     23  C   UNL     1      48.048   3.400  18.011  0.00  0.00    +0.000 A 
ATOM     24  C   UNL     1      47.587   3.289  16.694  0.00  0.00    +0.000 A 
BRANCH  22  25
ATOM     25  C   UNL     1      49.101   4.802  19.842  0.00  0.00    +0.000 C 
ATOM     26  N   UNL     1      48.576   4.007  20.823  0.00  0.00    +0.000 N 
ATOM     27  O   UNL     1      49.903   5.682  20.117  0.00  0.00    +0.000 OA
ATOM     28  H   UNL     1      47.738   3.463  20.683  0.00  0.00    +0.000 HD
ATOM     29  H   UNL     1      48.811   4.270  21.771  0.00  0.00    +0.000 HD
ENDBRANCH  22  25
ENDBRANCH  18  19
ENDBRANCH  17  18
ENDBRANCH   1  17
TORSDOF 9
ENDMDL
MODEL 8
REMARK VINA RESULT:    -6.262      3.312      4.460
REMARK INTER + INTRA:         -10.513
REMARK INTER:                  -9.791
REMARK INTRA:                  -0.723
REMARK UNBOUND:                -0.956
REMARK  Name = 
REMARK  11 active torsions:
REMARK  status: ('A' for Active; 'I' for Inactive)
REMARK    1  A    between atoms: C_1  and  O_2
REMARK    2  A    between atoms: O_2  and  C_3
REMARK    3  A    between atoms: C_3  and  C_4
REMARK    4  A    between atoms: C_4  and  C_5
REMARK    5  A    between atoms: C_4  and  C_16
REMARK    6  A    between atoms: C_5  and  O_6
REMARK    7  A    between atoms: O_6  and  C_7
REMARK    8  A    between atoms: C_10  and  C_11
REMARK    9  A    between atoms: C_20  and  O_21
REMARK   10  A    between atoms: O_21  and  C_22
REMARK   11  A    between atoms: N_24  and  C_25
REMARK                            x       y       z     vdW  Elec       q    Type
REMARK                         _______ _______ _______ _____ _____    ______ ____
ROOT
ATOM      1  C   UNL     1      45.580   6.342  11.237  0.00  0.00    +0.000 C 
ENDROOT
BRANCH   1   2
ATOM      2  C   UNL     1      46.821   6.702  12.065  0.00  0.00    +0.000 A 
ATOM      3  C   UNL     1      47.053   6.222  13.363  0.00  0.00    +0.000 A 
ATOM      4  C   UNL     1      48.272   6.449  14.010  0.00  0.00    +0.000 A 
ATOM      5  C   UNL     1      49.271   7.195  13.391  0.00  0.00    +0.000 A 
ATOM      6  C   UNL     1      49.043   7.729  12.128  0.00  0.00    +0.000 A 
ATOM      7  C   UNL     1      47.838   7.469  11.469  0.00  0.00    +0.000 A 
BRANCH   6   8
ATOM      8  O   UNL     1      49.947   8.474  11.419  0.00  0.00    +0.000 OA
BRANCH   8   9
ATOM      9  C   UNL     1      51.356   8.213  11.600  0.00  0.00    +0.000 C 
ATOM     10  C   UNL     1      52.350   9.367  11.345  0.00  0.00    +0.000 C 
ATOM     11  N   UNL     1      53.118   8.522  10.411  0.00  0.00    +0.000 NA
ATOM     12  C   UNL     1      54.311   7.982  11.059  0.00  0.00    +0.000 C 
ATOM     13  C   UNL     1      52.038   7.519  10.403  0.00  0.00    +0.000 C 
ENDBRANCH   8   9
ENDBRANCH   6   8
ENDBRANCH   1   2
BRANCH   1  14
ATOM     14  C   UNL     1      44.401   7.324  11.448  0.00  0.00    +0.000 C 
BRANCH  14  16
ATOM     15  C   UNL     1      44.529   9.691  11.287  0.00  0.00    +0.000 C 
ATOM     16  O   UNL     1      44.855   8.539  12.049  0.00  0.00    +0.000 OA
ENDBRANCH  14  16
ENDBRANCH   1  14
BRANCH   1  17
ATOM     17  C   UNL     1      45.067   4.899  11.452  0.00  0.00    +0.000 C 
BRANCH  17  18
ATOM     18  O   UNL     1      44.369   4.458  10.276  0.00  0.00    +0.000 OA
BRANCH  18  19
ATOM     19  C   UNL     1      45.120   3.768   9.364  0.00  0.00    +0.000 A 
ATOM     20  C   UNL     1      45.210   2.378   9.318  0.00  0.00    +0.000 A 
ATOM     21  C   UNL     1      45.961   1.763   8.316  0.00  0.00    +0.000 A 
ATOM     22  C   UNL     1      46.616   2.528   7.342  0.00  0.00    +0.000 A 
ATOM     23  C   UNL     1      46.534   3.922   7.396  0.00  0.00    +0.000 A 
ATOM     24  C   UNL     1      45.782   4.539   8.403  0.00  0.00    +0.000 A 
BRANCH  22  25
ATOM     25  C   UNL     1      47.373   1.801   6.290  0.00  0.00    +0.000 C 
ATOM     26  N   UNL     1      48.122   2.543   5.419  0.00  0.00    +0.000 N 
ATOM     27  O   UNL     1      47.293   0.587   6.166  0.00  0.00    +0.000 OA
ATOM     28  H   UNL     1      48.007   3.540   5.325  0.00  0.00    +0.000 HD
ATOM     29  H   UNL     1      48.499   2.037   4.628  0.00  0.00    +0.000 HD
ENDBRANCH  22  25
ENDBRANCH  18  19
ENDBRANCH  17  18
ENDBRANCH   1  17
TORSDOF 9
ENDMDL
MODEL 9
REMARK VINA RESULT:    -6.106      4.057      8.438
REMARK INTER + INTRA:         -10.274
REMARK INTER:                  -9.201
REMARK INTRA:                  -1.073
REMARK UNBOUND:                -0.956
REMARK  Name = 
REMARK  11 active torsions:
REMARK  status: ('A' for Active; 'I' for Inactive)
REMARK    1  A    between atoms: C_1  and  O_2
REMARK    2  A    between atoms: O_2  and  C_3
REMARK    3  A    between atoms: C_3  and  C_4
REMARK    4  A    between atoms: C_4  and  C_5
REMARK    5  A    between atoms: C_4  and  C_16
REMARK    6  A    between atoms: C_5  and  O_6
REMARK    7  A    between atoms: O_6  and  C_7
REMARK    8  A    between atoms: C_10  and  C_11
REMARK    9  A    between atoms: C_20  and  O_21
REMARK   10  A    between atoms: O_21  and  C_22
REMARK   11  A    between atoms: N_24  and  C_25
REMARK                            x       y       z     vdW  Elec       q    Type
REMARK                         _______ _______ _______ _____ _____    ______ ____
ROOT
ATOM      1  C   UNL     1      46.030   4.903  12.713  0.00  0.00    +0.000 C 
ENDROOT
BRANCH   1   2
ATOM      2  C   UNL     1      46.527   6.353  12.629  0.00  0.00    +0.000 A 
ATOM      3  C   UNL     1      47.871   6.700  12.429  0.00  0.00    +0.000 A 
ATOM      4  C   UNL     1      48.248   8.027  12.198  0.00  0.00    +0.000 A 
ATOM      5  C   UNL     1      47.294   9.041  12.203  0.00  0.00    +0.000 A 
ATOM      6  C   UNL     1      45.963   8.729  12.454  0.00  0.00    +0.000 A 
ATOM      7  C   UNL     1      45.586   7.397  12.648  0.00  0.00    +0.000 A 
BRANCH   6   8
ATOM      8  O   UNL     1      44.938   9.636  12.482  0.00  0.00    +0.000 OA
BRANCH   8   9
ATOM      9  C   UNL     1      44.448  10.167  11.231  0.00  0.00    +0.000 C 
ATOM     10  C   UNL     1      43.516  11.398  11.276  0.00  0.00    +0.000 C 
ATOM     11  N   UNL     1      42.511  10.688  10.462  0.00  0.00    +0.000 NA
ATOM     12  C   UNL     1      42.579  11.114   9.066  0.00  0.00    +0.000 C 
ATOM     13  C   UNL     1      43.233   9.417  10.648  0.00  0.00    +0.000 C 
ENDBRANCH   8   9
ENDBRANCH   6   8
ENDBRANCH   1   2
BRANCH   1  14
ATOM     14  C   UNL     1      44.533   4.793  13.097  0.00  0.00    +0.000 C 
BRANCH  14  16
ATOM     15  C   UNL     1      43.356   3.203  11.781  0.00  0.00    +0.000 C 
ATOM     16  O   UNL     1      44.079   3.442  12.979  0.00  0.00    +0.000 OA
ENDBRANCH  14  16
ENDBRANCH   1  14
BRANCH   1  17
ATOM     17  C   UNL     1      46.852   4.001  13.663  0.00  0.00    +0.000 C 
BRANCH  17  18
ATOM     18  O   UNL     1      46.445   4.236  15.021  0.00  0.00    +0.000 OA
BRANCH  18  19
ATOM     19  C   UNL     1      47.457   4.335  15.935  0.00  0.00    +0.000 A 
ATOM     20  C   UNL     1      48.305   5.436  16.045  0.00  0.00    +0.000 A 
ATOM     21  C   UNL     1      49.277   5.468  17.046  0.00  0.00    +0.000 A 
ATOM     22  C   UNL     1      49.401   4.409  17.956  0.00  0.00    +0.000 A 
ATOM     23  C   UNL     1      48.557   3.301  17.838  0.00  0.00    +0.000 A 
ATOM     24  C   UNL     1      47.584   3.270  16.832  0.00  0.00    +0.000 A 
BRANCH  22  25
ATOM     25  C   UNL     1      50.440   4.527  19.012  0.00  0.00    +0.000 C 
ATOM     26  N   UNL     1      51.583   3.792  18.864  0.00  0.00    +0.000 N 
ATOM     27  O   UNL     1      50.265   5.213  20.009  0.00  0.00    +0.000 OA
ATOM     28  H   UNL     1      51.651   3.030  18.206  0.00  0.00    +0.000 HD
ATOM     29  H   UNL     1      52.199   3.775  19.667  0.00  0.00    +0.000 HD
ENDBRANCH  22  25
ENDBRANCH  18  19
ENDBRANCH  17  18
ENDBRANCH   1  17
TORSDOF 9
ENDMDL
