MODEL 1
REMARK VINA RESULT:    -8.449      0.000      0.000
REMARK INTER + INTRA:         -11.981
REMARK INTER:                 -11.412
REMARK INTRA:                  -0.569
REMARK UNBOUND:                -0.569
REMARK  Name = 
REMARK  7 active torsions:
REMARK  status: ('A' for Active; 'I' for Inactive)
REMARK    1  A    between atoms: C_1  and  C_2
REMARK    2  A    between atoms: C_2  and  N_3
REMARK    3  A    between atoms: C_2  and  C_16
REMARK    4  A    between atoms: C_4  and  C_6
REMARK    5  A    between atoms: C_19  and  C_20
REMARK    6  A    between atoms: C_20  and  N_21
REMARK    7  A    between atoms: C_22  and  C_24
REMARK                            x       y       z     vdW  Elec       q    Type
REMARK                         _______ _______ _______ _____ _____    ______ ____
ROOT
ATOM      1  C   UNL     1      48.032   8.912  12.427  0.00  0.00    +0.000 C 
ATOM      2  C   UNL     1      46.886   8.250  13.197  0.00  0.00    +0.000 C 
ENDROOT
BRANCH   2   3
ATOM      3  C   UNL     1      46.077   7.251  12.395  0.00  0.00    +0.000 A 
ATOM      4  C   UNL     1      46.585   6.760  11.187  0.00  0.00    +0.000 A 
ATOM      5  C   UNL     1      45.842   5.864  10.421  0.00  0.00    +0.000 A 
ATOM      6  C   UNL     1      44.580   5.486  10.865  0.00  0.00    +0.000 A 
ATOM      7  N   UNL     1      44.059   5.939  12.034  0.00  0.00    +0.000 NA
ATOM      8  C   UNL     1      44.807   6.813  12.757  0.00  0.00    +0.000 A 
BRANCH   6   9
ATOM      9  C   UNL     1      43.730   4.543  10.041  0.00  0.00    +0.000 C 
BRANCH   9  10
ATOM     10  N   UNL     1      44.441   4.003   8.900  0.00  0.00    +0.000 N 
ATOM     11  C   UNL     1      45.076   2.784   8.944  0.00  0.00    +0.000 C 
ATOM     12  O   UNL     1      45.078   2.071   9.943  0.00  0.00    +0.000 OA
ATOM     13  H   UNL     1      44.263   4.443   8.009  0.00  0.00    +0.000 HD
BRANCH  11  14
ATOM     14  C   UNL     1      45.734   2.383   7.627  0.00  0.00    +0.000 C 
ATOM     15  C   UNL     1      46.669   1.181   7.803  0.00  0.00    +0.000 C 
ATOM     16  C   UNL     1      47.338   0.837   6.479  0.00  0.00    +0.000 C 
ATOM     17  O   UNL     1      48.048   1.962   5.963  0.00  0.00    +0.000 OA
ATOM     18  C   UNL     1      47.197   3.077   5.713  0.00  0.00    +0.000 C 
ATOM     19  C   UNL     1      46.520   3.541   6.997  0.00  0.00    +0.000 C 
ENDBRANCH  11  14
ENDBRANCH   9  10
ENDBRANCH   6   9
ENDBRANCH   2   3
BRANCH   2  20
ATOM     20  N   UNL     1      47.376   7.616  14.405  0.00  0.00    +0.000 N 
ATOM     21  C   UNL     1      48.495   6.822  14.417  0.00  0.00    +0.000 C 
ATOM     22  O   UNL     1      49.181   6.636  13.416  0.00  0.00    +0.000 OA
ATOM     23  H   UNL     1      46.750   7.596  15.204  0.00  0.00    +0.000 HD
BRANCH  21  24
ATOM     24  C   UNL     1      48.872   6.255  15.716  0.00  0.00    +0.000 A 
ATOM     25  C   UNL     1      49.906   6.825  16.446  0.00  0.00    +0.000 A 
ATOM     26  S   UNL     1      50.198   6.047  17.935  0.00  0.00    +0.000 S 
ATOM     27  C   UNL     1      48.987   4.890  17.630  0.00  0.00    +0.000 A 
ATOM     28  N   UNL     1      48.742   3.885  18.512  0.00  0.00    +0.000 NA
ATOM     29  C   UNL     1      47.824   3.057  18.137  0.00  0.00    +0.000 A 
ATOM     30  N   UNL     1      47.119   3.156  16.968  0.00  0.00    +0.000 N 
ATOM     31  C   UNL     1      47.288   4.188  16.074  0.00  0.00    +0.000 A 
ATOM     32  O   UNL     1      46.569   4.307  15.084  0.00  0.00    +0.000 OA
ATOM     33  C   UNL     1      48.343   5.116  16.429  0.00  0.00    +0.000 A 
ATOM     34  H   UNL     1      46.392   2.488  16.745  0.00  0.00    +0.000 HD
ENDBRANCH  21  24
ENDBRANCH   2  20
TORSDOF 6
ENDMDL
MODEL 2
REMARK VINA RESULT:    -8.317      2.183      4.060
REMARK INTER + INTRA:         -11.804
REMARK INTER:                 -10.645
REMARK INTRA:                  -1.158
REMARK UNBOUND:                -0.569
REMARK  Name = 
REMARK  7 active torsions:
REMARK  status: ('A' for Active; 'I' for Inactive)
REMARK    1  A    between atoms: C_1  and  C_2
REMARK    2  A    between atoms: C_2  and  N_3
REMARK    3  A    between atoms: C_2  and  C_16
REMARK    4  A    between atoms: C_4  and  C_6
REMARK    5  A    between atoms: C_19  and  C_20
REMARK    6  A    between atoms: C_20  and  N_21
REMARK    7  A    between atoms: C_22  and  C_24
REMARK                            x       y       z     vdW  Elec       q    Type
REMARK                         _______ _______ _______ _____ _____    ______ ____
ROOT
ATOM      1  C   UNL     1      46.975   4.229  16.009  0.00  0.00    +0.000 C 
ATOM      2  C   UNL     1      47.419   4.885  14.699  0.00  0.00    +0.000 C 
ENDROOT
BRANCH   2   3
ATOM      3  C   UNL     1      46.451   4.715  13.545  0.00  0.00    +0.000 A 
ATOM      4  C   UNL     1      46.105   3.429  13.116  0.00  0.00    +0.000 A 
ATOM      5  C   UNL     1      45.240   3.254  12.037  0.00  0.00    +0.000 A 
ATOM      6  C   UNL     1      44.747   4.376  11.382  0.00  0.00    +0.000 A 
ATOM      7  N   UNL     1      45.059   5.638  11.775  0.00  0.00    +0.000 NA
ATOM      8  C   UNL     1      45.906   5.776  12.829  0.00  0.00    +0.000 A 
BRANCH   6   9
ATOM      9  C   UNL     1      43.836   4.223  10.184  0.00  0.00    +0.000 C 
BRANCH   9  10
ATOM     10  N   UNL     1      44.415   3.400   9.143  0.00  0.00    +0.000 N 
ATOM     11  C   UNL     1      45.388   3.873   8.294  0.00  0.00    +0.000 C 
ATOM     12  O   UNL     1      45.836   5.014   8.365  0.00  0.00    +0.000 OA
ATOM     13  H   UNL     1      44.245   2.406   9.206  0.00  0.00    +0.000 HD
BRANCH  11  14
ATOM     14  C   UNL     1      45.889   2.837   7.291  0.00  0.00    +0.000 C 
ATOM     15  C   UNL     1      46.539   1.638   7.992  0.00  0.00    +0.000 C 
ATOM     16  C   UNL     1      47.063   0.647   6.962  0.00  0.00    +0.000 C 
ATOM     17  O   UNL     1      47.985   1.278   6.075  0.00  0.00    +0.000 OA
ATOM     18  C   UNL     1      47.394   2.351   5.346  0.00  0.00    +0.000 C 
ATOM     19  C   UNL     1      46.888   3.434   6.291  0.00  0.00    +0.000 C 
ENDBRANCH  11  14
ENDBRANCH   9  10
ENDBRANCH   6   9
ENDBRANCH   2   3
BRANCH   2  20
ATOM     20  N   UNL     1      47.693   6.295  14.895  0.00  0.00    +0.000 N 
ATOM     21  C   UNL     1      48.861   6.745  15.459  0.00  0.00    +0.000 C 
ATOM     22  O   UNL     1      49.768   5.987  15.788  0.00  0.00    +0.000 OA
ATOM     23  H   UNL     1      46.911   6.936  14.805  0.00  0.00    +0.000 HD
BRANCH  21  24
ATOM     24  C   UNL     1      48.998   8.200  15.586  0.00  0.00    +0.000 A 
ATOM     25  C   UNL     1      49.240   8.766  16.829  0.00  0.00    +0.000 A 
ATOM     26  S   UNL     1      49.385  10.465  16.789  0.00  0.00    +0.000 S 
ATOM     27  C   UNL     1      49.076  10.505  15.115  0.00  0.00    +0.000 A 
ATOM     28  N   UNL     1      49.015  11.685  14.444  0.00  0.00    +0.000 NA
ATOM     29  C   UNL     1      48.736  11.571  13.187  0.00  0.00    +0.000 A 
ATOM     30  N   UNL     1      48.528  10.381  12.542  0.00  0.00    +0.000 N 
ATOM     31  C   UNL     1      48.638   9.160  13.165  0.00  0.00    +0.000 A 
ATOM     32  O   UNL     1      48.549   8.106  12.538  0.00  0.00    +0.000 OA
ATOM     33  C   UNL     1      48.904   9.240  14.588  0.00  0.00    +0.000 A 
ATOM     34  H   UNL     1      48.338  10.359  11.548  0.00  0.00    +0.000 HD
ENDBRANCH  21  24
ENDBRANCH   2  20
TORSDOF 6
ENDMDL
MODEL 3
REMARK VINA RESULT:    -8.180      2.768      3.632
REMARK INTER + INTRA:         -11.618
REMARK INTER:                 -10.657
REMARK INTRA:                  -0.962
REMARK UNBOUND:                -0.569
REMARK  Name = 
REMARK  7 active torsions:
REMARK  status: ('A' for Active; 'I' for Inactive)
REMARK    1  A    between atoms: C_1  and  C_2
REMARK    2  A    between atoms: C_2  and  N_3
REMARK    3  A    between atoms: C_2  and  C_16
REMARK    4  A    between atoms: C_4  and  C_6
REMARK    5  A    between atoms: C_19  and  C_20
REMARK    6  A    between atoms: C_20  and  N_21
REMARK    7  A    between atoms: C_22  and  C_24
REMARK                            x       y       z     vdW  Elec       q    Type
REMARK                         _______ _______ _______ _____ _____    ______ ____
ROOT
ATOM      1  C   UNL     1      47.322   3.967  16.102  0.00  0.00    +0.000 C 
ATOM      2  C   UNL     1      47.692   4.833  14.895  0.00  0.00    +0.000 C 
ENDROOT
BRANCH   2   3
ATOM      3  C   UNL     1      46.778   4.675  13.697  0.00  0.00    +0.000 A 
ATOM      4  C   UNL     1      46.400   5.804  12.962  0.00  0.00    +0.000 A 
ATOM      5  C   UNL     1      45.536   5.683  11.876  0.00  0.00    +0.000 A 
ATOM      6  C   UNL     1      45.038   4.427  11.550  0.00  0.00    +0.000 A 
ATOM      7  N   UNL     1      45.387   3.310  12.239  0.00  0.00    +0.000 NA
ATOM      8  C   UNL     1      46.230   3.462  13.294  0.00  0.00    +0.000 A 
BRANCH   6   9
ATOM      9  C   UNL     1      44.068   4.263  10.400  0.00  0.00    +0.000 C 
BRANCH   9  10
ATOM     10  N   UNL     1      44.598   3.436   9.336  0.00  0.00    +0.000 N 
ATOM     11  C   UNL     1      45.469   3.929   8.392  0.00  0.00    +0.000 C 
ATOM     12  O   UNL     1      45.860   5.092   8.390  0.00  0.00    +0.000 OA
ATOM     13  H   UNL     1      44.488   2.438   9.443  0.00  0.00    +0.000 HD
BRANCH  11  14
ATOM     14  C   UNL     1      45.935   2.885   7.379  0.00  0.00    +0.000 C 
ATOM     15  C   UNL     1      46.536   1.655   8.069  0.00  0.00    +0.000 C 
ATOM     16  C   UNL     1      47.027   0.657   7.030  0.00  0.00    +0.000 C 
ATOM     17  O   UNL     1      47.977   1.263   6.155  0.00  0.00    +0.000 OA
ATOM     18  C   UNL     1      47.431   2.366   5.436  0.00  0.00    +0.000 C 
ATOM     19  C   UNL     1      46.962   3.456   6.391  0.00  0.00    +0.000 C 
ENDBRANCH  11  14
ENDBRANCH   9  10
ENDBRANCH   6   9
ENDBRANCH   2   3
BRANCH   2  20
ATOM     20  N   UNL     1      47.764   6.232  15.267  0.00  0.00    +0.000 N 
ATOM     21  C   UNL     1      48.902   6.799  15.782  0.00  0.00    +0.000 C 
ATOM     22  O   UNL     1      49.948   6.170  15.916  0.00  0.00    +0.000 OA
ATOM     23  H   UNL     1      46.886   6.737  15.340  0.00  0.00    +0.000 HD
BRANCH  21  24
ATOM     24  C   UNL     1      48.825   8.227  16.105  0.00  0.00    +0.000 A 
ATOM     25  C   UNL     1      49.288   9.168  15.197  0.00  0.00    +0.000 A 
ATOM     26  S   UNL     1      49.107  10.778  15.730  0.00  0.00    +0.000 S 
ATOM     27  C   UNL     1      48.451  10.269  17.216  0.00  0.00    +0.000 A 
ATOM     28  N   UNL     1      48.108  11.170  18.174  0.00  0.00    +0.000 NA
ATOM     29  C   UNL     1      47.658  10.644  19.265  0.00  0.00    +0.000 A 
ATOM     30  N   UNL     1      47.507   9.299  19.476  0.00  0.00    +0.000 N 
ATOM     31  C   UNL     1      47.782   8.354  18.515  0.00  0.00    +0.000 A 
ATOM     32  O   UNL     1      47.538   7.162  18.695  0.00  0.00    +0.000 OA
ATOM     33  C   UNL     1      48.335   8.894  17.289  0.00  0.00    +0.000 A 
ATOM     34  H   UNL     1      47.123   8.953  20.345  0.00  0.00    +0.000 HD
ENDBRANCH  21  24
ENDBRANCH   2  20
TORSDOF 6
ENDMDL
MODEL 4
REMARK VINA RESULT:    -8.046      1.394      1.539
REMARK INTER + INTRA:         -11.437
REMARK INTER:                 -10.245
REMARK INTRA:                  -1.192
REMARK UNBOUND:                -0.569
REMARK  Name = 
REMARK  7 active torsions:
REMARK  status: ('A' for Active; 'I' for Inactive)
REMARK    1  A    between atoms: C_1  and  C_2
REMARK    2  A    between atoms: C_2  and  N_3
REMARK    3  A    between atoms: C_2  and  C_16
REMARK    4  A    between atoms: C_4  and  C_6
REMARK    5  A    between atoms: C_19  and  C_20
REMARK    6  A    between atoms: C_20  and  N_21
REMARK    7  A    between atoms: C_22  and  C_24
REMARK                            x       y       z     vdW  Elec       q    Type
REMARK                         _______ _______ _______ _____ _____    ______ ____
ROOT
ATOM      1  C   UNL     1      48.361   9.355  13.409  0.00  0.00    +0.000 C 
ATOM      2  C   UNL     1      47.538   8.251  14.077  0.00  0.00    +0.000 C 
ENDROOT
BRANCH   2   3
ATOM      3  C   UNL     1      46.615   7.495  13.143  0.00  0.00    +0.000 A 
ATOM      4  C   UNL     1      45.571   8.173  12.505  0.00  0.00    +0.000 A 
ATOM      5  C   UNL     1      44.693   7.489  11.666  0.00  0.00    +0.000 A 
ATOM      6  C   UNL     1      44.858   6.119  11.494  0.00  0.00    +0.000 A 
ATOM      7  N   UNL     1      45.863   5.432  12.095  0.00  0.00    +0.000 NA
ATOM      8  C   UNL     1      46.701   6.127  12.908  0.00  0.00    +0.000 A 
BRANCH   6   9
ATOM      9  C   UNL     1      43.902   5.338  10.621  0.00  0.00    +0.000 C 
BRANCH   9  10
ATOM     10  N   UNL     1      44.569   4.659   9.529  0.00  0.00    +0.000 N 
ATOM     11  C   UNL     1      44.505   3.294   9.369  0.00  0.00    +0.000 C 
ATOM     12  O   UNL     1      43.875   2.564  10.128  0.00  0.00    +0.000 OA
ATOM     13  H   UNL     1      44.892   5.239   8.767  0.00  0.00    +0.000 HD
BRANCH  11  14
ATOM     14  C   UNL     1      45.247   2.783   8.137  0.00  0.00    +0.000 C 
ATOM     15  C   UNL     1      46.098   1.549   8.460  0.00  0.00    +0.000 C 
ATOM     16  C   UNL     1      46.855   1.093   7.220  0.00  0.00    +0.000 C 
ATOM     17  O   UNL     1      47.664   2.149   6.704  0.00  0.00    +0.000 OA
ATOM     18  C   UNL     1      46.898   3.287   6.319  0.00  0.00    +0.000 C 
ATOM     19  C   UNL     1      46.144   3.860   7.512  0.00  0.00    +0.000 C 
ENDBRANCH  11  14
ENDBRANCH   9  10
ENDBRANCH   6   9
ENDBRANCH   2   3
BRANCH   2  20
ATOM     20  N   UNL     1      48.402   7.312  14.767  0.00  0.00    +0.000 N 
ATOM     21  C   UNL     1      48.790   7.490  16.071  0.00  0.00    +0.000 C 
ATOM     22  O   UNL     1      48.393   8.431  16.752  0.00  0.00    +0.000 OA
ATOM     23  H   UNL     1      48.889   6.627  14.198  0.00  0.00    +0.000 HD
BRANCH  21  24
ATOM     24  C   UNL     1      49.658   6.452  16.635  0.00  0.00    +0.000 A 
ATOM     25  C   UNL     1      50.947   6.772  17.037  0.00  0.00    +0.000 A 
ATOM     26  S   UNL     1      51.809   5.448  17.680  0.00  0.00    +0.000 S 
ATOM     27  C   UNL     1      50.505   4.391  17.395  0.00  0.00    +0.000 A 
ATOM     28  N   UNL     1      50.601   3.067  17.687  0.00  0.00    +0.000 NA
ATOM     29  C   UNL     1      49.552   2.376  17.385  0.00  0.00    +0.000 A 
ATOM     30  N   UNL     1      48.412   2.895  16.831  0.00  0.00    +0.000 N 
ATOM     31  C   UNL     1      48.246   4.236  16.574  0.00  0.00    +0.000 A 
ATOM     32  O   UNL     1      47.174   4.687  16.174  0.00  0.00    +0.000 OA
ATOM     33  C   UNL     1      49.415   5.045  16.853  0.00  0.00    +0.000 A 
ATOM     34  H   UNL     1      47.614   2.302  16.642  0.00  0.00    +0.000 HD
ENDBRANCH  21  24
ENDBRANCH   2  20
TORSDOF 6
ENDMDL
MODEL 5
REMARK VINA RESULT:    -7.783      2.853      4.089
REMARK INTER + INTRA:         -11.082
REMARK INTER:                  -9.925
REMARK INTRA:                  -1.157
REMARK UNBOUND:                -0.569
REMARK  Name = 
REMARK  7 active torsions:
REMARK  status: ('A' for Active; 'I' for Inactive)
REMARK    1  A    between atoms: C_1  and  C_2
REMARK    2  A    between atoms: C_2  and  N_3
REMARK    3  A    between atoms: C_2  and  C_16
REMARK    4  A    between atoms: C_4  and  C_6
REMARK    5  A    between atoms: C_19  and  C_20
REMARK    6  A    between atoms: C_20  and  N_21
REMARK    7  A    between atoms: C_22  and  C_24
REMARK                            x       y       z     vdW  Elec       q    Type
REMARK                         _______ _______ _______ _____ _____    ______ ____
ROOT
ATOM      1  C   UNL     1      47.442   3.460  16.607  0.00  0.00    +0.000 C 
ATOM      2  C   UNL     1      47.902   4.794  16.014  0.00  0.00    +0.000 C 
ENDROOT
BRANCH   2   3
ATOM      3  C   UNL     1      47.282   5.141  14.676  0.00  0.00    +0.000 A 
ATOM      4  C   UNL     1      47.801   6.203  13.927  0.00  0.00    +0.000 A 
ATOM      5  C   UNL     1      47.225   6.555  12.708  0.00  0.00    +0.000 A 
ATOM      6  C   UNL     1      46.113   5.851  12.262  0.00  0.00    +0.000 A 
ATOM      7  N   UNL     1      45.587   4.813  12.961  0.00  0.00    +0.000 NA
ATOM      8  C   UNL     1      46.170   4.495  14.146  0.00  0.00    +0.000 A 
BRANCH   6   9
ATOM      9  C   UNL     1      45.439   6.230  10.961  0.00  0.00    +0.000 C 
BRANCH   9  10
ATOM     10  N   UNL     1      45.716   5.291   9.894  0.00  0.00    +0.000 N 
ATOM     11  C   UNL     1      44.835   4.291   9.552  0.00  0.00    +0.000 C 
ATOM     12  O   UNL     1      43.757   4.133  10.118  0.00  0.00    +0.000 OA
ATOM     13  H   UNL     1      46.468   5.533   9.264  0.00  0.00    +0.000 HD
BRANCH  11  14
ATOM     14  C   UNL     1      45.300   3.433   8.378  0.00  0.00    +0.000 C 
ATOM     15  C   UNL     1      45.815   2.066   8.845  0.00  0.00    +0.000 C 
ATOM     16  C   UNL     1      46.308   1.256   7.654  0.00  0.00    +0.000 C 
ATOM     17  O   UNL     1      47.321   1.966   6.943  0.00  0.00    +0.000 OA
ATOM     18  C   UNL     1      46.856   3.210   6.426  0.00  0.00    +0.000 C 
ATOM     19  C   UNL     1      46.393   4.125   7.553  0.00  0.00    +0.000 C 
ENDBRANCH  11  14
ENDBRANCH   9  10
ENDBRANCH   6   9
ENDBRANCH   2   3
BRANCH   2  20
ATOM     20  N   UNL     1      47.672   5.879  16.948  0.00  0.00    +0.000 N 
ATOM     21  C   UNL     1      48.580   6.218  17.919  0.00  0.00    +0.000 C 
ATOM     22  O   UNL     1      49.666   5.658  18.030  0.00  0.00    +0.000 OA
ATOM     23  H   UNL     1      46.727   6.246  17.008  0.00  0.00    +0.000 HD
BRANCH  21  24
ATOM     24  C   UNL     1      48.210   7.343  18.785  0.00  0.00    +0.000 A 
ATOM     25  C   UNL     1      47.995   7.132  20.140  0.00  0.00    +0.000 A 
ATOM     26  S   UNL     1      47.588   8.550  20.995  0.00  0.00    +0.000 S 
ATOM     27  C   UNL     1      47.634   9.485  19.573  0.00  0.00    +0.000 A 
ATOM     28  N   UNL     1      47.335  10.811  19.598  0.00  0.00    +0.000 NA
ATOM     29  C   UNL     1      47.373  11.389  18.443  0.00  0.00    +0.000 A 
ATOM     30  N   UNL     1      47.697  10.762  17.270  0.00  0.00    +0.000 N 
ATOM     31  C   UNL     1      48.066   9.438  17.204  0.00  0.00    +0.000 A 
ATOM     32  O   UNL     1      48.453   8.929  16.154  0.00  0.00    +0.000 OA
ATOM     33  C   UNL     1      47.992   8.735  18.470  0.00  0.00    +0.000 A 
ATOM     34  H   UNL     1      47.734  11.279  16.401  0.00  0.00    +0.000 HD
ENDBRANCH  21  24
ENDBRANCH   2  20
TORSDOF 6
ENDMDL
MODEL 6
REMARK VINA RESULT:    -7.408      4.271      6.950
REMARK INTER + INTRA:         -10.575
REMARK INTER:                  -9.490
REMARK INTRA:                  -1.086
REMARK UNBOUND:                -0.569
REMARK  Name = 
REMARK  7 active torsions:
REMARK  status: ('A' for Active; 'I' for Inactive)
REMARK    1  A    between atoms: C_1  and  C_2
REMARK    2  A    between atoms: C_2  and  N_3
REMARK    3  A    between atoms: C_2  and  C_16
REMARK    4  A    between atoms: C_4  and  C_6
REMARK    5  A    between atoms: C_19  and  C_20
REMARK    6  A    between atoms: C_20  and  N_21
REMARK    7  A    between atoms: C_22  and  C_24
REMARK                            x       y       z     vdW  Elec       q    Type
REMARK                         _______ _______ _______ _____ _____    ______ ____
ROOT
ATOM      1  C   UNL     1      44.542   4.303  12.941  0.00  0.00    +0.000 C 
ATOM      2  C   UNL     1      45.766   5.222  12.960  0.00  0.00    +0.000 C 
ENDROOT
BRANCH   2   3
ATOM      3  C   UNL     1      45.493   6.650  12.535  0.00  0.00    +0.000 A 
ATOM      4  C   UNL     1      46.150   7.702  13.183  0.00  0.00    +0.000 A 
ATOM      5  C   UNL     1      45.889   9.024  12.827  0.00  0.00    +0.000 A 
ATOM      6  C   UNL     1      44.950   9.279  11.835  0.00  0.00    +0.000 A 
ATOM      7  N   UNL     1      44.298   8.283  11.183  0.00  0.00    +0.000 NA
ATOM      8  C   UNL     1      44.573   7.005  11.554  0.00  0.00    +0.000 A 
BRANCH   6   9
ATOM      9  C   UNL     1      44.614  10.703  11.449  0.00  0.00    +0.000 C 
BRANCH   9  10
ATOM     10  N   UNL     1      43.222  11.031  11.676  0.00  0.00    +0.000 N 
ATOM     11  C   UNL     1      42.315  11.127  10.646  0.00  0.00    +0.000 C 
ATOM     12  O   UNL     1      42.619  10.934   9.473  0.00  0.00    +0.000 OA
ATOM     13  H   UNL     1      42.892  10.963  12.629  0.00  0.00    +0.000 HD
BRANCH  11  14
ATOM     14  C   UNL     1      40.894  11.447  11.103  0.00  0.00    +0.000 C 
ATOM     15  C   UNL     1      40.855  11.876  12.574  0.00  0.00    +0.000 C 
ATOM     16  C   UNL     1      39.420  12.146  13.005  0.00  0.00    +0.000 C 
ATOM     17  O   UNL     1      38.602  10.998  12.789  0.00  0.00    +0.000 OA
ATOM     18  C   UNL     1      38.551  10.614  11.417  0.00  0.00    +0.000 C 
ATOM     19  C   UNL     1      39.941  10.261  10.902  0.00  0.00    +0.000 C 
ENDBRANCH  11  14
ENDBRANCH   9  10
ENDBRANCH   6   9
ENDBRANCH   2   3
BRANCH   2  20
ATOM     20  N   UNL     1      46.393   5.218  14.267  0.00  0.00    +0.000 N 
ATOM     21  C   UNL     1      47.128   4.154  14.727  0.00  0.00    +0.000 C 
ATOM     22  O   UNL     1      47.343   3.158  14.043  0.00  0.00    +0.000 OA
ATOM     23  H   UNL     1      46.098   5.933  14.924  0.00  0.00    +0.000 HD
BRANCH  21  24
ATOM     24  C   UNL     1      47.707   4.300  16.066  0.00  0.00    +0.000 A 
ATOM     25  C   UNL     1      47.369   3.401  17.068  0.00  0.00    +0.000 A 
ATOM     26  S   UNL     1      48.144   3.713  18.555  0.00  0.00    +0.000 S 
ATOM     27  C   UNL     1      48.919   5.091  17.923  0.00  0.00    +0.000 A 
ATOM     28  N   UNL     1      49.719   5.863  18.705  0.00  0.00    +0.000 NA
ATOM     29  C   UNL     1      50.212   6.897  18.108  0.00  0.00    +0.000 A 
ATOM     30  N   UNL     1      49.986   7.219  16.796  0.00  0.00    +0.000 N 
ATOM     31  C   UNL     1      49.234   6.437  15.951  0.00  0.00    +0.000 A 
ATOM     32  O   UNL     1      49.135   6.694  14.752  0.00  0.00    +0.000 OA
ATOM     33  C   UNL     1      48.621   5.289  16.589  0.00  0.00    +0.000 A 
ATOM     34  H   UNL     1      50.424   8.031  16.381  0.00  0.00    +0.000 HD
ENDBRANCH  21  24
ENDBRANCH   2  20
TORSDOF 6
ENDMDL
MODEL 7
REMARK VINA RESULT:    -7.267      2.584      4.772
REMARK INTER + INTRA:         -10.385
REMARK INTER:                  -9.724
REMARK INTRA:                  -0.661
REMARK UNBOUND:                -0.569
REMARK  Name = 
REMARK  7 active torsions:
REMARK  status: ('A' for Active; 'I' for Inactive)
REMARK    1  A    between atoms: C_1  and  C_2
REMARK    2  A    between atoms: C_2  and  N_3
REMARK    3  A    between atoms: C_2  and  C_16
REMARK    4  A    between atoms: C_4  and  C_6
REMARK    5  A    between atoms: C_19  and  C_20
REMARK    6  A    between atoms: C_20  and  N_21
REMARK    7  A    between atoms: C_22  and  C_24
REMARK                            x       y       z     vdW  Elec       q    Type
REMARK                         _______ _______ _______ _____ _____    ______ ____
ROOT
ATOM      1  C   UNL     1      48.095   5.688  16.391  0.00  0.00    +0.000 C 
ATOM      2  C   UNL     1      48.272   5.978  14.899  0.00  0.00    +0.000 C 
ENDROOT
BRANCH   2   3
ATOM      3  C   UNL     1      47.306   5.244  13.991  0.00  0.00    +0.000 A 
ATOM      4  C   UNL     1      46.509   5.969  13.098  0.00  0.00    +0.000 A 
ATOM      5  C   UNL     1      45.593   5.314  12.278  0.00  0.00    +0.000 A 
ATOM      6  C   UNL     1      45.468   3.934  12.378  0.00  0.00    +0.000 A 
ATOM      7  N   UNL     1      46.228   3.199  13.230  0.00  0.00    +0.000 NA
ATOM      8  C   UNL     1      47.111   3.867  14.018  0.00  0.00    +0.000 A 
BRANCH   6   9
ATOM      9  C   UNL     1      44.458   3.194  11.529  0.00  0.00    +0.000 C 
BRANCH   9  10
ATOM     10  N   UNL     1      45.025   2.693  10.294  0.00  0.00    +0.000 N 
ATOM     11  C   UNL     1      44.819   3.320   9.087  0.00  0.00    +0.000 C 
ATOM     12  O   UNL     1      44.152   4.344   8.975  0.00  0.00    +0.000 OA
ATOM     13  H   UNL     1      45.759   2.004  10.382  0.00  0.00    +0.000 HD
BRANCH  11  14
ATOM     14  C   UNL     1      45.533   2.652   7.915  0.00  0.00    +0.000 C 
ATOM     15  C   UNL     1      46.244   1.363   8.345  0.00  0.00    +0.000 C 
ATOM     16  C   UNL     1      46.979   0.748   7.161  0.00  0.00    +0.000 C 
ATOM     17  O   UNL     1      47.905   1.677   6.602  0.00  0.00    +0.000 OA
ATOM     18  C   UNL     1      47.270   2.858   6.119  0.00  0.00    +0.000 C 
ATOM     19  C   UNL     1      46.551   3.586   7.248  0.00  0.00    +0.000 C 
ENDBRANCH  11  14
ENDBRANCH   9  10
ENDBRANCH   6   9
ENDBRANCH   2   3
BRANCH   2  20
ATOM     20  N   UNL     1      48.193   7.402  14.638  0.00  0.00    +0.000 N 
ATOM     21  C   UNL     1      48.999   8.028  13.722  0.00  0.00    +0.000 C 
ATOM     22  O   UNL     1      49.807   7.416  13.029  0.00  0.00    +0.000 OA
ATOM     23  H   UNL     1      47.674   7.966  15.304  0.00  0.00    +0.000 HD
BRANCH  21  24
ATOM     24  C   UNL     1      48.798   9.472  13.563  0.00  0.00    +0.000 A 
ATOM     25  C   UNL     1      49.646  10.364  14.204  0.00  0.00    +0.000 A 
ATOM     26  S   UNL     1      49.273  12.000  13.897  0.00  0.00    +0.000 S 
ATOM     27  C   UNL     1      47.933  11.571  12.938  0.00  0.00    +0.000 A 
ATOM     28  N   UNL     1      47.134  12.522  12.388  0.00  0.00    +0.000 NA
ATOM     29  C   UNL     1      46.133  12.056  11.717  0.00  0.00    +0.000 A 
ATOM     30  N   UNL     1      45.871  10.725  11.536  0.00  0.00    +0.000 N 
ATOM     31  C   UNL     1      46.683   9.727  12.021  0.00  0.00    +0.000 A 
ATOM     32  O   UNL     1      46.481   8.544  11.755  0.00  0.00    +0.000 OA
ATOM     33  C   UNL     1      47.795  10.201  12.823  0.00  0.00    +0.000 A 
ATOM     34  H   UNL     1      45.083  10.425  10.976  0.00  0.00    +0.000 HD
ENDBRANCH  21  24
ENDBRANCH   2  20
TORSDOF 6
ENDMDL
MODEL 8
REMARK VINA RESULT:    -7.160      2.275      2.795
REMARK INTER + INTRA:         -10.240
REMARK INTER:                  -9.230
REMARK INTRA:                  -1.009
REMARK UNBOUND:                -0.569
REMARK  Name = 
REMARK  7 active torsions:
REMARK  status: ('A' for Active; 'I' for Inactive)
REMARK    1  A    between atoms: C_1  and  C_2
REMARK    2  A    between atoms: C_2  and  N_3
REMARK    3  A    between atoms: C_2  and  C_16
REMARK    4  A    between atoms: C_4  and  C_6
REMARK    5  A    between atoms: C_19  and  C_20
REMARK    6  A    between atoms: C_20  and  N_21
REMARK    7  A    between atoms: C_22  and  C_24
REMARK                            x       y       z     vdW  Elec       q    Type
REMARK                         _______ _______ _______ _____ _____    ______ ____
ROOT
ATOM      1  C   UNL     1      50.242   8.294  13.516  0.00  0.00    +0.000 C 
ATOM      2  C   UNL     1      48.878   8.347  14.208  0.00  0.00    +0.000 C 
ENDROOT
BRANCH   2   3
ATOM      3  C   UNL     1      47.724   7.824  13.376  0.00  0.00    +0.000 A 
ATOM      4  C   UNL     1      46.519   8.534  13.340  0.00  0.00    +0.000 A 
ATOM      5  C   UNL     1      45.437   8.052  12.606  0.00  0.00    +0.000 A 
ATOM      6  C   UNL     1      45.568   6.845  11.930  0.00  0.00    +0.000 A 
ATOM      7  N   UNL     1      46.724   6.133  11.940  0.00  0.00    +0.000 NA
ATOM      8  C   UNL     1      47.760   6.628  12.666  0.00  0.00    +0.000 A 
BRANCH   6   9
ATOM      9  C   UNL     1      44.403   6.274  11.152  0.00  0.00    +0.000 C 
BRANCH   9  10
ATOM     10  N   UNL     1      44.820   5.354  10.114  0.00  0.00    +0.000 N 
ATOM     11  C   UNL     1      44.209   4.136   9.927  0.00  0.00    +0.000 C 
ATOM     12  O   UNL     1      43.269   3.751  10.616  0.00  0.00    +0.000 OA
ATOM     13  H   UNL     1      45.420   5.730   9.393  0.00  0.00    +0.000 HD
BRANCH  11  14
ATOM     14  C   UNL     1      44.776   3.335   8.758  0.00  0.00    +0.000 C 
ATOM     15  C   UNL     1      45.429   2.030   9.230  0.00  0.00    +0.000 C 
ATOM     16  C   UNL     1      46.019   1.278   8.044  0.00  0.00    +0.000 C 
ATOM     17  O   UNL     1      46.958   2.093   7.345  0.00  0.00    +0.000 OA
ATOM     18  C   UNL     1      46.369   3.282   6.824  0.00  0.00    +0.000 C 
ATOM     19  C   UNL     1      45.798   4.140   7.946  0.00  0.00    +0.000 C 
ENDBRANCH  11  14
ENDBRANCH   9  10
ENDBRANCH   6   9
ENDBRANCH   2   3
BRANCH   2  20
ATOM     20  N   UNL     1      48.916   7.645  15.476  0.00  0.00    +0.000 N 
ATOM     21  C   UNL     1      48.702   8.278  16.674  0.00  0.00    +0.000 C 
ATOM     22  O   UNL     1      48.416   9.469  16.747  0.00  0.00    +0.000 OA
ATOM     23  H   UNL     1      49.319   6.713  15.477  0.00  0.00    +0.000 HD
BRANCH  21  24
ATOM     24  C   UNL     1      48.766   7.434  17.872  0.00  0.00    +0.000 A 
ATOM     25  C   UNL     1      47.870   7.638  18.911  0.00  0.00    +0.000 A 
ATOM     26  S   UNL     1      48.080   6.560  20.215  0.00  0.00    +0.000 S 
ATOM     27  C   UNL     1      49.411   5.817  19.457  0.00  0.00    +0.000 A 
ATOM     28  N   UNL     1      50.098   4.818  20.070  0.00  0.00    +0.000 NA
ATOM     29  C   UNL     1      51.107   4.372  19.398  0.00  0.00    +0.000 A 
ATOM     30  N   UNL     1      51.480   4.827  18.162  0.00  0.00    +0.000 N 
ATOM     31  C   UNL     1      50.782   5.793  17.476  0.00  0.00    +0.000 A 
ATOM     32  O   UNL     1      51.078   6.108  16.325  0.00  0.00    +0.000 OA
ATOM     33  C   UNL     1      49.667   6.358  18.211  0.00  0.00    +0.000 A 
ATOM     34  H   UNL     1      52.267   4.416  17.676  0.00  0.00    +0.000 HD
ENDBRANCH  21  24
ENDBRANCH   2  20
TORSDOF 6
ENDMDL
MODEL 9
REMARK VINA RESULT:    -6.832      4.423      6.861
REMARK INTER + INTRA:          -9.798
REMARK INTER:                  -8.717
REMARK INTRA:                  -1.080
REMARK UNBOUND:                -0.569
REMARK  Name = 
REMARK  7 active torsions:
REMARK  status: ('A' for Active; 'I' for Inactive)
REMARK    1  A    between atoms: C_1  and  C_2
REMARK    2  A    between atoms: C_2  and  N_3
REMARK    3  A    between atoms: C_2  and  C_16
REMARK    4  A    between atoms: C_4  and  C_6
REMARK    5  A    between atoms: C_19  and  C_20
REMARK    6  A    between atoms: C_20  and  N_21
REMARK    7  A    between atoms: C_22  and  C_24
REMARK                            x       y       z     vdW  Elec       q    Type
REMARK                         _______ _______ _______ _____ _____    ______ ____
ROOT
ATOM      1  C   UNL     1      45.032   4.848  12.711  0.00  0.00    +0.000 C 
ATOM      2  C   UNL     1      46.078   5.965  12.760  0.00  0.00    +0.000 C 
ENDROOT
BRANCH   2   3
ATOM      3  C   UNL     1      45.555   7.340  12.401  0.00  0.00    +0.000 A 
ATOM      4  C   UNL     1      44.540   7.467  11.447  0.00  0.00    +0.000 A 
ATOM      5  C   UNL     1      44.067   8.726  11.082  0.00  0.00    +0.000 A 
ATOM      6  C   UNL     1      44.637   9.853  11.664  0.00  0.00    +0.000 A 
ATOM      7  N   UNL     1      45.620   9.765  12.597  0.00  0.00    +0.000 NA
ATOM      8  C   UNL     1      46.060   8.524  12.930  0.00  0.00    +0.000 A 
BRANCH   6   9
ATOM      9  C   UNL     1      44.174  11.237  11.265  0.00  0.00    +0.000 C 
BRANCH   9  10
ATOM     10  N   UNL     1      42.778  11.470  11.575  0.00  0.00    +0.000 N 
ATOM     11  C   UNL     1      41.797  11.416  10.612  0.00  0.00    +0.000 C 
ATOM     12  O   UNL     1      42.033  11.160   9.435  0.00  0.00    +0.000 OA
ATOM     13  H   UNL     1      42.523  11.449  12.552  0.00  0.00    +0.000 HD
BRANCH  11  14
ATOM     14  C   UNL     1      40.389  11.657  11.153  0.00  0.00    +0.000 C 
ATOM     15  C   UNL     1      40.403  11.952  12.657  0.00  0.00    +0.000 C 
ATOM     16  C   UNL     1      38.982  12.145  13.168  0.00  0.00    +0.000 C 
ATOM     17  O   UNL     1      38.180  11.000  12.881  0.00  0.00    +0.000 OA
ATOM     18  C   UNL     1      38.080  10.739  11.484  0.00  0.00    +0.000 C 
ATOM     19  C   UNL     1      39.455  10.470  10.884  0.00  0.00    +0.000 C 
ENDBRANCH  11  14
ENDBRANCH   9  10
ENDBRANCH   6   9
ENDBRANCH   2   3
BRANCH   2  20
ATOM     20  N   UNL     1      46.717   6.015  14.061  0.00  0.00    +0.000 N 
ATOM     21  C   UNL     1      48.080   6.069  14.210  0.00  0.00    +0.000 C 
ATOM     22  O   UNL     1      48.845   6.128  13.251  0.00  0.00    +0.000 OA
ATOM     23  H   UNL     1      46.142   5.791  14.868  0.00  0.00    +0.000 HD
BRANCH  21  24
ATOM     24  C   UNL     1      48.578   6.123  15.588  0.00  0.00    +0.000 A 
ATOM     25  C   UNL     1      49.409   7.161  15.983  0.00  0.00    +0.000 A 
ATOM     26  S   UNL     1      49.881   7.072  17.620  0.00  0.00    +0.000 S 
ATOM     27  C   UNL     1      49.031   5.613  17.841  0.00  0.00    +0.000 A 
ATOM     28  N   UNL     1      49.056   4.964  19.035  0.00  0.00    +0.000 NA
ATOM     29  C   UNL     1      48.400   3.851  19.051  0.00  0.00    +0.000 A 
ATOM     30  N   UNL     1      47.710   3.340  17.985  0.00  0.00    +0.000 N 
ATOM     31  C   UNL     1      47.606   3.989  16.777  0.00  0.00    +0.000 A 
ATOM     32  O   UNL     1      46.895   3.557  15.871  0.00  0.00    +0.000 OA
ATOM     33  C   UNL     1      48.367   5.221  16.695  0.00  0.00    +0.000 A 
ATOM     34  H   UNL     1      47.194   2.474  18.071  0.00  0.00    +0.000 HD
ENDBRANCH  21  24
ENDBRANCH   2  20
TORSDOF 6
ENDMDL
