MODEL 1
REMARK VINA RESULT:    -7.380      0.000      0.000
REMARK INTER + INTRA:          -9.678
REMARK INTER:                  -9.105
REMARK INTRA:                  -0.572
REMARK UNBOUND:                -0.572
REMARK  Name = 
REMARK  4 active torsions:
REMARK  status: ('A' for Active; 'I' for Inactive)
REMARK    1  A    between atoms: C_5  and  C_6
REMARK    2  A    between atoms: C_6  and  C_7
REMARK    3  A    between atoms: C_7  and  C_8
REMARK    4  A    between atoms: C_12  and  N_13
REMARK                            x       y       z     vdW  Elec       q    Type
REMARK                         _______ _______ _______ _____ _____    ______ ____
ROOT
ATOM      1  C   UNL     1      44.273   4.633  10.420  0.00  0.00    +0.000 A 
ATOM      2  C   UNL     1      43.106   4.870  11.134  0.00  0.00    +0.000 A 
ATOM      3  N   UNL     1      43.065   5.157  12.450  0.00  0.00    +0.000 NA
ATOM      4  C   UNL     1      44.256   5.189  13.096  0.00  0.00    +0.000 A 
ATOM      5  C   UNL     1      45.508   4.949  12.522  0.00  0.00    +0.000 A 
ATOM      6  C   UNL     1      45.475   4.670  11.149  0.00  0.00    +0.000 A 
ENDROOT
BRANCH   5   7
ATOM      7  N   UNL     1      46.678   4.951  13.246  0.00  0.00    +0.000 N 
ATOM      8  C   UNL     1      47.007   3.943  14.265  0.00  0.00    +0.000 C 
ATOM      9  C   UNL     1      47.410   4.646  15.570  0.00  0.00    +0.000 C 
ATOM     10  O   UNL     1      48.484   5.578  15.358  0.00  0.00    +0.000 OA
ATOM     11  C   UNL     1      48.096   6.580  14.402  0.00  0.00    +0.000 C 
ATOM     12  C   UNL     1      47.730   5.959  13.042  0.00  0.00    +0.000 C 
ENDBRANCH   5   7
BRANCH   1  13
ATOM     13  C   UNL     1      44.289   4.259   8.956  0.00  0.00    +0.000 C 
BRANCH  13  14
ATOM     14  C   UNL     1      45.656   4.388   8.270  0.00  0.00    +0.000 C 
BRANCH  14  19
ATOM     15  C   UNL     1      47.537   1.773   6.247  0.00  0.00    +0.000 A 
ATOM     16  C   UNL     1      47.205   0.649   6.986  0.00  0.00    +0.000 A 
ATOM     17  N   UNL     1      46.397   0.676   8.066  0.00  0.00    +0.000 NA
ATOM     18  C   UNL     1      45.914   1.884   8.436  0.00  0.00    +0.000 A 
ATOM     19  C   UNL     1      46.197   3.074   7.773  0.00  0.00    +0.000 A 
ATOM     20  C   UNL     1      47.019   3.002   6.647  0.00  0.00    +0.000 A 
ENDBRANCH  14  19
ENDBRANCH  13  14
ENDBRANCH   1  13
TORSDOF 4
ENDMDL
MODEL 2
REMARK VINA RESULT:    -7.338      2.064      2.628
REMARK INTER + INTRA:          -9.626
REMARK INTER:                  -9.048
REMARK INTRA:                  -0.578
REMARK UNBOUND:                -0.572
REMARK  Name = 
REMARK  4 active torsions:
REMARK  status: ('A' for Active; 'I' for Inactive)
REMARK    1  A    between atoms: C_5  and  C_6
REMARK    2  A    between atoms: C_6  and  C_7
REMARK    3  A    between atoms: C_7  and  C_8
REMARK    4  A    between atoms: C_12  and  N_13
REMARK                            x       y       z     vdW  Elec       q    Type
REMARK                         _______ _______ _______ _____ _____    ______ ____
ROOT
ATOM      1  C   UNL     1      44.875   4.203  11.194  0.00  0.00    +0.000 A 
ATOM      2  C   UNL     1      45.197   3.270  12.169  0.00  0.00    +0.000 A 
ATOM      3  N   UNL     1      45.846   3.560  13.314  0.00  0.00    +0.000 NA
ATOM      4  C   UNL     1      46.214   4.854  13.485  0.00  0.00    +0.000 A 
ATOM      5  C   UNL     1      45.983   5.898  12.586  0.00  0.00    +0.000 A 
ATOM      6  C   UNL     1      45.292   5.526  11.424  0.00  0.00    +0.000 A 
ENDROOT
BRANCH   5   7
ATOM      7  N   UNL     1      46.424   7.184  12.800  0.00  0.00    +0.000 N 
ATOM      8  C   UNL     1      45.526   8.342  12.926  0.00  0.00    +0.000 C 
ATOM      9  C   UNL     1      45.978   9.450  11.962  0.00  0.00    +0.000 C 
ATOM     10  O   UNL     1      47.356   9.802  12.172  0.00  0.00    +0.000 OA
ATOM     11  C   UNL     1      48.202   8.655  11.978  0.00  0.00    +0.000 C 
ATOM     12  C   UNL     1      47.849   7.515  12.950  0.00  0.00    +0.000 C 
ENDBRANCH   5   7
BRANCH   1  13
ATOM     13  C   UNL     1      44.195   3.842   9.893  0.00  0.00    +0.000 C 
BRANCH  13  14
ATOM     14  C   UNL     1      44.958   4.256   8.627  0.00  0.00    +0.000 C 
BRANCH  14  19
ATOM     15  C   UNL     1      47.596   2.373   6.636  0.00  0.00    +0.000 A 
ATOM     16  C   UNL     1      47.393   1.105   7.155  0.00  0.00    +0.000 A 
ATOM     17  N   UNL     1      46.449   0.815   8.075  0.00  0.00    +0.000 NA
ATOM     18  C   UNL     1      45.686   1.844   8.510  0.00  0.00    +0.000 A 
ATOM     19  C   UNL     1      45.817   3.156   8.065  0.00  0.00    +0.000 A 
ATOM     20  C   UNL     1      46.790   3.411   7.097  0.00  0.00    +0.000 A 
ENDBRANCH  14  19
ENDBRANCH  13  14
ENDBRANCH   1  13
TORSDOF 4
ENDMDL
MODEL 3
REMARK VINA RESULT:    -6.885      1.590      2.380
REMARK INTER + INTRA:          -9.068
REMARK INTER:                  -8.426
REMARK INTRA:                  -0.642
REMARK UNBOUND:                -0.572
REMARK  Name = 
REMARK  4 active torsions:
REMARK  status: ('A' for Active; 'I' for Inactive)
REMARK    1  A    between atoms: C_5  and  C_6
REMARK    2  A    between atoms: C_6  and  C_7
REMARK    3  A    between atoms: C_7  and  C_8
REMARK    4  A    between atoms: C_12  and  N_13
REMARK                            x       y       z     vdW  Elec       q    Type
REMARK                         _______ _______ _______ _____ _____    ______ ____
ROOT
ATOM      1  C   UNL     1      45.112   4.705  11.123  0.00  0.00    +0.000 A 
ATOM      2  C   UNL     1      44.911   3.814  12.168  0.00  0.00    +0.000 A 
ATOM      3  N   UNL     1      45.488   3.922  13.380  0.00  0.00    +0.000 NA
ATOM      4  C   UNL     1      46.332   4.970  13.554  0.00  0.00    +0.000 A 
ATOM      5  C   UNL     1      46.652   5.933  12.593  0.00  0.00    +0.000 A 
ATOM      6  C   UNL     1      46.005   5.765  11.361  0.00  0.00    +0.000 A 
ENDROOT
BRANCH   5   7
ATOM      7  N   UNL     1      47.554   6.947  12.819  0.00  0.00    +0.000 N 
ATOM      8  C   UNL     1      48.033   7.859  11.770  0.00  0.00    +0.000 C 
ATOM      9  C   UNL     1      49.568   7.890  11.778  0.00  0.00    +0.000 C 
ATOM     10  O   UNL     1      50.082   8.234  13.076  0.00  0.00    +0.000 OA
ATOM     11  C   UNL     1      49.640   7.282  14.059  0.00  0.00    +0.000 C 
ATOM     12  C   UNL     1      48.104   7.231  14.154  0.00  0.00    +0.000 C 
ENDBRANCH   5   7
BRANCH   1  13
ATOM     13  C   UNL     1      44.496   4.531   9.754  0.00  0.00    +0.000 C 
BRANCH  13  14
ATOM     14  C   UNL     1      44.323   3.075   9.301  0.00  0.00    +0.000 C 
BRANCH  14  19
ATOM     15  C   UNL     1      47.241   2.960   6.863  0.00  0.00    +0.000 A 
ATOM     16  C   UNL     1      47.556   1.616   6.968  0.00  0.00    +0.000 A 
ATOM     17  N   UNL     1      46.876   0.746   7.744  0.00  0.00    +0.000 NA
ATOM     18  C   UNL     1      45.846   1.247   8.462  0.00  0.00    +0.000 A 
ATOM     19  C   UNL     1      45.455   2.582   8.441  0.00  0.00    +0.000 A 
ATOM     20  C   UNL     1      46.170   3.446   7.608  0.00  0.00    +0.000 A 
ENDBRANCH  14  19
ENDBRANCH  13  14
ENDBRANCH   1  13
TORSDOF 4
ENDMDL
MODEL 4
REMARK VINA RESULT:    -6.639      1.911      2.797
REMARK INTER + INTRA:          -8.764
REMARK INTER:                  -8.143
REMARK INTRA:                  -0.620
REMARK UNBOUND:                -0.572
REMARK  Name = 
REMARK  4 active torsions:
REMARK  status: ('A' for Active; 'I' for Inactive)
REMARK    1  A    between atoms: C_5  and  C_6
REMARK    2  A    between atoms: C_6  and  C_7
REMARK    3  A    between atoms: C_7  and  C_8
REMARK    4  A    between atoms: C_12  and  N_13
REMARK                            x       y       z     vdW  Elec       q    Type
REMARK                         _______ _______ _______ _____ _____    ______ ____
ROOT
ATOM      1  C   UNL     1      45.119   4.796  11.704  0.00  0.00    +0.000 A 
ATOM      2  C   UNL     1      45.224   3.778  12.642  0.00  0.00    +0.000 A 
ATOM      3  N   UNL     1      46.111   3.768  13.656  0.00  0.00    +0.000 NA
ATOM      4  C   UNL     1      46.957   4.826  13.726  0.00  0.00    +0.000 A 
ATOM      5  C   UNL     1      46.989   5.910  12.845  0.00  0.00    +0.000 A 
ATOM      6  C   UNL     1      46.031   5.860  11.824  0.00  0.00    +0.000 A 
ENDROOT
BRANCH   5   7
ATOM      7  N   UNL     1      47.906   6.931  12.946  0.00  0.00    +0.000 N 
ATOM      8  C   UNL     1      48.537   7.338  14.211  0.00  0.00    +0.000 C 
ATOM      9  C   UNL     1      48.373   8.853  14.401  0.00  0.00    +0.000 C 
ATOM     10  O   UNL     1      48.888   9.585  13.275  0.00  0.00    +0.000 OA
ATOM     11  C   UNL     1      48.201   9.201  12.071  0.00  0.00    +0.000 C 
ATOM     12  C   UNL     1      48.364   7.698  11.777  0.00  0.00    +0.000 C 
ENDBRANCH   5   7
BRANCH   1  13
ATOM     13  C   UNL     1      44.153   4.758  10.542  0.00  0.00    +0.000 C 
BRANCH  13  14
ATOM     14  C   UNL     1      44.040   3.400   9.837  0.00  0.00    +0.000 C 
BRANCH  14  19
ATOM     15  C   UNL     1      46.661   1.658   7.700  0.00  0.00    +0.000 A 
ATOM     16  C   UNL     1      47.133   2.756   7.000  0.00  0.00    +0.000 A 
ATOM     17  N   UNL     1      46.685   4.015   7.193  0.00  0.00    +0.000 NA
ATOM     18  C   UNL     1      45.708   4.180   8.113  0.00  0.00    +0.000 A 
ATOM     19  C   UNL     1      45.155   3.144   8.860  0.00  0.00    +0.000 A 
ATOM     20  C   UNL     1      45.661   1.860   8.648  0.00  0.00    +0.000 A 
ENDBRANCH  14  19
ENDBRANCH  13  14
ENDBRANCH   1  13
TORSDOF 4
ENDMDL
MODEL 5
REMARK VINA RESULT:    -6.453      1.588      2.405
REMARK INTER + INTRA:          -8.534
REMARK INTER:                  -7.963
REMARK INTRA:                  -0.571
REMARK UNBOUND:                -0.572
REMARK  Name = 
REMARK  4 active torsions:
REMARK  status: ('A' for Active; 'I' for Inactive)
REMARK    1  A    between atoms: C_5  and  C_6
REMARK    2  A    between atoms: C_6  and  C_7
REMARK    3  A    between atoms: C_7  and  C_8
REMARK    4  A    between atoms: C_12  and  N_13
REMARK                            x       y       z     vdW  Elec       q    Type
REMARK                         _______ _______ _______ _____ _____    ______ ____
ROOT
ATOM      1  C   UNL     1      45.489   4.947  12.060  0.00  0.00    +0.000 A 
ATOM      2  C   UNL     1      45.890   6.135  11.465  0.00  0.00    +0.000 A 
ATOM      3  N   UNL     1      46.848   6.946  11.955  0.00  0.00    +0.000 NA
ATOM      4  C   UNL     1      47.426   6.559  13.119  0.00  0.00    +0.000 A 
ATOM      5  C   UNL     1      47.113   5.407  13.847  0.00  0.00    +0.000 A 
ATOM      6  C   UNL     1      46.118   4.605  13.270  0.00  0.00    +0.000 A 
ENDROOT
BRANCH   5   7
ATOM      7  N   UNL     1      47.706   5.095  15.049  0.00  0.00    +0.000 N 
ATOM      8  C   UNL     1      47.482   3.828  15.762  0.00  0.00    +0.000 C 
ATOM      9  C   UNL     1      47.081   4.122  17.215  0.00  0.00    +0.000 C 
ATOM     10  O   UNL     1      48.052   4.954  17.873  0.00  0.00    +0.000 OA
ATOM     11  C   UNL     1      48.192   6.205  17.178  0.00  0.00    +0.000 C 
ATOM     12  C   UNL     1      48.650   6.000  15.722  0.00  0.00    +0.000 C 
ENDBRANCH   5   7
BRANCH   1  13
ATOM     13  C   UNL     1      44.374   4.083  11.519  0.00  0.00    +0.000 C 
BRANCH  13  14
ATOM     14  C   UNL     1      44.060   4.285  10.031  0.00  0.00    +0.000 C 
BRANCH  14  19
ATOM     15  C   UNL     1      46.545   3.325   7.316  0.00  0.00    +0.000 A 
ATOM     16  C   UNL     1      46.620   1.965   7.563  0.00  0.00    +0.000 A 
ATOM     17  N   UNL     1      45.904   1.338   8.521  0.00  0.00    +0.000 NA
ATOM     18  C   UNL     1      45.092   2.110   9.277  0.00  0.00    +0.000 A 
ATOM     19  C   UNL     1      44.954   3.486   9.121  0.00  0.00    +0.000 A 
ATOM     20  C   UNL     1      45.694   4.094   8.106  0.00  0.00    +0.000 A 
ENDBRANCH  14  19
ENDBRANCH  13  14
ENDBRANCH   1  13
TORSDOF 4
ENDMDL
MODEL 6
REMARK VINA RESULT:    -6.250      3.737      6.874
REMARK INTER + INTRA:          -8.284
REMARK INTER:                  -7.655
REMARK INTRA:                  -0.629
REMARK UNBOUND:                -0.572
REMARK  Name = 
REMARK  4 active torsions:
REMARK  status: ('A' for Active; 'I' for Inactive)
REMARK    1  A    between atoms: C_5  and  C_6
REMARK    2  A    between atoms: C_6  and  C_7
REMARK    3  A    between atoms: C_7  and  C_8
REMARK    4  A    between atoms: C_12  and  N_13
REMARK                            x       y       z     vdW  Elec       q    Type
REMARK                         _______ _______ _______ _____ _____    ______ ____
ROOT
ATOM      1  C   UNL     1      44.803   5.475  12.423  0.00  0.00    +0.000 A 
ATOM      2  C   UNL     1      44.027   4.670  13.245  0.00  0.00    +0.000 A 
ATOM      3  N   UNL     1      43.551   3.459  12.894  0.00  0.00    +0.000 NA
ATOM      4  C   UNL     1      43.850   3.035  11.641  0.00  0.00    +0.000 A 
ATOM      5  C   UNL     1      44.598   3.740  10.693  0.00  0.00    +0.000 A 
ATOM      6  C   UNL     1      45.071   4.985  11.132  0.00  0.00    +0.000 A 
ENDROOT
BRANCH   5   7
ATOM      7  N   UNL     1      44.827   3.272   9.420  0.00  0.00    +0.000 N 
ATOM      8  C   UNL     1      44.816   1.846   9.062  0.00  0.00    +0.000 C 
ATOM      9  C   UNL     1      46.109   1.495   8.311  0.00  0.00    +0.000 C 
ATOM     10  O   UNL     1      46.301   2.343   7.166  0.00  0.00    +0.000 OA
ATOM     11  C   UNL     1      46.368   3.722   7.569  0.00  0.00    +0.000 C 
ATOM     12  C   UNL     1      45.080   4.171   8.283  0.00  0.00    +0.000 C 
ENDBRANCH   5   7
BRANCH   1  13
ATOM     13  C   UNL     1      45.279   6.853  12.820  0.00  0.00    +0.000 C 
BRANCH  13  14
ATOM     14  C   UNL     1      45.664   7.768  11.649  0.00  0.00    +0.000 C 
BRANCH  14  19
ATOM     15  C   UNL     1      42.652   9.859  10.639  0.00  0.00    +0.000 A 
ATOM     16  C   UNL     1      43.012  11.057  11.233  0.00  0.00    +0.000 A 
ATOM     17  N   UNL     1      44.168  11.240  11.906  0.00  0.00    +0.000 NA
ATOM     18  C   UNL     1      44.991  10.172  12.006  0.00  0.00    +0.000 A 
ATOM     19  C   UNL     1      44.718   8.922  11.460  0.00  0.00    +0.000 A 
ATOM     20  C   UNL     1      43.523   8.778  10.752  0.00  0.00    +0.000 A 
ENDBRANCH  14  19
ENDBRANCH  13  14
ENDBRANCH   1  13
TORSDOF 4
ENDMDL
MODEL 7
REMARK VINA RESULT:    -6.221      2.688      6.581
REMARK INTER + INTRA:          -8.248
REMARK INTER:                  -7.663
REMARK INTRA:                  -0.585
REMARK UNBOUND:                -0.572
REMARK  Name = 
REMARK  4 active torsions:
REMARK  status: ('A' for Active; 'I' for Inactive)
REMARK    1  A    between atoms: C_5  and  C_6
REMARK    2  A    between atoms: C_6  and  C_7
REMARK    3  A    between atoms: C_7  and  C_8
REMARK    4  A    between atoms: C_12  and  N_13
REMARK                            x       y       z     vdW  Elec       q    Type
REMARK                         _______ _______ _______ _____ _____    ______ ____
ROOT
ATOM      1  C   UNL     1      44.538   5.442  12.075  0.00  0.00    +0.000 A 
ATOM      2  C   UNL     1      43.887   4.581  12.948  0.00  0.00    +0.000 A 
ATOM      3  N   UNL     1      43.588   3.297  12.667  0.00  0.00    +0.000 NA
ATOM      4  C   UNL     1      43.940   2.853  11.435  0.00  0.00    +0.000 A 
ATOM      5  C   UNL     1      44.576   3.605  10.443  0.00  0.00    +0.000 A 
ATOM      6  C   UNL     1      44.868   4.926  10.810  0.00  0.00    +0.000 A 
ENDROOT
BRANCH   5   7
ATOM      7  N   UNL     1      44.866   3.106   9.194  0.00  0.00    +0.000 N 
ATOM      8  C   UNL     1      44.971   1.670   8.895  0.00  0.00    +0.000 C 
ATOM      9  C   UNL     1      46.302   1.391   8.181  0.00  0.00    +0.000 C 
ATOM     10  O   UNL     1      46.451   2.205   7.005  0.00  0.00    +0.000 OA
ATOM     11  C   UNL     1      46.404   3.600   7.352  0.00  0.00    +0.000 C 
ATOM     12  C   UNL     1      45.071   3.976   8.025  0.00  0.00    +0.000 C 
ENDBRANCH   5   7
BRANCH   1  13
ATOM     13  C   UNL     1      44.812   6.894  12.393  0.00  0.00    +0.000 C 
BRANCH  13  14
ATOM     14  C   UNL     1      46.167   7.420  11.899  0.00  0.00    +0.000 C 
BRANCH  14  19
ATOM     15  C   UNL     1      48.321   8.558  14.820  0.00  0.00    +0.000 A 
ATOM     16  C   UNL     1      49.100   7.423  14.968  0.00  0.00    +0.000 A 
ATOM     17  N   UNL     1      48.997   6.336  14.175  0.00  0.00    +0.000 NA
ATOM     18  C   UNL     1      48.059   6.379  13.202  0.00  0.00    +0.000 A 
ATOM     19  C   UNL     1      47.216   7.463  12.977  0.00  0.00    +0.000 A 
ATOM     20  C   UNL     1      47.369   8.577  13.804  0.00  0.00    +0.000 A 
ENDBRANCH  14  19
ENDBRANCH  13  14
ENDBRANCH   1  13
TORSDOF 4
ENDMDL
MODEL 8
REMARK VINA RESULT:    -6.026      3.647      7.806
REMARK INTER + INTRA:          -8.008
REMARK INTER:                  -7.476
REMARK INTRA:                  -0.531
REMARK UNBOUND:                -0.572
REMARK  Name = 
REMARK  4 active torsions:
REMARK  status: ('A' for Active; 'I' for Inactive)
REMARK    1  A    between atoms: C_5  and  C_6
REMARK    2  A    between atoms: C_6  and  C_7
REMARK    3  A    between atoms: C_7  and  C_8
REMARK    4  A    between atoms: C_12  and  N_13
REMARK                            x       y       z     vdW  Elec       q    Type
REMARK                         _______ _______ _______ _____ _____    ______ ____
ROOT
ATOM      1  C   UNL     1      47.360   4.841  15.408  0.00  0.00    +0.000 A 
ATOM      2  C   UNL     1      48.261   5.818  15.005  0.00  0.00    +0.000 A 
ATOM      3  N   UNL     1      48.261   6.396  13.788  0.00  0.00    +0.000 NA
ATOM      4  C   UNL     1      47.321   5.959  12.914  0.00  0.00    +0.000 A 
ATOM      5  C   UNL     1      46.366   4.969  13.164  0.00  0.00    +0.000 A 
ATOM      6  C   UNL     1      46.416   4.422  14.454  0.00  0.00    +0.000 A 
ENDROOT
BRANCH   5   7
ATOM      7  N   UNL     1      45.466   4.538  12.216  0.00  0.00    +0.000 N 
ATOM      8  C   UNL     1      44.826   5.429  11.237  0.00  0.00    +0.000 C 
ATOM      9  C   UNL     1      43.303   5.226  11.278  0.00  0.00    +0.000 C 
ATOM     10  O   UNL     1      42.949   3.847  11.075  0.00  0.00    +0.000 OA
ATOM     11  C   UNL     1      43.547   3.021  12.090  0.00  0.00    +0.000 C 
ATOM     12  C   UNL     1      45.083   3.125  12.078  0.00  0.00    +0.000 C 
ENDBRANCH   5   7
BRANCH   1  13
ATOM     13  C   UNL     1      47.416   4.168  16.760  0.00  0.00    +0.000 C 
BRANCH  13  14
ATOM     14  C   UNL     1      48.136   2.813  16.781  0.00  0.00    +0.000 C 
BRANCH  14  19
ATOM     15  C   UNL     1      51.775   1.988  17.518  0.00  0.00    +0.000 A 
ATOM     16  C   UNL     1      52.153   3.185  18.103  0.00  0.00    +0.000 A 
ATOM     17  N   UNL     1      51.310   4.220  18.301  0.00  0.00    +0.000 NA
ATOM     18  C   UNL     1      50.036   4.058  17.876  0.00  0.00    +0.000 A 
ATOM     19  C   UNL     1      49.558   2.904  17.264  0.00  0.00    +0.000 A 
ATOM     20  C   UNL     1      50.455   1.847  17.098  0.00  0.00    +0.000 A 
ENDBRANCH  14  19
ENDBRANCH  13  14
ENDBRANCH   1  13
TORSDOF 4
ENDMDL
MODEL 9
REMARK VINA RESULT:    -5.849      3.897      7.047
REMARK INTER + INTRA:          -7.789
REMARK INTER:                  -7.119
REMARK INTRA:                  -0.670
REMARK UNBOUND:                -0.572
REMARK  Name = 
REMARK  4 active torsions:
REMARK  status: ('A' for Active; 'I' for Inactive)
REMARK    1  A    between atoms: C_5  and  C_6
REMARK    2  A    between atoms: C_6  and  C_7
REMARK    3  A    between atoms: C_7  and  C_8
REMARK    4  A    between atoms: C_12  and  N_13
REMARK                            x       y       z     vdW  Elec       q    Type
REMARK                         _______ _______ _______ _____ _____    ______ ____
ROOT
ATOM      1  C   UNL     1      47.799   7.035  12.637  0.00  0.00    +0.000 A 
ATOM      2  C   UNL     1      48.448   6.627  13.795  0.00  0.00    +0.000 A 
ATOM      3  N   UNL     1      48.055   5.591  14.561  0.00  0.00    +0.000 NA
ATOM      4  C   UNL     1      46.937   4.936  14.160  0.00  0.00    +0.000 A 
ATOM      5  C   UNL     1      46.165   5.243  13.036  0.00  0.00    +0.000 A 
ATOM      6  C   UNL     1      46.640   6.324  12.280  0.00  0.00    +0.000 A 
ENDROOT
BRANCH   5   7
ATOM      7  N   UNL     1      45.012   4.567  12.710  0.00  0.00    +0.000 N 
ATOM      8  C   UNL     1      44.997   3.205  12.153  0.00  0.00    +0.000 C 
ATOM      9  C   UNL     1      44.143   3.183  10.877  0.00  0.00    +0.000 C 
ATOM     10  O   UNL     1      42.818   3.688  11.119  0.00  0.00    +0.000 OA
ATOM     11  C   UNL     1      42.878   5.041  11.603  0.00  0.00    +0.000 C 
ATOM     12  C   UNL     1      43.674   5.141  12.918  0.00  0.00    +0.000 C 
ENDBRANCH   5   7
BRANCH   1  13
ATOM     13  C   UNL     1      48.228   8.236  11.825  0.00  0.00    +0.000 C 
BRANCH  13  14
ATOM     14  C   UNL     1      47.934   9.595  12.474  0.00  0.00    +0.000 C 
BRANCH  14  19
ATOM     15  C   UNL     1      44.327  10.482  11.654  0.00  0.00    +0.000 A 
ATOM     16  C   UNL     1      44.551  11.619  10.896  0.00  0.00    +0.000 A 
ATOM     17  N   UNL     1      45.781  12.097  10.610  0.00  0.00    +0.000 NA
ATOM     18  C   UNL     1      46.833  11.417  11.121  0.00  0.00    +0.000 A 
ATOM     19  C   UNL     1      46.717  10.274  11.905  0.00  0.00    +0.000 A 
ATOM     20  C   UNL     1      45.429   9.799  12.161  0.00  0.00    +0.000 A 
ENDBRANCH  14  19
ENDBRANCH  13  14
ENDBRANCH   1  13
TORSDOF 4
ENDMDL
