MODEL 1
REMARK VINA RESULT:    -7.713      0.000      0.000
REMARK INTER + INTRA:         -11.425
REMARK INTER:                 -10.418
REMARK INTRA:                  -1.007
REMARK UNBOUND:                -1.007
REMARK  Name = 
REMARK  6 active torsions:
REMARK  status: ('A' for Active; 'I' for Inactive)
REMARK    1  A    between atoms: C_2  and  C_4
REMARK    2  A    between atoms: C_8  and  N_9
REMARK    3  A    between atoms: N_9  and  C_10
REMARK    4  A    between atoms: C_10  and  C_11
REMARK    5  A    between atoms: C_11  and  C_12
REMARK    6  A    between atoms: C_16  and  C_17
REMARK                            x       y       z     vdW  Elec       q    Type
REMARK                         _______ _______ _______ _____ _____    ______ ____
ROOT
ATOM      1  C   UNL     1      44.231   7.370  11.127  0.00  0.00    +0.000 C 
ENDROOT
BRANCH   1   2
ATOM      2  N   UNL     1      44.697   7.845  12.425  0.00  0.00    +0.000 N 
ATOM      3  H   UNL     1      44.002   7.915  13.164  0.00  0.00    +0.000 HD
BRANCH   2   8
ATOM      4  C   UNL     1      46.925   5.389  13.764  0.00  0.00    +0.000 A 
ATOM      5  C   UNL     1      48.047   6.100  14.163  0.00  0.00    +0.000 A 
ATOM      6  C   UNL     1      48.055   7.465  13.943  0.00  0.00    +0.000 A 
ATOM      7  C   UNL     1      46.945   8.061  13.354  0.00  0.00    +0.000 A 
ATOM      8  C   UNL     1      45.850   7.284  12.969  0.00  0.00    +0.000 A 
ATOM      9  N   UNL     1      45.830   5.948  13.162  0.00  0.00    +0.000 NA
BRANCH   4  11
ATOM     10  N   UNL     1      46.157   3.174  13.121  0.00  0.00    +0.000 N 
ATOM     11  C   UNL     1      46.900   3.908  14.003  0.00  0.00    +0.000 C 
ATOM     12  O   UNL     1      47.510   3.376  14.925  0.00  0.00    +0.000 OA
ATOM     13  H   UNL     1      46.101   2.173  13.240  0.00  0.00    +0.000 HD
ATOM     14  H   UNL     1      45.667   3.636  12.367  0.00  0.00    +0.000 HD
ENDBRANCH   4  11
ENDBRANCH   2   8
ENDBRANCH   1   2
BRANCH   1  15
ATOM     15  C   UNL     1      43.031   6.425  11.273  0.00  0.00    +0.000 C 
BRANCH  15  16
ATOM     16  C   UNL     1      43.413   4.999  10.967  0.00  0.00    +0.000 A 
ATOM     17  C   UNL     1      42.925   3.944  11.728  0.00  0.00    +0.000 A 
ATOM     18  N   UNL     1      43.215   2.648  11.492  0.00  0.00    +0.000 NA
ATOM     19  C   UNL     1      44.040   2.386  10.449  0.00  0.00    +0.000 A 
ATOM     20  C   UNL     1      44.601   3.347   9.604  0.00  0.00    +0.000 A 
ATOM     21  C   UNL     1      44.251   4.679   9.889  0.00  0.00    +0.000 A 
BRANCH  20  22
ATOM     22  C   UNL     1      45.519   2.992   8.503  0.00  0.00    +0.000 A 
ATOM     23  C   UNL     1      46.069   1.708   8.368  0.00  0.00    +0.000 A 
ATOM     24  C   UNL     1      46.901   1.398   7.292  0.00  0.00    +0.000 A 
ATOM     25  C   UNL     1      47.180   2.388   6.369  0.00  0.00    +0.000 A 
ATOM     26  N   UNL     1      46.693   3.641   6.456  0.00  0.00    +0.000 NA
ATOM     27  C   UNL     1      45.880   3.907   7.509  0.00  0.00    +0.000 A 
ENDBRANCH  20  22
ENDBRANCH  15  16
ENDBRANCH   1  15
TORSDOF 6
ENDMDL
MODEL 2
REMARK VINA RESULT:    -7.680      1.903      2.371
REMARK INTER + INTRA:         -11.381
REMARK INTER:                 -10.775
REMARK INTRA:                  -0.606
REMARK UNBOUND:                -1.007
REMARK  Name = 
REMARK  6 active torsions:
REMARK  status: ('A' for Active; 'I' for Inactive)
REMARK    1  A    between atoms: C_2  and  C_4
REMARK    2  A    between atoms: C_8  and  N_9
REMARK    3  A    between atoms: N_9  and  C_10
REMARK    4  A    between atoms: C_10  and  C_11
REMARK    5  A    between atoms: C_11  and  C_12
REMARK    6  A    between atoms: C_16  and  C_17
REMARK                            x       y       z     vdW  Elec       q    Type
REMARK                         _______ _______ _______ _____ _____    ______ ____
ROOT
ATOM      1  C   UNL     1      45.384   6.065  12.609  0.00  0.00    +0.000 C 
ENDROOT
BRANCH   1   2
ATOM      2  N   UNL     1      46.650   5.355  12.753  0.00  0.00    +0.000 N 
ATOM      3  H   UNL     1      47.327   5.469  12.004  0.00  0.00    +0.000 HD
BRANCH   2   8
ATOM      4  C   UNL     1      47.754   4.513  16.050  0.00  0.00    +0.000 A 
ATOM      5  C   UNL     1      48.536   5.585  16.452  0.00  0.00    +0.000 A 
ATOM      6  C   UNL     1      48.716   6.622  15.556  0.00  0.00    +0.000 A 
ATOM      7  C   UNL     1      48.098   6.555  14.311  0.00  0.00    +0.000 A 
ATOM      8  C   UNL     1      47.330   5.441  13.967  0.00  0.00    +0.000 A 
ATOM      9  N   UNL     1      47.155   4.411  14.823  0.00  0.00    +0.000 NA
BRANCH   4  11
ATOM     10  N   UNL     1      48.680   2.787  17.489  0.00  0.00    +0.000 N 
ATOM     11  C   UNL     1      47.545   3.383  17.015  0.00  0.00    +0.000 C 
ATOM     12  O   UNL     1      46.430   3.012  17.369  0.00  0.00    +0.000 OA
ATOM     13  H   UNL     1      48.596   2.017  18.137  0.00  0.00    +0.000 HD
ATOM     14  H   UNL     1      49.587   3.114  17.184  0.00  0.00    +0.000 HD
ENDBRANCH   4  11
ENDBRANCH   2   8
ENDBRANCH   1   2
BRANCH   1  15
ATOM     15  C   UNL     1      44.954   6.153  11.139  0.00  0.00    +0.000 C 
BRANCH  15  16
ATOM     16  C   UNL     1      44.792   4.783  10.529  0.00  0.00    +0.000 A 
ATOM     17  C   UNL     1      43.885   3.868  11.048  0.00  0.00    +0.000 A 
ATOM     18  N   UNL     1      43.681   2.637  10.536  0.00  0.00    +0.000 NA
ATOM     19  C   UNL     1      44.425   2.293   9.455  0.00  0.00    +0.000 A 
ATOM     20  C   UNL     1      45.370   3.113   8.835  0.00  0.00    +0.000 A 
ATOM     21  C   UNL     1      45.528   4.390   9.402  0.00  0.00    +0.000 A 
BRANCH  20  22
ATOM     22  C   UNL     1      46.169   2.662   7.678  0.00  0.00    +0.000 A 
ATOM     23  C   UNL     1      46.309   3.435   6.514  0.00  0.00    +0.000 A 
ATOM     24  C   UNL     1      47.105   2.995   5.456  0.00  0.00    +0.000 A 
ATOM     25  C   UNL     1      47.742   1.774   5.576  0.00  0.00    +0.000 A 
ATOM     26  N   UNL     1      47.631   0.984   6.660  0.00  0.00    +0.000 NA
ATOM     27  C   UNL     1      46.857   1.445   7.675  0.00  0.00    +0.000 A 
ENDBRANCH  20  22
ENDBRANCH  15  16
ENDBRANCH   1  15
TORSDOF 6
ENDMDL
MODEL 3
REMARK VINA RESULT:    -7.622      2.456      6.605
REMARK INTER + INTRA:         -11.303
REMARK INTER:                 -10.285
REMARK INTRA:                  -1.018
REMARK UNBOUND:                -1.007
REMARK  Name = 
REMARK  6 active torsions:
REMARK  status: ('A' for Active; 'I' for Inactive)
REMARK    1  A    between atoms: C_2  and  C_4
REMARK    2  A    between atoms: C_8  and  N_9
REMARK    3  A    between atoms: N_9  and  C_10
REMARK    4  A    between atoms: C_10  and  C_11
REMARK    5  A    between atoms: C_11  and  C_12
REMARK    6  A    between atoms: C_16  and  C_17
REMARK                            x       y       z     vdW  Elec       q    Type
REMARK                         _______ _______ _______ _____ _____    ______ ____
ROOT
ATOM      1  C   UNL     1      43.486   3.517  11.547  0.00  0.00    +0.000 C 
ENDROOT
BRANCH   1   2
ATOM      2  N   UNL     1      43.940   2.441  10.673  0.00  0.00    +0.000 N 
ATOM      3  H   UNL     1      43.238   1.774  10.365  0.00  0.00    +0.000 HD
BRANCH   2   8
ATOM      4  C   UNL     1      46.283   2.048   8.000  0.00  0.00    +0.000 A 
ATOM      5  C   UNL     1      46.461   3.324   7.486  0.00  0.00    +0.000 A 
ATOM      6  C   UNL     1      45.735   4.354   8.056  0.00  0.00    +0.000 A 
ATOM      7  C   UNL     1      44.881   4.071   9.118  0.00  0.00    +0.000 A 
ATOM      8  C   UNL     1      44.742   2.760   9.580  0.00  0.00    +0.000 A 
ATOM      9  N   UNL     1      45.432   1.740   9.026  0.00  0.00    +0.000 NA
BRANCH   4  11
ATOM     10  N   UNL     1      48.015   1.282   6.476  0.00  0.00    +0.000 N 
ATOM     11  C   UNL     1      47.069   0.923   7.394  0.00  0.00    +0.000 C 
ATOM     12  O   UNL     1      46.888  -0.251   7.701  0.00  0.00    +0.000 OA
ATOM     13  H   UNL     1      48.569   0.563   6.033  0.00  0.00    +0.000 HD
ATOM     14  H   UNL     1      48.148   2.258   6.243  0.00  0.00    +0.000 HD
ENDBRANCH   4  11
ENDBRANCH   2   8
ENDBRANCH   1   2
BRANCH   1  15
ATOM     15  C   UNL     1      44.311   3.576  12.839  0.00  0.00    +0.000 C 
BRANCH  15  16
ATOM     16  C   UNL     1      45.185   4.804  12.879  0.00  0.00    +0.000 A 
ATOM     17  C   UNL     1      46.471   4.754  13.402  0.00  0.00    +0.000 A 
ATOM     18  N   UNL     1      47.307   5.812  13.447  0.00  0.00    +0.000 NA
ATOM     19  C   UNL     1      46.837   6.984  12.953  0.00  0.00    +0.000 A 
ATOM     20  C   UNL     1      45.569   7.175  12.400  0.00  0.00    +0.000 A 
ATOM     21  C   UNL     1      44.747   6.033  12.365  0.00  0.00    +0.000 A 
BRANCH  20  22
ATOM     22  C   UNL     1      45.111   8.489  11.908  0.00  0.00    +0.000 A 
ATOM     23  C   UNL     1      43.962   8.635  11.114  0.00  0.00    +0.000 A 
ATOM     24  C   UNL     1      43.537   9.898  10.700  0.00  0.00    +0.000 A 
ATOM     25  C   UNL     1      44.279  11.000  11.082  0.00  0.00    +0.000 A 
ATOM     26  N   UNL     1      45.397  10.918  11.828  0.00  0.00    +0.000 NA
ATOM     27  C   UNL     1      45.778   9.677  12.221  0.00  0.00    +0.000 A 
ENDBRANCH  20  22
ENDBRANCH  15  16
ENDBRANCH   1  15
TORSDOF 6
ENDMDL
MODEL 4
REMARK VINA RESULT:    -7.048      2.205      2.958
REMARK INTER + INTRA:         -10.527
REMARK INTER:                  -9.910
REMARK INTRA:                  -0.617
REMARK UNBOUND:                -1.007
REMARK  Name = 
REMARK  6 active torsions:
REMARK  status: ('A' for Active; 'I' for Inactive)
REMARK    1  A    between atoms: C_2  and  C_4
REMARK    2  A    between atoms: C_8  and  N_9
REMARK    3  A    between atoms: N_9  and  C_10
REMARK    4  A    between atoms: C_10  and  C_11
REMARK    5  A    between atoms: C_11  and  C_12
REMARK    6  A    between atoms: C_16  and  C_17
REMARK                            x       y       z     vdW  Elec       q    Type
REMARK                         _______ _______ _______ _____ _____    ______ ____
ROOT
ATOM      1  C   UNL     1      45.541   6.412  12.460  0.00  0.00    +0.000 C 
ENDROOT
BRANCH   1   2
ATOM      2  N   UNL     1      46.806   5.712  12.656  0.00  0.00    +0.000 N 
ATOM      3  H   UNL     1      47.583   5.996  12.066  0.00  0.00    +0.000 HD
BRANCH   2   8
ATOM      4  C   UNL     1      48.782   6.225  15.593  0.00  0.00    +0.000 A 
ATOM      5  C   UNL     1      48.392   5.223  16.469  0.00  0.00    +0.000 A 
ATOM      6  C   UNL     1      47.399   4.355  16.053  0.00  0.00    +0.000 A 
ATOM      7  C   UNL     1      46.853   4.512  14.783  0.00  0.00    +0.000 A 
ATOM      8  C   UNL     1      47.286   5.550  13.954  0.00  0.00    +0.000 A 
ATOM      9  N   UNL     1      48.244   6.416  14.349  0.00  0.00    +0.000 NA
BRANCH   4  11
ATOM     10  N   UNL     1      51.037   7.093  15.337  0.00  0.00    +0.000 N 
ATOM     11  C   UNL     1      49.862   7.170  16.030  0.00  0.00    +0.000 C 
ATOM     12  O   UNL     1      49.710   7.971  16.946  0.00  0.00    +0.000 OA
ATOM     13  H   UNL     1      51.801   7.703  15.595  0.00  0.00    +0.000 HD
ATOM     14  H   UNL     1      51.137   6.426  14.583  0.00  0.00    +0.000 HD
ENDBRANCH   4  11
ENDBRANCH   2   8
ENDBRANCH   1   2
BRANCH   1  15
ATOM     15  C   UNL     1      45.128   6.422  10.982  0.00  0.00    +0.000 C 
BRANCH  15  16
ATOM     16  C   UNL     1      44.869   5.026  10.473  0.00  0.00    +0.000 A 
ATOM     17  C   UNL     1      43.912   4.212  11.063  0.00  0.00    +0.000 A 
ATOM     18  N   UNL     1      43.621   2.964  10.641  0.00  0.00    +0.000 NA
ATOM     19  C   UNL     1      44.327   2.497   9.581  0.00  0.00    +0.000 A 
ATOM     20  C   UNL     1      45.315   3.207   8.896  0.00  0.00    +0.000 A 
ATOM     21  C   UNL     1      45.563   4.508   9.370  0.00  0.00    +0.000 A 
BRANCH  20  22
ATOM     22  C   UNL     1      46.067   2.624   7.767  0.00  0.00    +0.000 A 
ATOM     23  C   UNL     1      46.316   3.336   6.583  0.00  0.00    +0.000 A 
ATOM     24  C   UNL     1      47.065   2.768   5.552  0.00  0.00    +0.000 A 
ATOM     25  C   UNL     1      47.546   1.483   5.720  0.00  0.00    +0.000 A 
ATOM     26  N   UNL     1      47.325   0.748   6.826  0.00  0.00    +0.000 NA
ATOM     27  C   UNL     1      46.601   1.333   7.813  0.00  0.00    +0.000 A 
ENDBRANCH  20  22
ENDBRANCH  15  16
ENDBRANCH   1  15
TORSDOF 6
ENDMDL
MODEL 5
REMARK VINA RESULT:    -7.011      1.974      2.644
REMARK INTER + INTRA:         -10.477
REMARK INTER:                  -9.838
REMARK INTRA:                  -0.639
REMARK UNBOUND:                -1.007
REMARK  Name = 
REMARK  6 active torsions:
REMARK  status: ('A' for Active; 'I' for Inactive)
REMARK    1  A    between atoms: C_2  and  C_4
REMARK    2  A    between atoms: C_8  and  N_9
REMARK    3  A    between atoms: N_9  and  C_10
REMARK    4  A    between atoms: C_10  and  C_11
REMARK    5  A    between atoms: C_11  and  C_12
REMARK    6  A    between atoms: C_16  and  C_17
REMARK                            x       y       z     vdW  Elec       q    Type
REMARK                         _______ _______ _______ _____ _____    ______ ____
ROOT
ATOM      1  C   UNL     1      44.832   6.633  12.578  0.00  0.00    +0.000 C 
ENDROOT
BRANCH   1   2
ATOM      2  N   UNL     1      45.096   8.007  12.991  0.00  0.00    +0.000 N 
ATOM      3  H   UNL     1      44.753   8.283  13.907  0.00  0.00    +0.000 HD
BRANCH   2   8
ATOM      4  C   UNL     1      48.648   8.295  13.293  0.00  0.00    +0.000 A 
ATOM      5  C   UNL     1      48.962   9.510  12.702  0.00  0.00    +0.000 A 
ATOM      6  C   UNL     1      47.927  10.247  12.157  0.00  0.00    +0.000 A 
ATOM      7  C   UNL     1      46.629   9.752  12.238  0.00  0.00    +0.000 A 
ATOM      8  C   UNL     1      46.384   8.515  12.840  0.00  0.00    +0.000 A 
ATOM      9  N   UNL     1      47.384   7.775  13.365  0.00  0.00    +0.000 NA
BRANCH   4  11
ATOM     10  N   UNL     1      51.001   7.692  13.359  0.00  0.00    +0.000 N 
ATOM     11  C   UNL     1      49.761   7.488  13.894  0.00  0.00    +0.000 C 
ATOM     12  O   UNL     1      49.582   6.696  14.814  0.00  0.00    +0.000 OA
ATOM     13  H   UNL     1      51.786   7.170  13.723  0.00  0.00    +0.000 HD
ATOM     14  H   UNL     1      51.124   8.354  12.604  0.00  0.00    +0.000 HD
ENDBRANCH   4  11
ENDBRANCH   2   8
ENDBRANCH   1   2
BRANCH   1  15
ATOM     15  C   UNL     1      44.741   6.514  11.051  0.00  0.00    +0.000 C 
BRANCH  15  16
ATOM     16  C   UNL     1      44.583   5.078  10.618  0.00  0.00    +0.000 A 
ATOM     17  C   UNL     1      43.705   4.223  11.272  0.00  0.00    +0.000 A 
ATOM     18  N   UNL     1      43.505   2.936  10.920  0.00  0.00    +0.000 NA
ATOM     19  C   UNL     1      44.224   2.472   9.868  0.00  0.00    +0.000 A 
ATOM     20  C   UNL     1      45.139   3.219   9.124  0.00  0.00    +0.000 A 
ATOM     21  C   UNL     1      45.293   4.558   9.527  0.00  0.00    +0.000 A 
BRANCH  20  22
ATOM     22  C   UNL     1      45.911   2.640   8.008  0.00  0.00    +0.000 A 
ATOM     23  C   UNL     1      46.272   3.387   6.875  0.00  0.00    +0.000 A 
ATOM     24  C   UNL     1      47.037   2.817   5.857  0.00  0.00    +0.000 A 
ATOM     25  C   UNL     1      47.421   1.495   5.985  0.00  0.00    +0.000 A 
ATOM     26  N   UNL     1      47.091   0.726   7.040  0.00  0.00    +0.000 NA
ATOM     27  C   UNL     1      46.354   1.313   8.016  0.00  0.00    +0.000 A 
ENDBRANCH  20  22
ENDBRANCH  15  16
ENDBRANCH   1  15
TORSDOF 6
ENDMDL
MODEL 6
REMARK VINA RESULT:    -6.958      2.690      3.471
REMARK INTER + INTRA:         -10.406
REMARK INTER:                  -9.649
REMARK INTRA:                  -0.756
REMARK UNBOUND:                -1.007
REMARK  Name = 
REMARK  6 active torsions:
REMARK  status: ('A' for Active; 'I' for Inactive)
REMARK    1  A    between atoms: C_2  and  C_4
REMARK    2  A    between atoms: C_8  and  N_9
REMARK    3  A    between atoms: N_9  and  C_10
REMARK    4  A    between atoms: C_10  and  C_11
REMARK    5  A    between atoms: C_11  and  C_12
REMARK    6  A    between atoms: C_16  and  C_17
REMARK                            x       y       z     vdW  Elec       q    Type
REMARK                         _______ _______ _______ _____ _____    ______ ____
ROOT
ATOM      1  C   UNL     1      44.671   6.460  12.683  0.00  0.00    +0.000 C 
ENDROOT
BRANCH   1   2
ATOM      2  N   UNL     1      45.371   7.689  13.038  0.00  0.00    +0.000 N 
ATOM      3  H   UNL     1      45.219   8.048  13.977  0.00  0.00    +0.000 HD
BRANCH   2   8
ATOM      4  C   UNL     1      48.456   9.043  11.838  0.00  0.00    +0.000 A 
ATOM      5  C   UNL     1      49.390   8.035  12.027  0.00  0.00    +0.000 A 
ATOM      6  C   UNL     1      48.957   6.858  12.611  0.00  0.00    +0.000 A 
ATOM      7  C   UNL     1      47.617   6.732  12.963  0.00  0.00    +0.000 A 
ATOM      8  C   UNL     1      46.731   7.791  12.751  0.00  0.00    +0.000 A 
ATOM      9  N   UNL     1      47.138   8.952  12.196  0.00  0.00    +0.000 NA
BRANCH   4  11
ATOM     10  N   UNL     1      50.263  10.475  11.069  0.00  0.00    +0.000 N 
ATOM     11  C   UNL     1      48.912  10.322  11.200  0.00  0.00    +0.000 C 
ATOM     12  O   UNL     1      48.128  11.183  10.811  0.00  0.00    +0.000 OA
ATOM     13  H   UNL     1      50.624  11.321  10.651  0.00  0.00    +0.000 HD
ATOM     14  H   UNL     1      50.888   9.749  11.394  0.00  0.00    +0.000 HD
ENDBRANCH   4  11
ENDBRANCH   2   8
ENDBRANCH   1   2
BRANCH   1  15
ATOM     15  C   UNL     1      44.421   6.373  11.171  0.00  0.00    +0.000 C 
BRANCH  15  16
ATOM     16  C   UNL     1      44.373   4.941  10.702  0.00  0.00    +0.000 A 
ATOM     17  C   UNL     1      43.557   4.007  11.328  0.00  0.00    +0.000 A 
ATOM     18  N   UNL     1      43.456   2.718  10.942  0.00  0.00    +0.000 NA
ATOM     19  C   UNL     1      44.212   2.335   9.884  0.00  0.00    +0.000 A 
ATOM     20  C   UNL     1      45.073   3.168   9.165  0.00  0.00    +0.000 A 
ATOM     21  C   UNL     1      45.125   4.504   9.602  0.00  0.00    +0.000 A 
BRANCH  20  22
ATOM     22  C   UNL     1      45.891   2.676   8.039  0.00  0.00    +0.000 A 
ATOM     23  C   UNL     1      46.215   3.482   6.937  0.00  0.00    +0.000 A 
ATOM     24  C   UNL     1      47.025   2.996   5.910  0.00  0.00    +0.000 A 
ATOM     25  C   UNL     1      47.491   1.698   5.998  0.00  0.00    +0.000 A 
ATOM     26  N   UNL     1      47.200   0.875   7.023  0.00  0.00    +0.000 NA
ATOM     27  C   UNL     1      46.418   1.381   8.009  0.00  0.00    +0.000 A 
ENDBRANCH  20  22
ENDBRANCH  15  16
ENDBRANCH   1  15
TORSDOF 6
ENDMDL
MODEL 7
REMARK VINA RESULT:    -6.787      3.056      4.848
REMARK INTER + INTRA:         -10.174
REMARK INTER:                  -9.587
REMARK INTRA:                  -0.588
REMARK UNBOUND:                -1.007
REMARK  Name = 
REMARK  6 active torsions:
REMARK  status: ('A' for Active; 'I' for Inactive)
REMARK    1  A    between atoms: C_2  and  C_4
REMARK    2  A    between atoms: C_8  and  N_9
REMARK    3  A    between atoms: N_9  and  C_10
REMARK    4  A    between atoms: C_10  and  C_11
REMARK    5  A    between atoms: C_11  and  C_12
REMARK    6  A    between atoms: C_16  and  C_17
REMARK                            x       y       z     vdW  Elec       q    Type
REMARK                         _______ _______ _______ _____ _____    ______ ____
ROOT
ATOM      1  C   UNL     1      48.604   7.165  15.078  0.00  0.00    +0.000 C 
ENDROOT
BRANCH   1   2
ATOM      2  N   UNL     1      47.782   6.054  15.544  0.00  0.00    +0.000 N 
ATOM      3  H   UNL     1      47.437   5.411  14.836  0.00  0.00    +0.000 HD
BRANCH   2   8
ATOM      4  C   UNL     1      49.333   3.410  17.387  0.00  0.00    +0.000 A 
ATOM      5  C   UNL     1      49.040   3.677  18.717  0.00  0.00    +0.000 A 
ATOM      6  C   UNL     1      48.309   4.817  18.997  0.00  0.00    +0.000 A 
ATOM      7  C   UNL     1      47.889   5.626  17.946  0.00  0.00    +0.000 A 
ATOM      8  C   UNL     1      48.226   5.302  16.630  0.00  0.00    +0.000 A 
ATOM      9  N   UNL     1      48.952   4.202  16.338  0.00  0.00    +0.000 NA
BRANCH   4  11
ATOM     10  N   UNL     1      51.027   1.784  18.013  0.00  0.00    +0.000 N 
ATOM     11  C   UNL     1      50.121   2.173  17.068  0.00  0.00    +0.000 C 
ATOM     12  O   UNL     1      49.965   1.539  16.029  0.00  0.00    +0.000 OA
ATOM     13  H   UNL     1      51.589   0.961  17.845  0.00  0.00    +0.000 HD
ATOM     14  H   UNL     1      51.134   2.321  18.863  0.00  0.00    +0.000 HD
ENDBRANCH   4  11
ENDBRANCH   2   8
ENDBRANCH   1   2
BRANCH   1  15
ATOM     15  C   UNL     1      48.720   7.175  13.548  0.00  0.00    +0.000 C 
BRANCH  15  16
ATOM     16  C   UNL     1      47.362   7.177  12.893  0.00  0.00    +0.000 A 
ATOM     17  C   UNL     1      46.469   8.221  13.095  0.00  0.00    +0.000 A 
ATOM     18  N   UNL     1      45.249   8.290  12.522  0.00  0.00    +0.000 NA
ATOM     19  C   UNL     1      44.896   7.262  11.711  0.00  0.00    +0.000 A 
ATOM     20  C   UNL     1      45.694   6.153  11.422  0.00  0.00    +0.000 A 
ATOM     21  C   UNL     1      46.960   6.144  12.035  0.00  0.00    +0.000 A 
BRANCH  20  22
ATOM     22  C   UNL     1      45.233   5.052  10.553  0.00  0.00    +0.000 A 
ATOM     23  C   UNL     1      45.588   4.965   9.198  0.00  0.00    +0.000 A 
ATOM     24  C   UNL     1      45.166   3.889   8.417  0.00  0.00    +0.000 A 
ATOM     25  C   UNL     1      44.381   2.916   9.006  0.00  0.00    +0.000 A 
ATOM     26  N   UNL     1      43.996   2.956  10.296  0.00  0.00    +0.000 NA
ATOM     27  C   UNL     1      44.431   4.011  11.030  0.00  0.00    +0.000 A 
ENDBRANCH  20  22
ENDBRANCH  15  16
ENDBRANCH   1  15
TORSDOF 6
ENDMDL
MODEL 8
REMARK VINA RESULT:    -6.782      2.878      4.048
REMARK INTER + INTRA:         -10.168
REMARK INTER:                  -9.781
REMARK INTRA:                  -0.387
REMARK UNBOUND:                -1.007
REMARK  Name = 
REMARK  6 active torsions:
REMARK  status: ('A' for Active; 'I' for Inactive)
REMARK    1  A    between atoms: C_2  and  C_4
REMARK    2  A    between atoms: C_8  and  N_9
REMARK    3  A    between atoms: N_9  and  C_10
REMARK    4  A    between atoms: C_10  and  C_11
REMARK    5  A    between atoms: C_11  and  C_12
REMARK    6  A    between atoms: C_16  and  C_17
REMARK                            x       y       z     vdW  Elec       q    Type
REMARK                         _______ _______ _______ _____ _____    ______ ____
ROOT
ATOM      1  C   UNL     1      46.294   6.316  12.253  0.00  0.00    +0.000 C 
ENDROOT
BRANCH   1   2
ATOM      2  N   UNL     1      46.336   7.444  13.177  0.00  0.00    +0.000 N 
ATOM      3  H   UNL     1      46.996   7.380  13.947  0.00  0.00    +0.000 HD
BRANCH   2   8
ATOM      4  C   UNL     1      45.272  10.565  11.792  0.00  0.00    +0.000 A 
ATOM      5  C   UNL     1      46.443  11.245  11.493  0.00  0.00    +0.000 A 
ATOM      6  C   UNL     1      47.642  10.626  11.800  0.00  0.00    +0.000 A 
ATOM      7  C   UNL     1      47.621   9.358  12.371  0.00  0.00    +0.000 A 
ATOM      8  C   UNL     1      46.404   8.734  12.655  0.00  0.00    +0.000 A 
ATOM      9  N   UNL     1      45.224   9.328  12.376  0.00  0.00    +0.000 NA
BRANCH   4  11
ATOM     10  N   UNL     1      42.867  10.727  12.106  0.00  0.00    +0.000 N 
ATOM     11  C   UNL     1      43.965  11.222  11.460  0.00  0.00    +0.000 C 
ATOM     12  O   UNL     1      43.874  12.150  10.662  0.00  0.00    +0.000 OA
ATOM     13  H   UNL     1      41.961  11.129  11.914  0.00  0.00    +0.000 HD
ATOM     14  H   UNL     1      42.969   9.964  12.762  0.00  0.00    +0.000 HD
ENDBRANCH   4  11
ENDBRANCH   2   8
ENDBRANCH   1   2
BRANCH   1  15
ATOM     15  C   UNL     1      44.972   6.276  11.475  0.00  0.00    +0.000 C 
BRANCH  15  16
ATOM     16  C   UNL     1      44.713   4.907  10.899  0.00  0.00    +0.000 A 
ATOM     17  C   UNL     1      43.765   4.059  11.458  0.00  0.00    +0.000 A 
ATOM     18  N   UNL     1      43.475   2.833  10.977  0.00  0.00    +0.000 NA
ATOM     19  C   UNL     1      44.169   2.424   9.887  0.00  0.00    +0.000 A 
ATOM     20  C   UNL     1      45.147   3.171   9.227  0.00  0.00    +0.000 A 
ATOM     21  C   UNL     1      45.396   4.447   9.764  0.00  0.00    +0.000 A 
BRANCH  20  22
ATOM     22  C   UNL     1      45.888   2.650   8.061  0.00  0.00    +0.000 A 
ATOM     23  C   UNL     1      46.140   3.429   6.921  0.00  0.00    +0.000 A 
ATOM     24  C   UNL     1      46.879   2.916   5.854  0.00  0.00    +0.000 A 
ATOM     25  C   UNL     1      47.347   1.619   5.943  0.00  0.00    +0.000 A 
ATOM     26  N   UNL     1      47.123   0.821   7.004  0.00  0.00    +0.000 NA
ATOM     27  C   UNL     1      46.409   1.353   8.027  0.00  0.00    +0.000 A 
ENDBRANCH  20  22
ENDBRANCH  15  16
ENDBRANCH   1  15
TORSDOF 6
ENDMDL
MODEL 9
REMARK VINA RESULT:    -6.560      2.792      4.837
REMARK INTER + INTRA:          -9.868
REMARK INTER:                  -8.879
REMARK INTRA:                  -0.989
REMARK UNBOUND:                -1.007
REMARK  Name = 
REMARK  6 active torsions:
REMARK  status: ('A' for Active; 'I' for Inactive)
REMARK    1  A    between atoms: C_2  and  C_4
REMARK    2  A    between atoms: C_8  and  N_9
REMARK    3  A    between atoms: N_9  and  C_10
REMARK    4  A    between atoms: C_10  and  C_11
REMARK    5  A    between atoms: C_11  and  C_12
REMARK    6  A    between atoms: C_16  and  C_17
REMARK                            x       y       z     vdW  Elec       q    Type
REMARK                         _______ _______ _______ _____ _____    ______ ____
ROOT
ATOM      1  C   UNL     1      49.711   7.277  13.282  0.00  0.00    +0.000 C 
ENDROOT
BRANCH   1   2
ATOM      2  N   UNL     1      49.284   7.938  14.511  0.00  0.00    +0.000 N 
ATOM      3  H   UNL     1      48.592   8.676  14.418  0.00  0.00    +0.000 HD
BRANCH   2   8
ATOM      4  C   UNL     1      48.047   5.154  16.386  0.00  0.00    +0.000 A 
ATOM      5  C   UNL     1      48.086   5.565  17.710  0.00  0.00    +0.000 A 
ATOM      6  C   UNL     1      48.579   6.830  17.976  0.00  0.00    +0.000 A 
ATOM      7  C   UNL     1      48.991   7.631  16.916  0.00  0.00    +0.000 A 
ATOM      8  C   UNL     1      48.932   7.151  15.606  0.00  0.00    +0.000 A 
ATOM      9  N   UNL     1      48.469   5.914  15.328  0.00  0.00    +0.000 NA
BRANCH   4  11
ATOM     10  N   UNL     1      47.115   3.048  17.161  0.00  0.00    +0.000 N 
ATOM     11  C   UNL     1      47.510   3.787  16.082  0.00  0.00    +0.000 C 
ATOM     12  O   UNL     1      47.420   3.350  14.939  0.00  0.00    +0.000 OA
ATOM     13  H   UNL     1      46.751   2.117  17.014  0.00  0.00    +0.000 HD
ATOM     14  H   UNL     1      47.195   3.433  18.094  0.00  0.00    +0.000 HD
ENDBRANCH   4  11
ENDBRANCH   2   8
ENDBRANCH   1   2
BRANCH   1  15
ATOM     15  C   UNL     1      49.114   7.957  12.043  0.00  0.00    +0.000 C 
BRANCH  15  16
ATOM     16  C   UNL     1      47.610   7.860  12.032  0.00  0.00    +0.000 A 
ATOM     17  C   UNL     1      46.816   8.996  12.122  0.00  0.00    +0.000 A 
ATOM     18  N   UNL     1      45.467   8.975  12.098  0.00  0.00    +0.000 NA
ATOM     19  C   UNL     1      44.876   7.760  11.987  0.00  0.00    +0.000 A 
ATOM     20  C   UNL     1      45.551   6.541  11.889  0.00  0.00    +0.000 A 
ATOM     21  C   UNL     1      46.955   6.626  11.904  0.00  0.00    +0.000 A 
BRANCH  20  22
ATOM     22  C   UNL     1      44.842   5.249  11.802  0.00  0.00    +0.000 A 
ATOM     23  C   UNL     1      44.603   4.604  10.578  0.00  0.00    +0.000 A 
ATOM     24  C   UNL     1      43.965   3.364  10.537  0.00  0.00    +0.000 A 
ATOM     25  C   UNL     1      43.564   2.792  11.730  0.00  0.00    +0.000 A 
ATOM     26  N   UNL     1      43.753   3.371  12.931  0.00  0.00    +0.000 NA
ATOM     27  C   UNL     1      44.384   4.572  12.936  0.00  0.00    +0.000 A 
ENDBRANCH  20  22
ENDBRANCH  15  16
ENDBRANCH   1  15
TORSDOF 6
ENDMDL
