MODEL 1
REMARK VINA RESULT:    -7.793      0.000      0.000
REMARK INTER + INTRA:         -10.188
REMARK INTER:                  -9.615
REMARK INTRA:                  -0.573
REMARK UNBOUND:                -0.573
REMARK  Name = 
REMARK  4 active torsions:
REMARK  status: ('A' for Active; 'I' for Inactive)
REMARK    1  A    between atoms: C_6  and  N_7
REMARK    2  A    between atoms: N_7  and  C_8
REMARK    3  A    between atoms: C_8  and  C_9
REMARK    4  A    between atoms: C_13  and  C_14
REMARK                            x       y       z     vdW  Elec       q    Type
REMARK                         _______ _______ _______ _____ _____    ______ ____
ROOT
ATOM      1  C   UNL     1      44.015   4.646  11.431  0.00  0.00    +0.000 C 
ATOM      2  C   UNL     1      42.871   4.699  12.446  0.00  0.00    +0.000 C 
ATOM      3  C   UNL     1      43.011   5.790  11.441  0.00  0.00    +0.000 C 
ENDROOT
BRANCH   1   4
ATOM      4  C   UNL     1      45.404   4.956  11.977  0.00  0.00    +0.000 A 
ATOM      5  C   UNL     1      46.004   4.188  12.970  0.00  0.00    +0.000 A 
ATOM      6  N   UNL     1      47.134   4.534  13.637  0.00  0.00    +0.000 NA
ATOM      7  C   UNL     1      47.675   5.737  13.315  0.00  0.00    +0.000 A 
ATOM      8  C   UNL     1      47.194   6.592  12.327  0.00  0.00    +0.000 A 
ATOM      9  C   UNL     1      46.078   6.132  11.614  0.00  0.00    +0.000 A 
BRANCH   8  10
ATOM     10  C   UNL     1      47.717   7.954  12.118  0.00  0.00    +0.000 A 
ATOM     11  C   UNL     1      49.039   8.188  11.726  0.00  0.00    +0.000 A 
ATOM     12  C   UNL     1      49.447   9.488  11.455  0.00  0.00    +0.000 A 
ATOM     13  N   UNL     1      48.639  10.562  11.553  0.00  0.00    +0.000 NA
ATOM     14  C   UNL     1      47.368  10.330  11.934  0.00  0.00    +0.000 A 
ATOM     15  C   UNL     1      46.870   9.067  12.222  0.00  0.00    +0.000 A 
ENDBRANCH   8  10
ENDBRANCH   1   4
BRANCH   1  16
ATOM     16  N   UNL     1      43.940   3.491  10.530  0.00  0.00    +0.000 N 
ATOM     17  H   UNL     1      43.522   2.653  10.925  0.00  0.00    +0.000 HD
BRANCH  16  23
ATOM     18 CL   UNL     1      46.834   0.318   7.614  0.00  0.00    +0.000 Cl
ATOM     19  C   UNL     1      46.157   1.845   8.018  0.00  0.00    +0.000 A 
ATOM     20  C   UNL     1      46.476   2.969   7.272  0.00  0.00    +0.000 A 
ATOM     21  N   UNL     1      45.992   4.200   7.538  0.00  0.00    +0.000 NA
ATOM     22  C   UNL     1      45.151   4.287   8.601  0.00  0.00    +0.000 A 
ATOM     23  C   UNL     1      44.744   3.217   9.412  0.00  0.00    +0.000 A 
ATOM     24  C   UNL     1      45.290   1.973   9.107  0.00  0.00    +0.000 A 
ENDBRANCH  16  23
ENDBRANCH   1  16
TORSDOF 4
ENDMDL
MODEL 2
REMARK VINA RESULT:    -7.535      3.018      6.803
REMARK INTER + INTRA:          -9.869
REMARK INTER:                  -9.244
REMARK INTRA:                  -0.625
REMARK UNBOUND:                -0.573
REMARK  Name = 
REMARK  4 active torsions:
REMARK  status: ('A' for Active; 'I' for Inactive)
REMARK    1  A    between atoms: C_6  and  N_7
REMARK    2  A    between atoms: N_7  and  C_8
REMARK    3  A    between atoms: C_8  and  C_9
REMARK    4  A    between atoms: C_13  and  C_14
REMARK                            x       y       z     vdW  Elec       q    Type
REMARK                         _______ _______ _______ _____ _____    ______ ____
ROOT
ATOM      1  C   UNL     1      45.586   6.002  12.039  0.00  0.00    +0.000 C 
ATOM      2  C   UNL     1      45.360   7.423  11.517  0.00  0.00    +0.000 C 
ATOM      3  C   UNL     1      44.660   6.976  12.753  0.00  0.00    +0.000 C 
ENDROOT
BRANCH   1   4
ATOM      4  C   UNL     1      44.916   4.888  11.243  0.00  0.00    +0.000 A 
ATOM      5  C   UNL     1      43.893   4.106  11.767  0.00  0.00    +0.000 A 
ATOM      6  N   UNL     1      43.409   2.977  11.190  0.00  0.00    +0.000 NA
ATOM      7  C   UNL     1      44.011   2.589  10.037  0.00  0.00    +0.000 A 
ATOM      8  C   UNL     1      45.026   3.289   9.389  0.00  0.00    +0.000 A 
ATOM      9  C   UNL     1      45.415   4.494   9.991  0.00  0.00    +0.000 A 
BRANCH   8  10
ATOM     10  C   UNL     1      45.758   2.753   8.227  0.00  0.00    +0.000 A 
ATOM     11  C   UNL     1      46.067   3.546   7.116  0.00  0.00    +0.000 A 
ATOM     12  C   UNL     1      46.839   3.009   6.094  0.00  0.00    +0.000 A 
ATOM     13  N   UNL     1      47.314   1.749   6.096  0.00  0.00    +0.000 NA
ATOM     14  C   UNL     1      47.010   0.990   7.167  0.00  0.00    +0.000 A 
ATOM     15  C   UNL     1      46.249   1.439   8.236  0.00  0.00    +0.000 A 
ENDBRANCH   8  10
ENDBRANCH   1   4
BRANCH   1  16
ATOM     16  N   UNL     1      46.973   5.742  12.436  0.00  0.00    +0.000 N 
ATOM     17  H   UNL     1      47.559   5.311  11.725  0.00  0.00    +0.000 HD
BRANCH  16  23
ATOM     18 CL   UNL     1      47.026   3.397  17.067  0.00  0.00    +0.000 Cl
ATOM     19  C   UNL     1      47.548   4.582  15.938  0.00  0.00    +0.000 A 
ATOM     20  C   UNL     1      48.478   5.540  16.311  0.00  0.00    +0.000 A 
ATOM     21  N   UNL     1      48.924   6.506  15.481  0.00  0.00    +0.000 NA
ATOM     22  C   UNL     1      48.406   6.493  14.226  0.00  0.00    +0.000 A 
ATOM     23  C   UNL     1      47.479   5.562  13.734  0.00  0.00    +0.000 A 
ATOM     24  C   UNL     1      47.035   4.600  14.637  0.00  0.00    +0.000 A 
ENDBRANCH  16  23
ENDBRANCH   1  16
TORSDOF 4
ENDMDL
MODEL 3
REMARK VINA RESULT:    -7.315      3.183      6.974
REMARK INTER + INTRA:          -9.598
REMARK INTER:                  -8.891
REMARK INTRA:                  -0.708
REMARK UNBOUND:                -0.573
REMARK  Name = 
REMARK  4 active torsions:
REMARK  status: ('A' for Active; 'I' for Inactive)
REMARK    1  A    between atoms: C_6  and  N_7
REMARK    2  A    between atoms: N_7  and  C_8
REMARK    3  A    between atoms: C_8  and  C_9
REMARK    4  A    between atoms: C_13  and  C_14
REMARK                            x       y       z     vdW  Elec       q    Type
REMARK                         _______ _______ _______ _____ _____    ______ ____
ROOT
ATOM      1  C   UNL     1      45.849   7.123  12.054  0.00  0.00    +0.000 C 
ATOM      2  C   UNL     1      46.782   6.549  13.122  0.00  0.00    +0.000 C 
ATOM      3  C   UNL     1      47.354   7.044  11.839  0.00  0.00    +0.000 C 
ENDROOT
BRANCH   1   4
ATOM      4  C   UNL     1      45.000   6.107  11.298  0.00  0.00    +0.000 A 
ATOM      5  C   UNL     1      43.750   5.695  11.747  0.00  0.00    +0.000 A 
ATOM      6  N   UNL     1      43.050   4.652  11.237  0.00  0.00    +0.000 NA
ATOM      7  C   UNL     1      43.654   3.956  10.240  0.00  0.00    +0.000 A 
ATOM      8  C   UNL     1      44.888   4.273   9.677  0.00  0.00    +0.000 A 
ATOM      9  C   UNL     1      45.515   5.417  10.189  0.00  0.00    +0.000 A 
BRANCH   8  10
ATOM     10  C   UNL     1      45.576   3.402   8.706  0.00  0.00    +0.000 A 
ATOM     11  C   UNL     1      46.365   3.922   7.674  0.00  0.00    +0.000 A 
ATOM     12  C   UNL     1      47.064   3.050   6.849  0.00  0.00    +0.000 A 
ATOM     13  N   UNL     1      47.027   1.709   6.975  0.00  0.00    +0.000 NA
ATOM     14  C   UNL     1      46.264   1.215   7.969  0.00  0.00    +0.000 A 
ATOM     15  C   UNL     1      45.534   2.007   8.843  0.00  0.00    +0.000 A 
ENDBRANCH   8  10
ENDBRANCH   1   4
BRANCH   1  16
ATOM     16  N   UNL     1      45.140   8.331  12.489  0.00  0.00    +0.000 N 
ATOM     17  H   UNL     1      44.467   8.198  13.239  0.00  0.00    +0.000 HD
BRANCH  16  23
ATOM     18 CL   UNL     1      42.576  11.065   8.897  0.00  0.00    +0.000 Cl
ATOM     19  C   UNL     1      43.819  10.843  10.063  0.00  0.00    +0.000 A 
ATOM     20  C   UNL     1      44.766  11.833  10.272  0.00  0.00    +0.000 A 
ATOM     21  N   UNL     1      45.775  11.721  11.161  0.00  0.00    +0.000 NA
ATOM     22  C   UNL     1      45.817  10.561  11.865  0.00  0.00    +0.000 A 
ATOM     23  C   UNL     1      44.902   9.503  11.752  0.00  0.00    +0.000 A 
ATOM     24  C   UNL     1      43.895   9.660  10.804  0.00  0.00    +0.000 A 
ENDBRANCH  16  23
ENDBRANCH   1  16
TORSDOF 4
ENDMDL
MODEL 4
REMARK VINA RESULT:    -6.673      2.135      3.790
REMARK INTER + INTRA:          -8.807
REMARK INTER:                  -9.083
REMARK INTRA:                   0.276
REMARK UNBOUND:                -0.573
REMARK  Name = 
REMARK  4 active torsions:
REMARK  status: ('A' for Active; 'I' for Inactive)
REMARK    1  A    between atoms: C_6  and  N_7
REMARK    2  A    between atoms: N_7  and  C_8
REMARK    3  A    between atoms: C_8  and  C_9
REMARK    4  A    between atoms: C_13  and  C_14
REMARK                            x       y       z     vdW  Elec       q    Type
REMARK                         _______ _______ _______ _____ _____    ______ ____
ROOT
ATOM      1  C   UNL     1      43.949   4.927  11.465  0.00  0.00    +0.000 C 
ATOM      2  C   UNL     1      43.405   3.773  12.309  0.00  0.00    +0.000 C 
ATOM      3  C   UNL     1      42.706   5.088  12.329  0.00  0.00    +0.000 C 
ENDROOT
BRANCH   1   4
ATOM      4  C   UNL     1      45.225   5.583  11.981  0.00  0.00    +0.000 A 
ATOM      5  C   UNL     1      46.081   6.303  11.155  0.00  0.00    +0.000 A 
ATOM      6  N   UNL     1      47.322   6.725  11.507  0.00  0.00    +0.000 NA
ATOM      7  C   UNL     1      47.743   6.374  12.749  0.00  0.00    +0.000 A 
ATOM      8  C   UNL     1      46.982   5.680  13.686  0.00  0.00    +0.000 A 
ATOM      9  C   UNL     1      45.678   5.354  13.290  0.00  0.00    +0.000 A 
BRANCH   8  10
ATOM     10  C   UNL     1      47.533   5.183  14.960  0.00  0.00    +0.000 A 
ATOM     11  C   UNL     1      48.438   5.934  15.718  0.00  0.00    +0.000 A 
ATOM     12  C   UNL     1      48.849   5.454  16.955  0.00  0.00    +0.000 A 
ATOM     13  N   UNL     1      48.431   4.287  17.482  0.00  0.00    +0.000 NA
ATOM     14  C   UNL     1      47.561   3.569  16.747  0.00  0.00    +0.000 A 
ATOM     15  C   UNL     1      47.092   3.968  15.503  0.00  0.00    +0.000 A 
ENDBRANCH   8  10
ENDBRANCH   1   4
BRANCH   1  16
ATOM     16  N   UNL     1      43.922   4.657  10.024  0.00  0.00    +0.000 N 
ATOM     17  H   UNL     1      43.039   4.851   9.558  0.00  0.00    +0.000 HD
BRANCH  16  23
ATOM     18 CL   UNL     1      46.987   3.450   6.011  0.00  0.00    +0.000 Cl
ATOM     19  C   UNL     1      46.115   3.082   7.445  0.00  0.00    +0.000 A 
ATOM     20  C   UNL     1      46.082   1.783   7.928  0.00  0.00    +0.000 A 
ATOM     21  N   UNL     1      45.409   1.420   9.040  0.00  0.00    +0.000 NA
ATOM     22  C   UNL     1      44.749   2.416   9.683  0.00  0.00    +0.000 A 
ATOM     23  C   UNL     1      44.730   3.766   9.299  0.00  0.00    +0.000 A 
ATOM     24  C   UNL     1      45.421   4.082   8.133  0.00  0.00    +0.000 A 
ENDBRANCH  16  23
ENDBRANCH   1  16
TORSDOF 4
ENDMDL
MODEL 5
REMARK VINA RESULT:    -6.551      2.990      6.894
REMARK INTER + INTRA:          -8.655
REMARK INTER:                  -8.118
REMARK INTRA:                  -0.537
REMARK UNBOUND:                -0.573
REMARK  Name = 
REMARK  4 active torsions:
REMARK  status: ('A' for Active; 'I' for Inactive)
REMARK    1  A    between atoms: C_6  and  N_7
REMARK    2  A    between atoms: N_7  and  C_8
REMARK    3  A    between atoms: C_8  and  C_9
REMARK    4  A    between atoms: C_13  and  C_14
REMARK                            x       y       z     vdW  Elec       q    Type
REMARK                         _______ _______ _______ _____ _____    ______ ____
ROOT
ATOM      1  C   UNL     1      45.854   7.376  11.879  0.00  0.00    +0.000 C 
ATOM      2  C   UNL     1      45.383   8.780  11.494  0.00  0.00    +0.000 C 
ATOM      3  C   UNL     1      45.160   8.287  12.881  0.00  0.00    +0.000 C 
ENDROOT
BRANCH   1   4
ATOM      4  C   UNL     1      45.028   6.222  11.323  0.00  0.00    +0.000 A 
ATOM      5  C   UNL     1      43.915   5.713  11.985  0.00  0.00    +0.000 A 
ATOM      6  N   UNL     1      43.274   4.566  11.649  0.00  0.00    +0.000 NA
ATOM      7  C   UNL     1      43.800   3.868  10.610  0.00  0.00    +0.000 A 
ATOM      8  C   UNL     1      44.890   4.273   9.844  0.00  0.00    +0.000 A 
ATOM      9  C   UNL     1      45.449   5.512  10.187  0.00  0.00    +0.000 A 
BRANCH   8  10
ATOM     10  C   UNL     1      45.524   3.412   8.829  0.00  0.00    +0.000 A 
ATOM     11  C   UNL     1      46.231   3.944   7.745  0.00  0.00    +0.000 A 
ATOM     12  C   UNL     1      46.885   3.082   6.874  0.00  0.00    +0.000 A 
ATOM     13  N   UNL     1      46.877   1.741   7.000  0.00  0.00    +0.000 NA
ATOM     14  C   UNL     1      46.192   1.236   8.044  0.00  0.00    +0.000 A 
ATOM     15  C   UNL     1      45.511   2.017   8.967  0.00  0.00    +0.000 A 
ENDBRANCH   8  10
ENDBRANCH   1   4
BRANCH   1  16
ATOM     16  N   UNL     1      47.308   7.205  11.789  0.00  0.00    +0.000 N 
ATOM     17  H   UNL     1      47.635   6.628  11.018  0.00  0.00    +0.000 HD
BRANCH  16  23
ATOM     18 CL   UNL     1      51.784   8.940  13.765  0.00  0.00    +0.000 Cl
ATOM     19  C   UNL     1      50.338   8.013  13.814  0.00  0.00    +0.000 A 
ATOM     20  C   UNL     1      50.070   7.195  14.901  0.00  0.00    +0.000 A 
ATOM     21  N   UNL     1      48.963   6.431  15.001  0.00  0.00    +0.000 NA
ATOM     22  C   UNL     1      48.096   6.506  13.959  0.00  0.00    +0.000 A 
ATOM     23  C   UNL     1      48.254   7.312  12.821  0.00  0.00    +0.000 A 
ATOM     24  C   UNL     1      49.424   8.063  12.758  0.00  0.00    +0.000 A 
ENDBRANCH  16  23
ENDBRANCH   1  16
TORSDOF 4
ENDMDL
MODEL 6
REMARK VINA RESULT:    -6.531      4.894      8.077
REMARK INTER + INTRA:          -8.630
REMARK INTER:                  -8.299
REMARK INTRA:                  -0.331
REMARK UNBOUND:                -0.573
REMARK  Name = 
REMARK  4 active torsions:
REMARK  status: ('A' for Active; 'I' for Inactive)
REMARK    1  A    between atoms: C_6  and  N_7
REMARK    2  A    between atoms: N_7  and  C_8
REMARK    3  A    between atoms: C_8  and  C_9
REMARK    4  A    between atoms: C_13  and  C_14
REMARK                            x       y       z     vdW  Elec       q    Type
REMARK                         _______ _______ _______ _____ _____    ______ ____
ROOT
ATOM      1  C   UNL     1      48.164   4.566  16.973  0.00  0.00    +0.000 C 
ATOM      2  C   UNL     1      47.189   5.018  18.063  0.00  0.00    +0.000 C 
ATOM      3  C   UNL     1      47.133   3.615  17.565  0.00  0.00    +0.000 C 
ENDROOT
BRANCH   1   4
ATOM      4  C   UNL     1      47.881   5.089  15.570  0.00  0.00    +0.000 A 
ATOM      5  C   UNL     1      48.458   6.253  15.076  0.00  0.00    +0.000 A 
ATOM      6  N   UNL     1      48.086   6.874  13.928  0.00  0.00    +0.000 NA
ATOM      7  C   UNL     1      47.050   6.313  13.253  0.00  0.00    +0.000 A 
ATOM      8  C   UNL     1      46.400   5.137  13.618  0.00  0.00    +0.000 A 
ATOM      9  C   UNL     1      46.894   4.499  14.764  0.00  0.00    +0.000 A 
BRANCH   8  10
ATOM     10  C   UNL     1      45.182   4.650  12.946  0.00  0.00    +0.000 A 
ATOM     11  C   UNL     1      44.001   5.400  12.920  0.00  0.00    +0.000 A 
ATOM     12  C   UNL     1      42.915   4.930  12.191  0.00  0.00    +0.000 A 
ATOM     13  N   UNL     1      42.921   3.774  11.500  0.00  0.00    +0.000 NA
ATOM     14  C   UNL     1      44.060   3.056  11.532  0.00  0.00    +0.000 A 
ATOM     15  C   UNL     1      45.195   3.445  12.229  0.00  0.00    +0.000 A 
ENDBRANCH   8  10
ENDBRANCH   1   4
BRANCH   1  16
ATOM     16  N   UNL     1      49.569   4.621  17.391  0.00  0.00    +0.000 N 
ATOM     17  H   UNL     1      50.041   5.507  17.228  0.00  0.00    +0.000 HD
BRANCH  16  23
ATOM     18 CL   UNL     1      54.177   2.633  18.721  0.00  0.00    +0.000 Cl
ATOM     19  C   UNL     1      52.591   2.535  18.067  0.00  0.00    +0.000 A 
ATOM     20  C   UNL     1      52.132   1.345  17.525  0.00  0.00    +0.000 A 
ATOM     21  N   UNL     1      50.904   1.199  16.984  0.00  0.00    +0.000 NA
ATOM     22  C   UNL     1      50.116   2.305  16.998  0.00  0.00    +0.000 A 
ATOM     23  C   UNL     1      50.468   3.552  17.537  0.00  0.00    +0.000 A 
ATOM     24  C   UNL     1      51.753   3.654  18.063  0.00  0.00    +0.000 A 
ENDBRANCH  16  23
ENDBRANCH   1  16
TORSDOF 4
ENDMDL
MODEL 7
REMARK VINA RESULT:    -6.276      3.645      7.250
REMARK INTER + INTRA:          -8.317
REMARK INTER:                  -7.644
REMARK INTRA:                  -0.673
REMARK UNBOUND:                -0.573
REMARK  Name = 
REMARK  4 active torsions:
REMARK  status: ('A' for Active; 'I' for Inactive)
REMARK    1  A    between atoms: C_6  and  N_7
REMARK    2  A    between atoms: N_7  and  C_8
REMARK    3  A    between atoms: C_8  and  C_9
REMARK    4  A    between atoms: C_13  and  C_14
REMARK                            x       y       z     vdW  Elec       q    Type
REMARK                         _______ _______ _______ _____ _____    ______ ____
ROOT
ATOM      1  C   UNL     1      48.122   7.508  13.979  0.00  0.00    +0.000 C 
ATOM      2  C   UNL     1      49.335   8.411  13.744  0.00  0.00    +0.000 C 
ATOM      3  C   UNL     1      48.353   8.763  14.808  0.00  0.00    +0.000 C 
ENDROOT
BRANCH   1   4
ATOM      4  C   UNL     1      47.024   7.583  12.924  0.00  0.00    +0.000 A 
ATOM      5  C   UNL     1      46.075   8.599  12.904  0.00  0.00    +0.000 A 
ATOM      6  N   UNL     1      44.963   8.603  12.128  0.00  0.00    +0.000 NA
ATOM      7  C   UNL     1      44.771   7.506  11.351  0.00  0.00    +0.000 A 
ATOM      8  C   UNL     1      45.651   6.431  11.253  0.00  0.00    +0.000 A 
ATOM      9  C   UNL     1      46.824   6.534  12.013  0.00  0.00    +0.000 A 
BRANCH   8  10
ATOM     10  C   UNL     1      45.329   5.193  10.520  0.00  0.00    +0.000 A 
ATOM     11  C   UNL     1      44.619   4.144  11.114  0.00  0.00    +0.000 A 
ATOM     12  C   UNL     1      44.265   3.043  10.344  0.00  0.00    +0.000 A 
ATOM     13  N   UNL     1      44.572   2.912   9.039  0.00  0.00    +0.000 NA
ATOM     14  C   UNL     1      45.257   3.924   8.475  0.00  0.00    +0.000 A 
ATOM     15  C   UNL     1      45.652   5.063   9.161  0.00  0.00    +0.000 A 
ENDBRANCH   8  10
ENDBRANCH   1   4
BRANCH   1  16
ATOM     16  N   UNL     1      48.481   6.154  14.415  0.00  0.00    +0.000 N 
ATOM     17  H   UNL     1      48.750   5.512  13.674  0.00  0.00    +0.000 HD
BRANCH  16  23
ATOM     18 CL   UNL     1      48.538   5.443  19.557  0.00  0.00    +0.000 Cl
ATOM     19  C   UNL     1      48.076   5.034  17.953  0.00  0.00    +0.000 A 
ATOM     20  C   UNL     1      47.318   3.898  17.713  0.00  0.00    +0.000 A 
ATOM     21  N   UNL     1      46.931   3.511  16.480  0.00  0.00    +0.000 NA
ATOM     22  C   UNL     1      47.327   4.310  15.457  0.00  0.00    +0.000 A 
ATOM     23  C   UNL     1      48.075   5.490  15.584  0.00  0.00    +0.000 A 
ATOM     24  C   UNL     1      48.468   5.833  16.874  0.00  0.00    +0.000 A 
ENDBRANCH  16  23
ENDBRANCH   1  16
TORSDOF 4
ENDMDL
MODEL 8
REMARK VINA RESULT:    -6.250      5.272      8.863
REMARK INTER + INTRA:          -8.284
REMARK INTER:                  -7.822
REMARK INTRA:                  -0.462
REMARK UNBOUND:                -0.573
REMARK  Name = 
REMARK  4 active torsions:
REMARK  status: ('A' for Active; 'I' for Inactive)
REMARK    1  A    between atoms: C_6  and  N_7
REMARK    2  A    between atoms: N_7  and  C_8
REMARK    3  A    between atoms: C_8  and  C_9
REMARK    4  A    between atoms: C_13  and  C_14
REMARK                            x       y       z     vdW  Elec       q    Type
REMARK                         _______ _______ _______ _____ _____    ______ ____
ROOT
ATOM      1  C   UNL     1      47.719   4.400  17.303  0.00  0.00    +0.000 C 
ATOM      2  C   UNL     1      47.635   2.891  17.548  0.00  0.00    +0.000 C 
ATOM      3  C   UNL     1      48.941   3.589  17.709  0.00  0.00    +0.000 C 
ENDROOT
BRANCH   1   4
ATOM      4  C   UNL     1      47.649   4.841  15.846  0.00  0.00    +0.000 A 
ATOM      5  C   UNL     1      48.436   5.869  15.338  0.00  0.00    +0.000 A 
ATOM      6  N   UNL     1      48.269   6.440  14.119  0.00  0.00    +0.000 NA
ATOM      7  C   UNL     1      47.229   5.978  13.378  0.00  0.00    +0.000 A 
ATOM      8  C   UNL     1      46.381   4.938  13.751  0.00  0.00    +0.000 A 
ATOM      9  C   UNL     1      46.666   4.332  14.983  0.00  0.00    +0.000 A 
BRANCH   8  10
ATOM     10  C   UNL     1      45.172   4.574  12.989  0.00  0.00    +0.000 A 
ATOM     11  C   UNL     1      44.051   5.410  12.936  0.00  0.00    +0.000 A 
ATOM     12  C   UNL     1      42.979   5.056  12.126  0.00  0.00    +0.000 A 
ATOM     13  N   UNL     1      42.943   3.935  11.379  0.00  0.00    +0.000 NA
ATOM     14  C   UNL     1      44.025   3.135  11.437  0.00  0.00    +0.000 A 
ATOM     15  C   UNL     1      45.142   3.407  12.214  0.00  0.00    +0.000 A 
ENDBRANCH   8  10
ENDBRANCH   1   4
BRANCH   1  16
ATOM     16  N   UNL     1      46.905   5.186  18.236  0.00  0.00    +0.000 N 
ATOM     17  H   UNL     1      45.910   5.221  18.028  0.00  0.00    +0.000 HD
BRANCH  16  23
ATOM     18 CL   UNL     1      49.137   9.808  19.018  0.00  0.00    +0.000 Cl
ATOM     19  C   UNL     1      48.390   8.352  19.543  0.00  0.00    +0.000 A 
ATOM     20  C   UNL     1      48.245   8.091  20.897  0.00  0.00    +0.000 A 
ATOM     21  N   UNL     1      47.681   6.965  21.381  0.00  0.00    +0.000 NA
ATOM     22  C   UNL     1      47.245   6.076  20.452  0.00  0.00    +0.000 A 
ATOM     23  C   UNL     1      47.320   6.244  19.061  0.00  0.00    +0.000 A 
ATOM     24  C   UNL     1      47.931   7.412  18.615  0.00  0.00    +0.000 A 
ENDBRANCH  16  23
ENDBRANCH   1  16
TORSDOF 4
ENDMDL
MODEL 9
REMARK VINA RESULT:    -5.975      3.809      7.750
REMARK INTER + INTRA:          -7.944
REMARK INTER:                  -7.185
REMARK INTRA:                  -0.760
REMARK UNBOUND:                -0.573
REMARK  Name = 
REMARK  4 active torsions:
REMARK  status: ('A' for Active; 'I' for Inactive)
REMARK    1  A    between atoms: C_6  and  N_7
REMARK    2  A    between atoms: N_7  and  C_8
REMARK    3  A    between atoms: C_8  and  C_9
REMARK    4  A    between atoms: C_13  and  C_14
REMARK                            x       y       z     vdW  Elec       q    Type
REMARK                         _______ _______ _______ _____ _____    ______ ____
ROOT
ATOM      1  C   UNL     1      48.973   7.810  12.552  0.00  0.00    +0.000 C 
ATOM      2  C   UNL     1      50.018   7.629  11.448  0.00  0.00    +0.000 C 
ATOM      3  C   UNL     1      49.868   8.958  12.105  0.00  0.00    +0.000 C 
ENDROOT
BRANCH   1   4
ATOM      4  C   UNL     1      47.521   7.861  12.091  0.00  0.00    +0.000 A 
ATOM      5  C   UNL     1      46.731   8.997  12.234  0.00  0.00    +0.000 A 
ATOM      6  N   UNL     1      45.389   9.035  12.040  0.00  0.00    +0.000 NA
ATOM      7  C   UNL     1      44.798   7.856  11.716  0.00  0.00    +0.000 A 
ATOM      8  C   UNL     1      45.469   6.653  11.515  0.00  0.00    +0.000 A 
ATOM      9  C   UNL     1      46.864   6.705  11.643  0.00  0.00    +0.000 A 
BRANCH   8  10
ATOM     10  C   UNL     1      44.774   5.367  11.320  0.00  0.00    +0.000 A 
ATOM     11  C   UNL     1      44.831   4.671  10.108  0.00  0.00    +0.000 A 
ATOM     12  C   UNL     1      44.234   3.420  10.015  0.00  0.00    +0.000 A 
ATOM     13  N   UNL     1      43.583   2.824  11.032  0.00  0.00    +0.000 NA
ATOM     14  C   UNL     1      43.530   3.501  12.195  0.00  0.00    +0.000 A 
ATOM     15  C   UNL     1      44.098   4.752  12.384  0.00  0.00    +0.000 A 
ENDBRANCH   8  10
ENDBRANCH   1   4
BRANCH   1  16
ATOM     16  N   UNL     1      49.227   6.980  13.734  0.00  0.00    +0.000 N 
ATOM     17  H   UNL     1      49.354   5.987  13.553  0.00  0.00    +0.000 HD
BRANCH  16  23
ATOM     18 CL   UNL     1      48.100  10.208  17.641  0.00  0.00    +0.000 Cl
ATOM     19  C   UNL     1      48.390   8.655  16.964  0.00  0.00    +0.000 A 
ATOM     20  C   UNL     1      48.384   7.529  17.772  0.00  0.00    +0.000 A 
ATOM     21  N   UNL     1      48.615   6.282  17.311  0.00  0.00    +0.000 NA
ATOM     22  C   UNL     1      48.858   6.179  15.980  0.00  0.00    +0.000 A 
ATOM     23  C   UNL     1      48.868   7.244  15.066  0.00  0.00    +0.000 A 
ATOM     24  C   UNL     1      48.646   8.511  15.597  0.00  0.00    +0.000 A 
ENDBRANCH  16  23
ENDBRANCH   1  16
TORSDOF 4
ENDMDL
