MODEL 1
REMARK VINA RESULT:    -7.651      0.000      0.000
REMARK INTER + INTRA:         -12.901
REMARK INTER:                 -11.453
REMARK INTRA:                  -1.448
REMARK UNBOUND:                -1.448
REMARK  Name = 
REMARK  9 active torsions:
REMARK  status: ('A' for Active; 'I' for Inactive)
REMARK    1  A    between atoms: N_1  and  C_2
REMARK    2  A    between atoms: C_2  and  C_3
REMARK    3  A    between atoms: C_8  and  C_9
REMARK    4  A    between atoms: N_11  and  C_12
REMARK    5  A    between atoms: C_12  and  C_13
REMARK    6  A    between atoms: C_16  and  C_17
REMARK    7  A    between atoms: C_17  and  C_18
REMARK    8  A    between atoms: C_18  and  N_19
REMARK    9  A    between atoms: N_19  and  C_20
REMARK                            x       y       z     vdW  Elec       q    Type
REMARK                         _______ _______ _______ _____ _____    ______ ____
ROOT
ATOM      1  C   UNL     1      48.668   6.779  14.659  0.00  0.00    +0.000 C 
ATOM      2  O   UNL     1      49.602   6.935  13.878  0.00  0.00    +0.000 OA
ATOM      3  N   UNL     1      47.356   6.908  14.275  0.00  0.00    +0.000 N 
ATOM      4  H   UNL     1      46.645   6.506  14.869  0.00  0.00    +0.000 HD
ENDROOT
BRANCH   1  10
ATOM      5  C   UNL     1      48.659   4.421  19.100  0.00  0.00    +0.000 A 
ATOM      6  N   UNL     1      48.099   3.238  18.722  0.00  0.00    +0.000 NA
ATOM      7  C   UNL     1      47.775   3.038  17.427  0.00  0.00    +0.000 A 
ATOM      8  C   UNL     1      47.966   3.957  16.410  0.00  0.00    +0.000 A 
ATOM      9  C   UNL     1      48.549   5.187  16.760  0.00  0.00    +0.000 A 
ATOM     10  C   UNL     1      48.871   6.404  16.056  0.00  0.00    +0.000 A 
ATOM     11  C   UNL     1      49.398   7.270  16.999  0.00  0.00    +0.000 A 
ATOM     12  N   UNL     1      49.394   6.653  18.215  0.00  0.00    +0.000 N 
ATOM     13  C   UNL     1      48.883   5.380  18.102  0.00  0.00    +0.000 A 
ATOM     14  H   UNL     1      49.670   7.072  19.096  0.00  0.00    +0.000 HD
BRANCH   5  15
ATOM     15  C   UNL     1      48.967   4.634  20.562  0.00  0.00    +0.000 C 
BRANCH  15  16
ATOM     16  N   UNL     1      48.628   5.989  21.015  0.00  0.00    +0.000 NA
ATOM     17  H   UNL     1      48.956   6.652  20.314  0.00  0.00    +0.000 HD
ATOM     18  H   UNL     1      49.188   6.181  21.848  0.00  0.00    +0.000 HD
ENDBRANCH  15  16
ENDBRANCH   5  15
ENDBRANCH   1  10
BRANCH   3  19
ATOM     19  C   UNL     1      47.013   7.220  12.909  0.00  0.00    +0.000 C 
BRANCH  19  20
ATOM     20  C   UNL     1      46.305   6.052  12.278  0.00  0.00    +0.000 A 
ATOM     21  C   UNL     1      45.900   6.110  10.940  0.00  0.00    +0.000 A 
ATOM     22  C   UNL     1      45.142   5.078  10.386  0.00  0.00    +0.000 A 
ATOM     23  C   UNL     1      44.784   3.957  11.151  0.00  0.00    +0.000 A 
ATOM     24  C   UNL     1      45.207   3.891  12.484  0.00  0.00    +0.000 A 
ATOM     25  C   UNL     1      45.955   4.932  13.043  0.00  0.00    +0.000 A 
BRANCH  23  26
ATOM     26  C   UNL     1      43.961   2.842  10.537  0.00  0.00    +0.000 C 
BRANCH  26  27
ATOM     27  C   UNL     1      44.461   2.511   9.124  0.00  0.00    +0.000 C 
BRANCH  27  28
ATOM     28  N   UNL     1      45.671   1.679   9.107  0.00  0.00    +0.000 NA
ATOM     29  H   UNL     1      45.407   0.695   9.012  0.00  0.00    +0.000 HD
BRANCH  28  30
ATOM     30  C   UNL     1      46.567   2.047   7.990  0.00  0.00    +0.000 C 
ATOM     31  C   UNL     1      45.895   3.147   7.147  0.00  0.00    +0.000 C 
ATOM     32  C   UNL     1      46.734   3.526   5.926  0.00  0.00    +0.000 C 
ATOM     33  C   UNL     1      47.063   2.307   5.070  0.00  0.00    +0.000 C 
ATOM     34  C   UNL     1      47.761   1.235   5.892  0.00  0.00    +0.000 C 
ATOM     35  C   UNL     1      46.933   0.839   7.109  0.00  0.00    +0.000 C 
ENDBRANCH  28  30
ENDBRANCH  27  28
ENDBRANCH  26  27
ENDBRANCH  23  26
ENDBRANCH  19  20
ENDBRANCH   3  19
TORSDOF 9
ENDMDL
MODEL 2
REMARK VINA RESULT:    -7.558      1.650      2.676
REMARK INTER + INTRA:         -12.762
REMARK INTER:                 -11.719
REMARK INTRA:                  -1.043
REMARK UNBOUND:                -1.448
REMARK  Name = 
REMARK  9 active torsions:
REMARK  status: ('A' for Active; 'I' for Inactive)
REMARK    1  A    between atoms: N_1  and  C_2
REMARK    2  A    between atoms: C_2  and  C_3
REMARK    3  A    between atoms: C_8  and  C_9
REMARK    4  A    between atoms: N_11  and  C_12
REMARK    5  A    between atoms: C_12  and  C_13
REMARK    6  A    between atoms: C_16  and  C_17
REMARK    7  A    between atoms: C_17  and  C_18
REMARK    8  A    between atoms: C_18  and  N_19
REMARK    9  A    between atoms: N_19  and  C_20
REMARK                            x       y       z     vdW  Elec       q    Type
REMARK                         _______ _______ _______ _____ _____    ______ ____
ROOT
ATOM      1  C   UNL     1      48.951   6.347  16.114  0.00  0.00    +0.000 C 
ATOM      2  O   UNL     1      50.143   6.243  15.841  0.00  0.00    +0.000 OA
ATOM      3  N   UNL     1      47.995   6.600  15.162  0.00  0.00    +0.000 N 
ATOM      4  H   UNL     1      47.031   6.402  15.391  0.00  0.00    +0.000 HD
ENDROOT
BRANCH   1  10
ATOM      5  C   UNL     1      47.885   6.852  21.002  0.00  0.00    +0.000 A 
ATOM      6  N   UNL     1      48.419   8.086  21.219  0.00  0.00    +0.000 NA
ATOM      7  C   UNL     1      48.982   8.758  20.192  0.00  0.00    +0.000 A 
ATOM      8  C   UNL     1      49.070   8.293  18.893  0.00  0.00    +0.000 A 
ATOM      9  C   UNL     1      48.523   7.026  18.628  0.00  0.00    +0.000 A 
ATOM     10  C   UNL     1      48.442   6.168  17.472  0.00  0.00    +0.000 A 
ATOM     11  C   UNL     1      47.802   5.013  17.890  0.00  0.00    +0.000 A 
ATOM     12  N   UNL     1      47.513   5.125  19.218  0.00  0.00    +0.000 N 
ATOM     13  C   UNL     1      47.940   6.343  19.697  0.00  0.00    +0.000 A 
ATOM     14  H   UNL     1      47.098   4.406  19.799  0.00  0.00    +0.000 HD
BRANCH   5  15
ATOM     15  C   UNL     1      47.304   6.105  22.178  0.00  0.00    +0.000 C 
BRANCH  15  16
ATOM     16  N   UNL     1      47.569   4.662  22.111  0.00  0.00    +0.000 NA
ATOM     17  H   UNL     1      48.558   4.509  22.297  0.00  0.00    +0.000 HD
ATOM     18  H   UNL     1      47.430   4.372  21.140  0.00  0.00    +0.000 HD
ENDBRANCH  15  16
ENDBRANCH   5  15
ENDBRANCH   1  10
BRANCH   3  19
ATOM     19  C   UNL     1      48.354   6.743  13.772  0.00  0.00    +0.000 C 
BRANCH  19  20
ATOM     20  C   UNL     1      47.239   6.235  12.899  0.00  0.00    +0.000 A 
ATOM     21  C   UNL     1      46.824   6.970  11.784  0.00  0.00    +0.000 A 
ATOM     22  C   UNL     1      45.716   6.561  11.042  0.00  0.00    +0.000 A 
ATOM     23  C   UNL     1      45.006   5.401  11.387  0.00  0.00    +0.000 A 
ATOM     24  C   UNL     1      45.434   4.655  12.491  0.00  0.00    +0.000 A 
ATOM     25  C   UNL     1      46.537   5.072  13.243  0.00  0.00    +0.000 A 
BRANCH  23  26
ATOM     26  C   UNL     1      43.804   4.968  10.571  0.00  0.00    +0.000 C 
BRANCH  26  27
ATOM     27  C   UNL     1      44.189   3.864   9.576  0.00  0.00    +0.000 C 
BRANCH  27  28
ATOM     28  N   UNL     1      44.939   4.355   8.413  0.00  0.00    +0.000 NA
ATOM     29  H   UNL     1      45.715   4.939   8.730  0.00  0.00    +0.000 HD
BRANCH  28  30
ATOM     30  C   UNL     1      45.475   3.239   7.604  0.00  0.00    +0.000 C 
ATOM     31  C   UNL     1      45.932   2.108   8.545  0.00  0.00    +0.000 C 
ATOM     32  C   UNL     1      46.570   0.948   7.778  0.00  0.00    +0.000 C 
ATOM     33  C   UNL     1      47.721   1.422   6.896  0.00  0.00    +0.000 C 
ATOM     34  C   UNL     1      47.261   2.512   5.941  0.00  0.00    +0.000 C 
ATOM     35  C   UNL     1      46.632   3.681   6.689  0.00  0.00    +0.000 C 
ENDBRANCH  28  30
ENDBRANCH  27  28
ENDBRANCH  26  27
ENDBRANCH  23  26
ENDBRANCH  19  20
ENDBRANCH   3  19
TORSDOF 9
ENDMDL
MODEL 3
REMARK VINA RESULT:    -7.322      1.094      1.879
REMARK INTER + INTRA:         -12.409
REMARK INTER:                 -11.185
REMARK INTRA:                  -1.224
REMARK UNBOUND:                -1.448
REMARK  Name = 
REMARK  9 active torsions:
REMARK  status: ('A' for Active; 'I' for Inactive)
REMARK    1  A    between atoms: N_1  and  C_2
REMARK    2  A    between atoms: C_2  and  C_3
REMARK    3  A    between atoms: C_8  and  C_9
REMARK    4  A    between atoms: N_11  and  C_12
REMARK    5  A    between atoms: C_12  and  C_13
REMARK    6  A    between atoms: C_16  and  C_17
REMARK    7  A    between atoms: C_17  and  C_18
REMARK    8  A    between atoms: C_18  and  N_19
REMARK    9  A    between atoms: N_19  and  C_20
REMARK                            x       y       z     vdW  Elec       q    Type
REMARK                         _______ _______ _______ _____ _____    ______ ____
ROOT
ATOM      1  C   UNL     1      48.805   6.520  15.311  0.00  0.00    +0.000 C 
ATOM      2  O   UNL     1      49.811   6.896  14.717  0.00  0.00    +0.000 OA
ATOM      3  N   UNL     1      47.573   6.460  14.709  0.00  0.00    +0.000 N 
ATOM      4  H   UNL     1      46.857   5.896  15.144  0.00  0.00    +0.000 HD
ENDROOT
BRANCH   1  10
ATOM      5  C   UNL     1      48.723   6.252  20.331  0.00  0.00    +0.000 A 
ATOM      6  N   UNL     1      48.338   7.527  20.615  0.00  0.00    +0.000 NA
ATOM      7  C   UNL     1      48.085   8.387  19.606  0.00  0.00    +0.000 A 
ATOM      8  C   UNL     1      48.185   8.082  18.260  0.00  0.00    +0.000 A 
ATOM      9  C   UNL     1      48.572   6.773  17.927  0.00  0.00    +0.000 A 
ATOM     10  C   UNL     1      48.840   6.066  16.699  0.00  0.00    +0.000 A 
ATOM     11  C   UNL     1      49.229   4.788  17.063  0.00  0.00    +0.000 A 
ATOM     12  N   UNL     1      49.224   4.697  18.424  0.00  0.00    +0.000 N 
ATOM     13  C   UNL     1      48.827   5.892  18.980  0.00  0.00    +0.000 A 
ATOM     14  H   UNL     1      49.521   3.895  18.968  0.00  0.00    +0.000 HD
BRANCH   5  15
ATOM     15  C   UNL     1      49.044   5.327  21.480  0.00  0.00    +0.000 C 
BRANCH  15  16
ATOM     16  N   UNL     1      50.321   4.626  21.295  0.00  0.00    +0.000 NA
ATOM     17  H   UNL     1      50.174   3.862  20.637  0.00  0.00    +0.000 HD
ATOM     18  H   UNL     1      50.553   4.176  22.182  0.00  0.00    +0.000 HD
ENDBRANCH  15  16
ENDBRANCH   5  15
ENDBRANCH   1  10
BRANCH   3  19
ATOM     19  C   UNL     1      47.408   6.826  13.323  0.00  0.00    +0.000 C 
BRANCH  19  20
ATOM     20  C   UNL     1      46.594   5.781  12.609  0.00  0.00    +0.000 A 
ATOM     21  C   UNL     1      46.077   6.035  11.335  0.00  0.00    +0.000 A 
ATOM     22  C   UNL     1      45.226   5.116  10.721  0.00  0.00    +0.000 A 
ATOM     23  C   UNL     1      44.885   3.914  11.359  0.00  0.00    +0.000 A 
ATOM     24  C   UNL     1      45.418   3.651  12.626  0.00  0.00    +0.000 A 
ATOM     25  C   UNL     1      46.260   4.579  13.247  0.00  0.00    +0.000 A 
BRANCH  23  26
ATOM     26  C   UNL     1      43.960   2.923  10.680  0.00  0.00    +0.000 C 
BRANCH  26  27
ATOM     27  C   UNL     1      44.409   2.659   9.236  0.00  0.00    +0.000 C 
BRANCH  27  28
ATOM     28  N   UNL     1      45.498   1.679   9.128  0.00  0.00    +0.000 NA
ATOM     29  H   UNL     1      45.108   0.760   8.907  0.00  0.00    +0.000 HD
BRANCH  28  30
ATOM     30  C   UNL     1      46.465   2.058   8.076  0.00  0.00    +0.000 C 
ATOM     31  C   UNL     1      45.855   3.175   7.209  0.00  0.00    +0.000 C 
ATOM     32  C   UNL     1      46.773   3.566   6.049  0.00  0.00    +0.000 C 
ATOM     33  C   UNL     1      47.148   2.358   5.197  0.00  0.00    +0.000 C 
ATOM     34  C   UNL     1      47.785   1.268   6.046  0.00  0.00    +0.000 C 
ATOM     35  C   UNL     1      46.879   0.860   7.201  0.00  0.00    +0.000 C 
ENDBRANCH  28  30
ENDBRANCH  27  28
ENDBRANCH  26  27
ENDBRANCH  23  26
ENDBRANCH  19  20
ENDBRANCH   3  19
TORSDOF 9
ENDMDL
MODEL 4
REMARK VINA RESULT:    -6.957      3.416      8.693
REMARK INTER + INTRA:         -11.861
REMARK INTER:                  -9.555
REMARK INTRA:                  -2.307
REMARK UNBOUND:                -1.448
REMARK  Name = 
REMARK  9 active torsions:
REMARK  status: ('A' for Active; 'I' for Inactive)
REMARK    1  A    between atoms: N_1  and  C_2
REMARK    2  A    between atoms: C_2  and  C_3
REMARK    3  A    between atoms: C_8  and  C_9
REMARK    4  A    between atoms: N_11  and  C_12
REMARK    5  A    between atoms: C_12  and  C_13
REMARK    6  A    between atoms: C_16  and  C_17
REMARK    7  A    between atoms: C_17  and  C_18
REMARK    8  A    between atoms: C_18  and  N_19
REMARK    9  A    between atoms: N_19  and  C_20
REMARK                            x       y       z     vdW  Elec       q    Type
REMARK                         _______ _______ _______ _____ _____    ______ ____
ROOT
ATOM      1  C   UNL     1      47.310   8.179  13.303  0.00  0.00    +0.000 C 
ATOM      2  O   UNL     1      47.962   8.807  12.474  0.00  0.00    +0.000 OA
ATOM      3  N   UNL     1      47.521   8.303  14.654  0.00  0.00    +0.000 N 
ATOM      4  H   UNL     1      46.793   7.989  15.280  0.00  0.00    +0.000 HD
ENDROOT
BRANCH   1  10
ATOM      5  C   UNL     1      44.490   4.141  12.294  0.00  0.00    +0.000 A 
ATOM      6  N   UNL     1      45.324   3.167  12.754  0.00  0.00    +0.000 NA
ATOM      7  C   UNL     1      46.505   3.510  13.311  0.00  0.00    +0.000 A 
ATOM      8  C   UNL     1      46.964   4.806  13.463  0.00  0.00    +0.000 A 
ATOM      9  C   UNL     1      46.128   5.839  13.007  0.00  0.00    +0.000 A 
ATOM     10  C   UNL     1      46.227   7.275  12.925  0.00  0.00    +0.000 A 
ATOM     11  C   UNL     1      45.058   7.712  12.324  0.00  0.00    +0.000 A 
ATOM     12  N   UNL     1      44.282   6.629  12.031  0.00  0.00    +0.000 N 
ATOM     13  C   UNL     1      44.907   5.472  12.437  0.00  0.00    +0.000 A 
ATOM     14  H   UNL     1      43.398   6.647  11.537  0.00  0.00    +0.000 HD
BRANCH   5  15
ATOM     15  C   UNL     1      43.197   3.725  11.634  0.00  0.00    +0.000 C 
BRANCH  15  16
ATOM     16  N   UNL     1      43.027   2.266  11.606  0.00  0.00    +0.000 NA
ATOM     17  H   UNL     1      42.204   2.051  11.046  0.00  0.00    +0.000 HD
ATOM     18  H   UNL     1      42.791   1.969  12.555  0.00  0.00    +0.000 HD
ENDBRANCH  15  16
ENDBRANCH   5  15
ENDBRANCH   1  10
BRANCH   3  19
ATOM     19  C   UNL     1      48.523   9.205  15.167  0.00  0.00    +0.000 C 
BRANCH  19  20
ATOM     20  C   UNL     1      49.514   8.447  16.007  0.00  0.00    +0.000 A 
ATOM     21  C   UNL     1      49.999   7.206  15.581  0.00  0.00    +0.000 A 
ATOM     22  C   UNL     1      50.826   6.448  16.410  0.00  0.00    +0.000 A 
ATOM     23  C   UNL     1      51.201   6.919  17.678  0.00  0.00    +0.000 A 
ATOM     24  C   UNL     1      50.731   8.170  18.096  0.00  0.00    +0.000 A 
ATOM     25  C   UNL     1      49.891   8.924  17.270  0.00  0.00    +0.000 A 
BRANCH  23  26
ATOM     26  C   UNL     1      52.101   6.086  18.568  0.00  0.00    +0.000 C 
BRANCH  26  27
ATOM     27  C   UNL     1      51.573   4.649  18.686  0.00  0.00    +0.000 C 
BRANCH  27  28
ATOM     28  N   UNL     1      50.566   4.476  19.741  0.00  0.00    +0.000 NA
ATOM     29  H   UNL     1      50.494   5.338  20.287  0.00  0.00    +0.000 HD
BRANCH  28  30
ATOM     30  C   UNL     1      49.239   4.153  19.175  0.00  0.00    +0.000 C 
ATOM     31  C   UNL     1      49.428   3.402  17.843  0.00  0.00    +0.000 C 
ATOM     32  C   UNL     1      48.092   3.100  17.161  0.00  0.00    +0.000 C 
ATOM     33  C   UNL     1      47.265   4.366  16.961  0.00  0.00    +0.000 C 
ATOM     34  C   UNL     1      47.045   5.088  18.281  0.00  0.00    +0.000 C 
ATOM     35  C   UNL     1      48.367   5.405  18.969  0.00  0.00    +0.000 C 
ENDBRANCH  28  30
ENDBRANCH  27  28
ENDBRANCH  26  27
ENDBRANCH  23  26
ENDBRANCH  19  20
ENDBRANCH   3  19
TORSDOF 9
ENDMDL
MODEL 5
REMARK VINA RESULT:    -6.616      4.263     10.054
REMARK INTER + INTRA:         -11.351
REMARK INTER:                  -9.195
REMARK INTRA:                  -2.156
REMARK UNBOUND:                -1.448
REMARK  Name = 
REMARK  9 active torsions:
REMARK  status: ('A' for Active; 'I' for Inactive)
REMARK    1  A    between atoms: N_1  and  C_2
REMARK    2  A    between atoms: C_2  and  C_3
REMARK    3  A    between atoms: C_8  and  C_9
REMARK    4  A    between atoms: N_11  and  C_12
REMARK    5  A    between atoms: C_12  and  C_13
REMARK    6  A    between atoms: C_16  and  C_17
REMARK    7  A    between atoms: C_17  and  C_18
REMARK    8  A    between atoms: C_18  and  N_19
REMARK    9  A    between atoms: N_19  and  C_20
REMARK                            x       y       z     vdW  Elec       q    Type
REMARK                         _______ _______ _______ _____ _____    ______ ____
ROOT
ATOM      1  C   UNL     1      46.764   4.302  14.250  0.00  0.00    +0.000 C 
ATOM      2  O   UNL     1      47.415   3.441  13.667  0.00  0.00    +0.000 OA
ATOM      3  N   UNL     1      46.649   4.340  15.618  0.00  0.00    +0.000 N 
ATOM      4  H   UNL     1      46.345   5.203  16.046  0.00  0.00    +0.000 HD
ENDROOT
BRANCH   1  10
ATOM      5  C   UNL     1      45.579   8.662  12.043  0.00  0.00    +0.000 A 
ATOM      6  N   UNL     1      46.793   9.278  12.103  0.00  0.00    +0.000 NA
ATOM      7  C   UNL     1      47.846   8.623  12.635  0.00  0.00    +0.000 A 
ATOM      8  C   UNL     1      47.806   7.338  13.146  0.00  0.00    +0.000 A 
ATOM      9  C   UNL     1      46.573   6.666  13.095  0.00  0.00    +0.000 A 
ATOM     10  C   UNL     1      46.086   5.384  13.541  0.00  0.00    +0.000 A 
ATOM     11  C   UNL     1      44.739   5.347  13.221  0.00  0.00    +0.000 A 
ATOM     12  N   UNL     1      44.394   6.527  12.630  0.00  0.00    +0.000 N 
ATOM     13  C   UNL     1      45.491   7.353  12.538  0.00  0.00    +0.000 A 
ATOM     14  H   UNL     1      43.461   6.799  12.345  0.00  0.00    +0.000 HD
BRANCH   5  15
ATOM     15  C   UNL     1      44.409   9.435  11.485  0.00  0.00    +0.000 C 
BRANCH  15  16
ATOM     16  N   UNL     1      43.437   8.568  10.806  0.00  0.00    +0.000 NA
ATOM     17  H   UNL     1      42.877   9.144  10.180  0.00  0.00    +0.000 HD
ATOM     18  H   UNL     1      42.784   8.230  11.516  0.00  0.00    +0.000 HD
ENDBRANCH  15  16
ENDBRANCH   5  15
ENDBRANCH   1  10
BRANCH   3  19
ATOM     19  C   UNL     1      47.316   3.363  16.444  0.00  0.00    +0.000 C 
BRANCH  19  20
ATOM     20  C   UNL     1      48.571   3.953  17.026  0.00  0.00    +0.000 A 
ATOM     21  C   UNL     1      48.749   5.340  17.063  0.00  0.00    +0.000 A 
ATOM     22  C   UNL     1      49.958   5.886  17.494  0.00  0.00    +0.000 A 
ATOM     23  C   UNL     1      51.012   5.060  17.913  0.00  0.00    +0.000 A 
ATOM     24  C   UNL     1      50.826   3.673  17.895  0.00  0.00    +0.000 A 
ATOM     25  C   UNL     1      49.619   3.125  17.450  0.00  0.00    +0.000 A 
BRANCH  23  26
ATOM     26  C   UNL     1      52.321   5.666  18.380  0.00  0.00    +0.000 C 
BRANCH  26  27
ATOM     27  C   UNL     1      52.100   6.561  19.607  0.00  0.00    +0.000 C 
BRANCH  27  28
ATOM     28  N   UNL     1      51.755   5.817  20.825  0.00  0.00    +0.000 NA
ATOM     29  H   UNL     1      52.441   6.022  21.555  0.00  0.00    +0.000 HD
BRANCH  28  30
ATOM     30  C   UNL     1      50.408   6.175  21.317  0.00  0.00    +0.000 C 
ATOM     31  C   UNL     1      49.462   4.976  21.113  0.00  0.00    +0.000 C 
ATOM     32  C   UNL     1      48.027   5.301  21.531  0.00  0.00    +0.000 C 
ATOM     33  C   UNL     1      47.499   6.539  20.813  0.00  0.00    +0.000 C 
ATOM     34  C   UNL     1      48.412   7.733  21.044  0.00  0.00    +0.000 C 
ATOM     35  C   UNL     1      49.845   7.429  20.624  0.00  0.00    +0.000 C 
ENDBRANCH  28  30
ENDBRANCH  27  28
ENDBRANCH  26  27
ENDBRANCH  23  26
ENDBRANCH  19  20
ENDBRANCH   3  19
TORSDOF 9
ENDMDL
MODEL 6
REMARK VINA RESULT:    -6.585      1.930      3.021
REMARK INTER + INTRA:         -11.305
REMARK INTER:                 -10.310
REMARK INTRA:                  -0.995
REMARK UNBOUND:                -1.448
REMARK  Name = 
REMARK  9 active torsions:
REMARK  status: ('A' for Active; 'I' for Inactive)
REMARK    1  A    between atoms: N_1  and  C_2
REMARK    2  A    between atoms: C_2  and  C_3
REMARK    3  A    between atoms: C_8  and  C_9
REMARK    4  A    between atoms: N_11  and  C_12
REMARK    5  A    between atoms: C_12  and  C_13
REMARK    6  A    between atoms: C_16  and  C_17
REMARK    7  A    between atoms: C_17  and  C_18
REMARK    8  A    between atoms: C_18  and  N_19
REMARK    9  A    between atoms: N_19  and  C_20
REMARK                            x       y       z     vdW  Elec       q    Type
REMARK                         _______ _______ _______ _____ _____    ______ ____
ROOT
ATOM      1  C   UNL     1      47.902   8.373  13.204  0.00  0.00    +0.000 C 
ATOM      2  O   UNL     1      47.771   9.305  12.416  0.00  0.00    +0.000 OA
ATOM      3  N   UNL     1      46.862   7.546  13.548  0.00  0.00    +0.000 N 
ATOM      4  H   UNL     1      47.082   6.654  13.967  0.00  0.00    +0.000 HD
ENDROOT
BRANCH   1  10
ATOM      5  C   UNL     1      51.544   6.687  16.234  0.00  0.00    +0.000 A 
ATOM      6  N   UNL     1      50.788   5.972  17.113  0.00  0.00    +0.000 NA
ATOM      7  C   UNL     1      49.452   5.894  16.933  0.00  0.00    +0.000 A 
ATOM      8  C   UNL     1      48.754   6.497  15.902  0.00  0.00    +0.000 A 
ATOM      9  C   UNL     1      49.501   7.237  14.970  0.00  0.00    +0.000 A 
ATOM     10  C   UNL     1      49.188   8.039  13.813  0.00  0.00    +0.000 A 
ATOM     11  C   UNL     1      50.392   8.543  13.352  0.00  0.00    +0.000 A 
ATOM     12  N   UNL     1      51.394   8.106  14.168  0.00  0.00    +0.000 N 
ATOM     13  C   UNL     1      50.882   7.306  15.164  0.00  0.00    +0.000 A 
ATOM     14  H   UNL     1      52.371   8.366  14.102  0.00  0.00    +0.000 HD
BRANCH   5  15
ATOM     15  C   UNL     1      53.028   6.794  16.486  0.00  0.00    +0.000 C 
BRANCH  15  16
ATOM     16  N   UNL     1      53.822   6.537  15.277  0.00  0.00    +0.000 NA
ATOM     17  H   UNL     1      54.749   6.938  15.412  0.00  0.00    +0.000 HD
ATOM     18  H   UNL     1      53.403   7.078  14.518  0.00  0.00    +0.000 HD
ENDBRANCH  15  16
ENDBRANCH   5  15
ENDBRANCH   1  10
BRANCH   3  19
ATOM     19  C   UNL     1      45.551   7.729  12.975  0.00  0.00    +0.000 C 
BRANCH  19  20
ATOM     20  C   UNL     1      45.038   6.420  12.438  0.00  0.00    +0.000 A 
ATOM     21  C   UNL     1      45.490   5.210  12.973  0.00  0.00    +0.000 A 
ATOM     22  C   UNL     1      45.107   3.997  12.400  0.00  0.00    +0.000 A 
ATOM     23  C   UNL     1      44.250   3.965  11.290  0.00  0.00    +0.000 A 
ATOM     24  C   UNL     1      43.781   5.176  10.768  0.00  0.00    +0.000 A 
ATOM     25  C   UNL     1      44.176   6.392  11.333  0.00  0.00    +0.000 A 
BRANCH  23  26
ATOM     26  C   UNL     1      43.840   2.639  10.678  0.00  0.00    +0.000 C 
BRANCH  26  27
ATOM     27  C   UNL     1      44.401   2.499   9.257  0.00  0.00    +0.000 C 
BRANCH  27  28
ATOM     28  N   UNL     1      45.568   1.611   9.168  0.00  0.00    +0.000 NA
ATOM     29  H   UNL     1      45.255   0.657   8.976  0.00  0.00    +0.000 HD
BRANCH  28  30
ATOM     30  C   UNL     1      46.495   2.039   8.100  0.00  0.00    +0.000 C 
ATOM     31  C   UNL     1      45.833   3.161   7.277  0.00  0.00    +0.000 C 
ATOM     32  C   UNL     1      46.708   3.603   6.103  0.00  0.00    +0.000 C 
ATOM     33  C   UNL     1      47.088   2.425   5.211  0.00  0.00    +0.000 C 
ATOM     34  C   UNL     1      47.776   1.333   6.015  0.00  0.00    +0.000 C 
ATOM     35  C   UNL     1      46.913   0.874   7.184  0.00  0.00    +0.000 C 
ENDBRANCH  28  30
ENDBRANCH  27  28
ENDBRANCH  26  27
ENDBRANCH  23  26
ENDBRANCH  19  20
ENDBRANCH   3  19
TORSDOF 9
ENDMDL
MODEL 7
REMARK VINA RESULT:    -6.489      4.232      9.489
REMARK INTER + INTRA:         -11.162
REMARK INTER:                  -8.893
REMARK INTRA:                  -2.269
REMARK UNBOUND:                -1.448
REMARK  Name = 
REMARK  9 active torsions:
REMARK  status: ('A' for Active; 'I' for Inactive)
REMARK    1  A    between atoms: N_1  and  C_2
REMARK    2  A    between atoms: C_2  and  C_3
REMARK    3  A    between atoms: C_8  and  C_9
REMARK    4  A    between atoms: N_11  and  C_12
REMARK    5  A    between atoms: C_12  and  C_13
REMARK    6  A    between atoms: C_16  and  C_17
REMARK    7  A    between atoms: C_17  and  C_18
REMARK    8  A    between atoms: C_18  and  N_19
REMARK    9  A    between atoms: N_19  and  C_20
REMARK                            x       y       z     vdW  Elec       q    Type
REMARK                         _______ _______ _______ _____ _____    ______ ____
ROOT
ATOM      1  C   UNL     1      46.381   4.287  13.969  0.00  0.00    +0.000 C 
ATOM      2  O   UNL     1      46.498   3.196  13.419  0.00  0.00    +0.000 OA
ATOM      3  N   UNL     1      46.871   4.534  15.227  0.00  0.00    +0.000 N 
ATOM      4  H   UNL     1      46.992   5.496  15.510  0.00  0.00    +0.000 HD
ENDROOT
BRANCH   1  10
ATOM      5  C   UNL     1      45.378   8.778  11.944  0.00  0.00    +0.000 A 
ATOM      6  N   UNL     1      46.625   9.325  11.988  0.00  0.00    +0.000 NA
ATOM      7  C   UNL     1      47.655   8.596  12.468  0.00  0.00    +0.000 A 
ATOM      8  C   UNL     1      47.559   7.298  12.936  0.00  0.00    +0.000 A 
ATOM      9  C   UNL     1      46.289   6.697  12.899  0.00  0.00    +0.000 A 
ATOM     10  C   UNL     1      45.745   5.428  13.316  0.00  0.00    +0.000 A 
ATOM     11  C   UNL     1      44.390   5.475  13.034  0.00  0.00    +0.000 A 
ATOM     12  N   UNL     1      44.094   6.692  12.493  0.00  0.00    +0.000 N 
ATOM     13  C   UNL     1      45.232   7.459  12.397  0.00  0.00    +0.000 A 
ATOM     14  H   UNL     1      43.170   7.023  12.244  0.00  0.00    +0.000 HD
BRANCH   5  15
ATOM     15  C   UNL     1      44.238   9.633  11.445  0.00  0.00    +0.000 C 
BRANCH  15  16
ATOM     16  N   UNL     1      43.204   8.844  10.762  0.00  0.00    +0.000 NA
ATOM     17  H   UNL     1      42.298   9.101  11.150  0.00  0.00    +0.000 HD
ATOM     18  H   UNL     1      43.342   7.867  11.028  0.00  0.00    +0.000 HD
ENDBRANCH  15  16
ENDBRANCH   5  15
ENDBRANCH   1  10
BRANCH   3  19
ATOM     19  C   UNL     1      47.571   3.509  15.963  0.00  0.00    +0.000 C 
BRANCH  19  20
ATOM     20  C   UNL     1      48.073   4.067  17.268  0.00  0.00    +0.000 A 
ATOM     21  C   UNL     1      47.241   4.862  18.063  0.00  0.00    +0.000 A 
ATOM     22  C   UNL     1      47.739   5.475  19.213  0.00  0.00    +0.000 A 
ATOM     23  C   UNL     1      49.074   5.295  19.604  0.00  0.00    +0.000 A 
ATOM     24  C   UNL     1      49.901   4.483  18.819  0.00  0.00    +0.000 A 
ATOM     25  C   UNL     1      49.405   3.879  17.658  0.00  0.00    +0.000 A 
BRANCH  23  26
ATOM     26  C   UNL     1      49.602   5.966  20.857  0.00  0.00    +0.000 C 
BRANCH  26  27
ATOM     27  C   UNL     1      50.613   7.065  20.502  0.00  0.00    +0.000 C 
BRANCH  27  28
ATOM     28  N   UNL     1      50.023   8.409  20.436  0.00  0.00    +0.000 NA
ATOM     29  H   UNL     1      50.633   9.072  20.919  0.00  0.00    +0.000 HD
BRANCH  28  30
ATOM     30  C   UNL     1      49.841   8.853  19.037  0.00  0.00    +0.000 C 
ATOM     31  C   UNL     1      48.340   8.832  18.692  0.00  0.00    +0.000 C 
ATOM     32  C   UNL     1      48.082   9.208  17.233  0.00  0.00    +0.000 C 
ATOM     33  C   UNL     1      48.873   8.323  16.275  0.00  0.00    +0.000 C 
ATOM     34  C   UNL     1      50.360   8.373  16.591  0.00  0.00    +0.000 C 
ATOM     35  C   UNL     1      50.636   7.991  18.040  0.00  0.00    +0.000 C 
ENDBRANCH  28  30
ENDBRANCH  27  28
ENDBRANCH  26  27
ENDBRANCH  23  26
ENDBRANCH  19  20
ENDBRANCH   3  19
TORSDOF 9
ENDMDL
MODEL 8
REMARK VINA RESULT:    -6.217      3.933      9.258
REMARK INTER + INTRA:         -10.754
REMARK INTER:                  -8.476
REMARK INTRA:                  -2.278
REMARK UNBOUND:                -1.448
REMARK  Name = 
REMARK  9 active torsions:
REMARK  status: ('A' for Active; 'I' for Inactive)
REMARK    1  A    between atoms: N_1  and  C_2
REMARK    2  A    between atoms: C_2  and  C_3
REMARK    3  A    between atoms: C_8  and  C_9
REMARK    4  A    between atoms: N_11  and  C_12
REMARK    5  A    between atoms: C_12  and  C_13
REMARK    6  A    between atoms: C_16  and  C_17
REMARK    7  A    between atoms: C_17  and  C_18
REMARK    8  A    between atoms: C_18  and  N_19
REMARK    9  A    between atoms: N_19  and  C_20
REMARK                            x       y       z     vdW  Elec       q    Type
REMARK                         _______ _______ _______ _____ _____    ______ ____
ROOT
ATOM      1  C   UNL     1      47.058   4.001  14.939  0.00  0.00    +0.000 C 
ATOM      2  O   UNL     1      47.586   3.021  14.421  0.00  0.00    +0.000 OA
ATOM      3  N   UNL     1      46.956   4.150  16.299  0.00  0.00    +0.000 N 
ATOM      4  H   UNL     1      46.772   5.074  16.664  0.00  0.00    +0.000 HD
ENDROOT
BRANCH   1  10
ATOM      5  C   UNL     1      44.353   6.896  11.843  0.00  0.00    +0.000 A 
ATOM      6  N   UNL     1      43.334   6.035  11.567  0.00  0.00    +0.000 NA
ATOM      7  C   UNL     1      43.315   4.817  12.150  0.00  0.00    +0.000 A 
ATOM      8  C   UNL     1      44.270   4.345  13.032  0.00  0.00    +0.000 A 
ATOM      9  C   UNL     1      45.334   5.208  13.348  0.00  0.00    +0.000 A 
ATOM     10  C   UNL     1      46.527   5.110  14.151  0.00  0.00    +0.000 A 
ATOM     11  C   UNL     1      47.192   6.317  14.007  0.00  0.00    +0.000 A 
ATOM     12  N   UNL     1      46.480   7.115  13.160  0.00  0.00    +0.000 N 
ATOM     13  C   UNL     1      45.340   6.467  12.742  0.00  0.00    +0.000 A 
ATOM     14  H   UNL     1      46.759   8.031  12.830  0.00  0.00    +0.000 HD
BRANCH   5  15
ATOM     15  C   UNL     1      44.372   8.233  11.141  0.00  0.00    +0.000 C 
BRANCH  15  16
ATOM     16  N   UNL     1      44.512   9.355  12.079  0.00  0.00    +0.000 NA
ATOM     17  H   UNL     1      45.490   9.638  12.095  0.00  0.00    +0.000 HD
ATOM     18  H   UNL     1      44.320   8.995  13.015  0.00  0.00    +0.000 HD
ENDBRANCH  15  16
ENDBRANCH   5  15
ENDBRANCH   1  10
BRANCH   3  19
ATOM     19  C   UNL     1      47.490   3.154  17.195  0.00  0.00    +0.000 C 
BRANCH  19  20
ATOM     20  C   UNL     1      48.663   3.719  17.951  0.00  0.00    +0.000 A 
ATOM     21  C   UNL     1      49.965   3.533  17.476  0.00  0.00    +0.000 A 
ATOM     22  C   UNL     1      51.059   3.953  18.232  0.00  0.00    +0.000 A 
ATOM     23  C   UNL     1      50.878   4.583  19.473  0.00  0.00    +0.000 A 
ATOM     24  C   UNL     1      49.573   4.786  19.938  0.00  0.00    +0.000 A 
ATOM     25  C   UNL     1      48.477   4.353  19.186  0.00  0.00    +0.000 A 
BRANCH  23  26
ATOM     26  C   UNL     1      52.076   5.035  20.284  0.00  0.00    +0.000 C 
BRANCH  26  27
ATOM     27  C   UNL     1      52.880   6.098  19.523  0.00  0.00    +0.000 C 
BRANCH  27  28
ATOM     28  N   UNL     1      52.239   7.420  19.504  0.00  0.00    +0.000 NA
ATOM     29  H   UNL     1      52.889   8.118  19.872  0.00  0.00    +0.000 HD
BRANCH  28  30
ATOM     30  C   UNL     1      51.840   7.809  18.135  0.00  0.00    +0.000 C 
ATOM     31  C   UNL     1      50.309   7.695  18.005  0.00  0.00    +0.000 C 
ATOM     32  C   UNL     1      49.829   8.010  16.587  0.00  0.00    +0.000 C 
ATOM     33  C   UNL     1      50.531   7.140  15.549  0.00  0.00    +0.000 C 
ATOM     34  C   UNL     1      52.042   7.281  15.651  0.00  0.00    +0.000 C 
ATOM     35  C   UNL     1      52.538   6.960  17.057  0.00  0.00    +0.000 C 
ENDBRANCH  28  30
ENDBRANCH  27  28
ENDBRANCH  26  27
ENDBRANCH  23  26
ENDBRANCH  19  20
ENDBRANCH   3  19
TORSDOF 9
ENDMDL
MODEL 9
REMARK VINA RESULT:    -6.020      4.070      6.220
REMARK INTER + INTRA:         -10.460
REMARK INTER:                  -9.303
REMARK INTRA:                  -1.157
REMARK UNBOUND:                -1.448
REMARK  Name = 
REMARK  9 active torsions:
REMARK  status: ('A' for Active; 'I' for Inactive)
REMARK    1  A    between atoms: N_1  and  C_2
REMARK    2  A    between atoms: C_2  and  C_3
REMARK    3  A    between atoms: C_8  and  C_9
REMARK    4  A    between atoms: N_11  and  C_12
REMARK    5  A    between atoms: C_12  and  C_13
REMARK    6  A    between atoms: C_16  and  C_17
REMARK    7  A    between atoms: C_17  and  C_18
REMARK    8  A    between atoms: C_18  and  N_19
REMARK    9  A    between atoms: N_19  and  C_20
REMARK                            x       y       z     vdW  Elec       q    Type
REMARK                         _______ _______ _______ _____ _____    ______ ____
ROOT
ATOM      1  C   UNL     1      48.546   8.875  12.691  0.00  0.00    +0.000 C 
ATOM      2  O   UNL     1      48.448   9.668  13.623  0.00  0.00    +0.000 OA
ATOM      3  N   UNL     1      47.484   8.131  12.242  0.00  0.00    +0.000 N 
ATOM      4  H   UNL     1      47.548   7.717  11.322  0.00  0.00    +0.000 HD
ENDROOT
BRANCH   1  10
ATOM      5  C   UNL     1      52.607   9.484   9.789  0.00  0.00    +0.000 A 
ATOM      6  N   UNL     1      52.505  10.820   9.542  0.00  0.00    +0.000 NA
ATOM      7  C   UNL     1      51.497  11.525  10.098  0.00  0.00    +0.000 A 
ATOM      8  C   UNL     1      50.521  10.997  10.924  0.00  0.00    +0.000 A 
ATOM      9  C   UNL     1      50.597   9.623  11.209  0.00  0.00    +0.000 A 
ATOM     10  C   UNL     1      49.793   8.686  11.953  0.00  0.00    +0.000 A 
ATOM     11  C   UNL     1      50.399   7.450  11.805  0.00  0.00    +0.000 A 
ATOM     12  N   UNL     1      51.499   7.591  11.011  0.00  0.00    +0.000 N 
ATOM     13  C   UNL     1      51.647   8.905  10.632  0.00  0.00    +0.000 A 
ATOM     14  H   UNL     1      52.100   6.841  10.688  0.00  0.00    +0.000 HD
BRANCH   5  15
ATOM     15  C   UNL     1      53.717   8.713   9.117  0.00  0.00    +0.000 C 
BRANCH  15  16
ATOM     16  N   UNL     1      54.600   8.046  10.083  0.00  0.00    +0.000 NA
ATOM     17  H   UNL     1      54.808   8.703  10.833  0.00  0.00    +0.000 HD
ATOM     18  H   UNL     1      55.493   7.880   9.615  0.00  0.00    +0.000 HD
ENDBRANCH  15  16
ENDBRANCH   5  15
ENDBRANCH   1  10
BRANCH   3  19
ATOM     19  C   UNL     1      46.180   8.262  12.845  0.00  0.00    +0.000 C 
BRANCH  19  20
ATOM     20  C   UNL     1      45.352   7.042  12.547  0.00  0.00    +0.000 A 
ATOM     21  C   UNL     1      45.534   5.867  13.283  0.00  0.00    +0.000 A 
ATOM     22  C   UNL     1      44.852   4.701  12.933  0.00  0.00    +0.000 A 
ATOM     23  C   UNL     1      43.960   4.687  11.850  0.00  0.00    +0.000 A 
ATOM     24  C   UNL     1      43.762   5.869  11.126  0.00  0.00    +0.000 A 
ATOM     25  C   UNL     1      44.457   7.034  11.469  0.00  0.00    +0.000 A 
BRANCH  23  26
ATOM     26  C   UNL     1      43.224   3.414  11.481  0.00  0.00    +0.000 C 
BRANCH  26  27
ATOM     27  C   UNL     1      44.205   2.337  10.999  0.00  0.00    +0.000 C 
BRANCH  27  28
ATOM     28  N   UNL     1      44.154   2.099   9.551  0.00  0.00    +0.000 NA
ATOM     29  H   UNL     1      43.439   2.698   9.132  0.00  0.00    +0.000 HD
BRANCH  28  30
ATOM     30  C   UNL     1      45.455   2.382   8.909  0.00  0.00    +0.000 C 
ATOM     31  C   UNL     1      45.299   3.587   7.962  0.00  0.00    +0.000 C 
ATOM     32  C   UNL     1      46.591   3.891   7.203  0.00  0.00    +0.000 C 
ATOM     33  C   UNL     1      47.102   2.668   6.448  0.00  0.00    +0.000 C 
ATOM     34  C   UNL     1      47.293   1.488   7.388  0.00  0.00    +0.000 C 
ATOM     35  C   UNL     1      46.011   1.166   8.146  0.00  0.00    +0.000 C 
ENDBRANCH  28  30
ENDBRANCH  27  28
ENDBRANCH  26  27
ENDBRANCH  23  26
ENDBRANCH  19  20
ENDBRANCH   3  19
TORSDOF 9
ENDMDL
