MODEL 1
REMARK VINA RESULT:    -8.350      0.000      0.000
REMARK INTER + INTRA:         -13.118
REMARK INTER:                 -12.255
REMARK INTRA:                  -0.863
REMARK UNBOUND:                -0.863
REMARK  Name = 
REMARK  9 active torsions:
REMARK  status: ('A' for Active; 'I' for Inactive)
REMARK    1  A    between atoms: C_1  and  C_2
REMARK    2  A    between atoms: C_2  and  C_3
REMARK    3  A    between atoms: C_2  and  N_10
REMARK    4  A    between atoms: C_3  and  C_4
REMARK    5  A    between atoms: N_10  and  C_11
REMARK    6  A    between atoms: C_11  and  C_12
REMARK    7  A    between atoms: C_15  and  C_16
REMARK    8  A    between atoms: C_16  and  N_17
REMARK    9  A    between atoms: C_18  and  C_20
REMARK                            x       y       z     vdW  Elec       q    Type
REMARK                         _______ _______ _______ _____ _____    ______ ____
ROOT
ATOM      1  C   UNL     1      46.457   4.603  13.303  0.00  0.00    +0.000 A 
ATOM      2  C   UNL     1      46.937   5.792  12.775  0.00  0.00    +0.000 A 
ATOM      3  C   UNL     1      47.795   6.560  13.547  0.00  0.00    +0.000 A 
ATOM      4  C   UNL     1      48.119   6.116  14.820  0.00  0.00    +0.000 A 
ATOM      5  N   UNL     1      47.636   4.950  15.308  0.00  0.00    +0.000 NA
ATOM      6  N   UNL     1      46.799   4.188  14.545  0.00  0.00    +0.000 NA
ENDROOT
BRANCH   1   7
ATOM      7  C   UNL     1      45.554   3.705  12.497  0.00  0.00    +0.000 C 
BRANCH   7   8
ATOM      8  N   UNL     1      45.446   4.055  11.070  0.00  0.00    +0.000 NA
ATOM      9  H   UNL     1      45.386   5.071  10.989  0.00  0.00    +0.000 HD
BRANCH   8  11
ATOM     10  C   UNL     1      43.206   3.183  11.486  0.00  0.00    +0.000 C 
ATOM     11  C   UNL     1      44.264   3.467  10.412  0.00  0.00    +0.000 C 
BRANCH  11  12
ATOM     12  C   UNL     1      44.540   2.219   9.535  0.00  0.00    +0.000 C 
BRANCH  12  13
ATOM     13  C   UNL     1      45.591   2.346   8.450  0.00  0.00    +0.000 A 
ATOM     14  C   UNL     1      46.406   1.256   8.120  0.00  0.00    +0.000 A 
ATOM     15  C   UNL     1      47.314   1.342   7.062  0.00  0.00    +0.000 A 
ATOM     16  C   UNL     1      47.432   2.523   6.332  0.00  0.00    +0.000 A 
ATOM     17  C   UNL     1      46.647   3.623   6.665  0.00  0.00    +0.000 A 
ATOM     18  C   UNL     1      45.729   3.531   7.712  0.00  0.00    +0.000 A 
ENDBRANCH  12  13
ENDBRANCH  11  12
ENDBRANCH   8  11
ENDBRANCH   7   8
ENDBRANCH   1   7
BRANCH   4  19
ATOM     19  C   UNL     1      49.048   6.903  15.701  0.00  0.00    +0.000 C 
BRANCH  19  20
ATOM     20  N   UNL     1      50.111   6.089  16.247  0.00  0.00    +0.000 N 
ATOM     21  C   UNL     1      50.084   5.598  17.525  0.00  0.00    +0.000 C 
ATOM     22  O   UNL     1      49.148   5.823  18.285  0.00  0.00    +0.000 OA
ATOM     23  H   UNL     1      50.980   6.076  15.720  0.00  0.00    +0.000 HD
BRANCH  21  24
ATOM     24  C   UNL     1      51.202   4.729  17.919  0.00  0.00    +0.000 A 
ATOM     25  C   UNL     1      52.308   5.282  18.551  0.00  0.00    +0.000 A 
ATOM     26  S   UNL     1      53.498   4.139  18.978  0.00  0.00    +0.000 S 
ATOM     27  C   UNL     1      52.601   2.867  18.290  0.00  0.00    +0.000 A 
ATOM     28  N   UNL     1      53.080   1.594  18.289  0.00  0.00    +0.000 NA
ATOM     29  C   UNL     1      52.313   0.736  17.704  0.00  0.00    +0.000 A 
ATOM     30  N   UNL     1      51.105   1.034  17.130  0.00  0.00    +0.000 N 
ATOM     31  C   UNL     1      50.555   2.294  17.159  0.00  0.00    +0.000 A 
ATOM     32  O   UNL     1      49.428   2.508  16.724  0.00  0.00    +0.000 OA
ATOM     33  C   UNL     1      51.395   3.305  17.769  0.00  0.00    +0.000 A 
ATOM     34  H   UNL     1      50.540   0.311  16.708  0.00  0.00    +0.000 HD
ENDBRANCH  21  24
ENDBRANCH  19  20
ENDBRANCH   4  19
TORSDOF 8
ENDMDL
MODEL 2
REMARK VINA RESULT:    -8.270      2.792      3.436
REMARK INTER + INTRA:         -13.001
REMARK INTER:                 -12.555
REMARK INTRA:                  -0.446
REMARK UNBOUND:                -0.863
REMARK  Name = 
REMARK  9 active torsions:
REMARK  status: ('A' for Active; 'I' for Inactive)
REMARK    1  A    between atoms: C_1  and  C_2
REMARK    2  A    between atoms: C_2  and  C_3
REMARK    3  A    between atoms: C_2  and  N_10
REMARK    4  A    between atoms: C_3  and  C_4
REMARK    5  A    between atoms: N_10  and  C_11
REMARK    6  A    between atoms: C_11  and  C_12
REMARK    7  A    between atoms: C_15  and  C_16
REMARK    8  A    between atoms: C_16  and  N_17
REMARK    9  A    between atoms: C_18  and  C_20
REMARK                            x       y       z     vdW  Elec       q    Type
REMARK                         _______ _______ _______ _____ _____    ______ ____
ROOT
ATOM      1  C   UNL     1      44.931   5.072  11.967  0.00  0.00    +0.000 A 
ATOM      2  C   UNL     1      45.612   6.186  11.498  0.00  0.00    +0.000 A 
ATOM      3  C   UNL     1      46.749   6.600  12.175  0.00  0.00    +0.000 A 
ATOM      4  C   UNL     1      47.145   5.893  13.301  0.00  0.00    +0.000 A 
ATOM      5  N   UNL     1      46.461   4.809  13.733  0.00  0.00    +0.000 NA
ATOM      6  N   UNL     1      45.347   4.395  13.062  0.00  0.00    +0.000 NA
ENDROOT
BRANCH   1   7
ATOM      7  C   UNL     1      43.713   4.550  11.251  0.00  0.00    +0.000 C 
BRANCH   7   8
ATOM      8  N   UNL     1      43.672   4.840   9.807  0.00  0.00    +0.000 NA
ATOM      9  H   UNL     1      42.696   4.949   9.525  0.00  0.00    +0.000 HD
BRANCH   8  11
ATOM     10  C   UNL     1      44.295   2.482   9.798  0.00  0.00    +0.000 C 
ATOM     11  C   UNL     1      44.277   3.779   8.980  0.00  0.00    +0.000 C 
BRANCH  11  12
ATOM     12  C   UNL     1      45.674   4.105   8.391  0.00  0.00    +0.000 C 
BRANCH  12  13
ATOM     13  C   UNL     1      46.303   3.076   7.474  0.00  0.00    +0.000 A 
ATOM     14  C   UNL     1      46.579   1.784   7.940  0.00  0.00    +0.000 A 
ATOM     15  C   UNL     1      47.077   0.808   7.073  0.00  0.00    +0.000 A 
ATOM     16  C   UNL     1      47.323   1.114   5.736  0.00  0.00    +0.000 A 
ATOM     17  C   UNL     1      47.078   2.401   5.266  0.00  0.00    +0.000 A 
ATOM     18  C   UNL     1      46.565   3.371   6.128  0.00  0.00    +0.000 A 
ENDBRANCH  12  13
ENDBRANCH  11  12
ENDBRANCH   8  11
ENDBRANCH   7   8
ENDBRANCH   1   7
BRANCH   4  19
ATOM     19  C   UNL     1      48.372   6.292  14.073  0.00  0.00    +0.000 C 
BRANCH  19  20
ATOM     20  N   UNL     1      48.087   6.548  15.467  0.00  0.00    +0.000 N 
ATOM     21  C   UNL     1      48.982   6.274  16.466  0.00  0.00    +0.000 C 
ATOM     22  O   UNL     1      50.085   5.791  16.233  0.00  0.00    +0.000 OA
ATOM     23  H   UNL     1      47.116   6.737  15.697  0.00  0.00    +0.000 HD
BRANCH  21  24
ATOM     24  C   UNL     1      48.581   6.651  17.829  0.00  0.00    +0.000 A 
ATOM     25  C   UNL     1      48.223   7.966  18.098  0.00  0.00    +0.000 A 
ATOM     26  S   UNL     1      47.746   8.232  19.713  0.00  0.00    +0.000 S 
ATOM     27  C   UNL     1      48.048   6.609  20.126  0.00  0.00    +0.000 A 
ATOM     28  N   UNL     1      47.867   6.167  21.400  0.00  0.00    +0.000 NA
ATOM     29  C   UNL     1      48.167   4.924  21.580  0.00  0.00    +0.000 A 
ATOM     30  N   UNL     1      48.620   4.080  20.599  0.00  0.00    +0.000 N 
ATOM     31  C   UNL     1      48.762   4.468  19.289  0.00  0.00    +0.000 A 
ATOM     32  O   UNL     1      49.074   3.664  18.416  0.00  0.00    +0.000 OA
ATOM     33  C   UNL     1      48.477   5.868  19.039  0.00  0.00    +0.000 A 
ATOM     34  H   UNL     1      48.814   3.110  20.800  0.00  0.00    +0.000 HD
ENDBRANCH  21  24
ENDBRANCH  19  20
ENDBRANCH   4  19
TORSDOF 8
ENDMDL
MODEL 3
REMARK VINA RESULT:    -7.661      4.046      9.958
REMARK INTER + INTRA:         -12.106
REMARK INTER:                 -10.117
REMARK INTRA:                  -1.989
REMARK UNBOUND:                -0.863
REMARK  Name = 
REMARK  9 active torsions:
REMARK  status: ('A' for Active; 'I' for Inactive)
REMARK    1  A    between atoms: C_1  and  C_2
REMARK    2  A    between atoms: C_2  and  C_3
REMARK    3  A    between atoms: C_2  and  N_10
REMARK    4  A    between atoms: C_3  and  C_4
REMARK    5  A    between atoms: N_10  and  C_11
REMARK    6  A    between atoms: C_11  and  C_12
REMARK    7  A    between atoms: C_15  and  C_16
REMARK    8  A    between atoms: C_16  and  N_17
REMARK    9  A    between atoms: C_18  and  C_20
REMARK                            x       y       z     vdW  Elec       q    Type
REMARK                         _______ _______ _______ _____ _____    ______ ____
ROOT
ATOM      1  C   UNL     1      51.413   4.346  17.453  0.00  0.00    +0.000 A 
ATOM      2  C   UNL     1      50.929   3.080  17.745  0.00  0.00    +0.000 A 
ATOM      3  C   UNL     1      49.597   2.802  17.476  0.00  0.00    +0.000 A 
ATOM      4  C   UNL     1      48.804   3.808  16.944  0.00  0.00    +0.000 A 
ATOM      5  N   UNL     1      49.306   5.034  16.667  0.00  0.00    +0.000 NA
ATOM      6  N   UNL     1      50.619   5.305  16.923  0.00  0.00    +0.000 NA
ENDROOT
BRANCH   1   7
ATOM      7  C   UNL     1      52.860   4.695  17.685  0.00  0.00    +0.000 C 
BRANCH   7   8
ATOM      8  N   UNL     1      53.197   5.050  19.075  0.00  0.00    +0.000 NA
ATOM      9  H   UNL     1      52.685   4.426  19.702  0.00  0.00    +0.000 HD
BRANCH   8  11
ATOM     10  C   UNL     1      54.155   7.214  19.664  0.00  0.00    +0.000 C 
ATOM     11  C   UNL     1      52.852   6.441  19.423  0.00  0.00    +0.000 C 
BRANCH  11  12
ATOM     12  C   UNL     1      51.859   6.609  20.601  0.00  0.00    +0.000 C 
BRANCH  12  13
ATOM     13  C   UNL     1      50.399   6.305  20.333  0.00  0.00    +0.000 A 
ATOM     14  C   UNL     1      49.844   5.082  20.731  0.00  0.00    +0.000 A 
ATOM     15  C   UNL     1      48.479   4.833  20.565  0.00  0.00    +0.000 A 
ATOM     16  C   UNL     1      47.656   5.796  19.984  0.00  0.00    +0.000 A 
ATOM     17  C   UNL     1      48.197   7.006  19.561  0.00  0.00    +0.000 A 
ATOM     18  C   UNL     1      49.558   7.259  19.742  0.00  0.00    +0.000 A 
ENDBRANCH  12  13
ENDBRANCH  11  12
ENDBRANCH   8  11
ENDBRANCH   7   8
ENDBRANCH   1   7
BRANCH   4  19
ATOM     19  C   UNL     1      47.355   3.564  16.626  0.00  0.00    +0.000 C 
BRANCH  19  20
ATOM     20  N   UNL     1      46.837   4.507  15.660  0.00  0.00    +0.000 N 
ATOM     21  C   UNL     1      46.778   4.234  14.319  0.00  0.00    +0.000 C 
ATOM     22  O   UNL     1      47.164   3.166  13.858  0.00  0.00    +0.000 OA
ATOM     23  H   UNL     1      46.721   5.463  15.986  0.00  0.00    +0.000 HD
BRANCH  21  24
ATOM     24  C   UNL     1      46.163   5.262  13.466  0.00  0.00    +0.000 A 
ATOM     25  C   UNL     1      46.853   6.440  13.210  0.00  0.00    +0.000 A 
ATOM     26  S   UNL     1      46.024   7.510  12.174  0.00  0.00    +0.000 S 
ATOM     27  C   UNL     1      44.689   6.459  12.068  0.00  0.00    +0.000 A 
ATOM     28  N   UNL     1      43.590   6.796  11.341  0.00  0.00    +0.000 NA
ATOM     29  C   UNL     1      42.639   5.924  11.377  0.00  0.00    +0.000 A 
ATOM     30  N   UNL     1      42.693   4.739  12.064  0.00  0.00    +0.000 N 
ATOM     31  C   UNL     1      43.804   4.331  12.762  0.00  0.00    +0.000 A 
ATOM     32  O   UNL     1      43.858   3.222  13.284  0.00  0.00    +0.000 OA
ATOM     33  C   UNL     1      44.887   5.294  12.790  0.00  0.00    +0.000 A 
ATOM     34  H   UNL     1      41.923   4.086  12.031  0.00  0.00    +0.000 HD
ENDBRANCH  21  24
ENDBRANCH  19  20
ENDBRANCH   4  19
TORSDOF 8
ENDMDL
MODEL 4
REMARK VINA RESULT:    -7.428      4.285      8.843
REMARK INTER + INTRA:         -11.765
REMARK INTER:                 -10.050
REMARK INTRA:                  -1.716
REMARK UNBOUND:                -0.863
REMARK  Name = 
REMARK  9 active torsions:
REMARK  status: ('A' for Active; 'I' for Inactive)
REMARK    1  A    between atoms: C_1  and  C_2
REMARK    2  A    between atoms: C_2  and  C_3
REMARK    3  A    between atoms: C_2  and  N_10
REMARK    4  A    between atoms: C_3  and  C_4
REMARK    5  A    between atoms: N_10  and  C_11
REMARK    6  A    between atoms: C_11  and  C_12
REMARK    7  A    between atoms: C_15  and  C_16
REMARK    8  A    between atoms: C_16  and  N_17
REMARK    9  A    between atoms: C_18  and  C_20
REMARK                            x       y       z     vdW  Elec       q    Type
REMARK                         _______ _______ _______ _____ _____    ______ ____
ROOT
ATOM      1  C   UNL     1      48.783   8.010  16.260  0.00  0.00    +0.000 A 
ATOM      2  C   UNL     1      49.199   6.896  15.546  0.00  0.00    +0.000 A 
ATOM      3  C   UNL     1      49.080   6.914  14.164  0.00  0.00    +0.000 A 
ATOM      4  C   UNL     1      48.532   8.036  13.560  0.00  0.00    +0.000 A 
ATOM      5  N   UNL     1      48.137   9.109  14.284  0.00  0.00    +0.000 NA
ATOM      6  N   UNL     1      48.263   9.096  15.643  0.00  0.00    +0.000 NA
ENDROOT
BRANCH   1   7
ATOM      7  C   UNL     1      48.924   8.067  17.759  0.00  0.00    +0.000 C 
BRANCH   7   8
ATOM      8  N   UNL     1      47.676   7.844  18.508  0.00  0.00    +0.000 NA
ATOM      9  H   UNL     1      47.522   8.641  19.128  0.00  0.00    +0.000 HD
BRANCH   8  11
ATOM     10  C   UNL     1      47.440   7.010  20.789  0.00  0.00    +0.000 C 
ATOM     11  C   UNL     1      47.698   6.618  19.328  0.00  0.00    +0.000 C 
BRANCH  11  12
ATOM     12  C   UNL     1      48.968   5.740  19.185  0.00  0.00    +0.000 C 
BRANCH  12  13
ATOM     13  C   UNL     1      48.869   4.504  18.316  0.00  0.00    +0.000 A 
ATOM     14  C   UNL     1      47.651   4.149  17.721  0.00  0.00    +0.000 A 
ATOM     15  C   UNL     1      47.576   3.061  16.848  0.00  0.00    +0.000 A 
ATOM     16  C   UNL     1      48.712   2.302  16.573  0.00  0.00    +0.000 A 
ATOM     17  C   UNL     1      49.924   2.626  17.177  0.00  0.00    +0.000 A 
ATOM     18  C   UNL     1      50.001   3.723  18.036  0.00  0.00    +0.000 A 
ENDBRANCH  12  13
ENDBRANCH  11  12
ENDBRANCH   8  11
ENDBRANCH   7   8
ENDBRANCH   1   7
BRANCH   4  19
ATOM     19  C   UNL     1      48.384   8.115  12.066  0.00  0.00    +0.000 C 
BRANCH  19  20
ATOM     20  N   UNL     1      47.651   6.991  11.526  0.00  0.00    +0.000 N 
ATOM     21  C   UNL     1      46.283   6.931  11.528  0.00  0.00    +0.000 C 
ATOM     22  O   UNL     1      45.596   7.834  11.993  0.00  0.00    +0.000 OA
ATOM     23  H   UNL     1      48.193   6.152  11.341  0.00  0.00    +0.000 HD
BRANCH  21  24
ATOM     24  C   UNL     1      45.676   5.758  10.883  0.00  0.00    +0.000 A 
ATOM     25  C   UNL     1      45.848   5.562   9.518  0.00  0.00    +0.000 A 
ATOM     26  S   UNL     1      45.116   4.139   8.931  0.00  0.00    +0.000 S 
ATOM     27  C   UNL     1      44.501   3.756  10.470  0.00  0.00    +0.000 A 
ATOM     28  N   UNL     1      43.736   2.647  10.661  0.00  0.00    +0.000 NA
ATOM     29  C   UNL     1      43.306   2.497  11.869  0.00  0.00    +0.000 A 
ATOM     30  N   UNL     1      43.582   3.350  12.907  0.00  0.00    +0.000 N 
ATOM     31  C   UNL     1      44.398   4.448  12.774  0.00  0.00    +0.000 A 
ATOM     32  O   UNL     1      44.706   5.135  13.742  0.00  0.00    +0.000 OA
ATOM     33  C   UNL     1      44.874   4.686  11.425  0.00  0.00    +0.000 A 
ATOM     34  H   UNL     1      43.236   3.162  13.837  0.00  0.00    +0.000 HD
ENDBRANCH  21  24
ENDBRANCH  19  20
ENDBRANCH   4  19
TORSDOF 8
ENDMDL
MODEL 5
REMARK VINA RESULT:    -7.184      3.849      9.041
REMARK INTER + INTRA:         -11.407
REMARK INTER:                  -9.876
REMARK INTRA:                  -1.530
REMARK UNBOUND:                -0.863
REMARK  Name = 
REMARK  9 active torsions:
REMARK  status: ('A' for Active; 'I' for Inactive)
REMARK    1  A    between atoms: C_1  and  C_2
REMARK    2  A    between atoms: C_2  and  C_3
REMARK    3  A    between atoms: C_2  and  N_10
REMARK    4  A    between atoms: C_3  and  C_4
REMARK    5  A    between atoms: N_10  and  C_11
REMARK    6  A    between atoms: C_11  and  C_12
REMARK    7  A    between atoms: C_15  and  C_16
REMARK    8  A    between atoms: C_16  and  N_17
REMARK    9  A    between atoms: C_18  and  C_20
REMARK                            x       y       z     vdW  Elec       q    Type
REMARK                         _______ _______ _______ _____ _____    ______ ____
ROOT
ATOM      1  C   UNL     1      49.479   7.449  16.279  0.00  0.00    +0.000 A 
ATOM      2  C   UNL     1      49.047   8.691  15.837  0.00  0.00    +0.000 A 
ATOM      3  C   UNL     1      48.450   8.778  14.588  0.00  0.00    +0.000 A 
ATOM      4  C   UNL     1      48.329   7.624  13.829  0.00  0.00    +0.000 A 
ATOM      5  N   UNL     1      48.758   6.425  14.289  0.00  0.00    +0.000 NA
ATOM      6  N   UNL     1      49.337   6.337  15.521  0.00  0.00    +0.000 NA
ENDROOT
BRANCH   1   7
ATOM      7  C   UNL     1      50.097   7.284  17.643  0.00  0.00    +0.000 C 
BRANCH   7   8
ATOM      8  N   UNL     1      49.146   7.343  18.766  0.00  0.00    +0.000 NA
ATOM      9  H   UNL     1      49.134   8.297  19.132  0.00  0.00    +0.000 HD
BRANCH   8  11
ATOM     10  C   UNL     1      50.995   6.148  19.816  0.00  0.00    +0.000 C 
ATOM     11  C   UNL     1      49.488   6.427  19.870  0.00  0.00    +0.000 C 
BRANCH  11  12
ATOM     12  C   UNL     1      48.664   5.115  19.929  0.00  0.00    +0.000 C 
BRANCH  12  13
ATOM     13  C   UNL     1      48.484   4.344  18.638  0.00  0.00    +0.000 A 
ATOM     14  C   UNL     1      49.458   3.430  18.214  0.00  0.00    +0.000 A 
ATOM     15  C   UNL     1      49.255   2.654  17.071  0.00  0.00    +0.000 A 
ATOM     16  C   UNL     1      48.085   2.792  16.326  0.00  0.00    +0.000 A 
ATOM     17  C   UNL     1      47.119   3.714  16.720  0.00  0.00    +0.000 A 
ATOM     18  C   UNL     1      47.316   4.478  17.872  0.00  0.00    +0.000 A 
ENDBRANCH  12  13
ENDBRANCH  11  12
ENDBRANCH   8  11
ENDBRANCH   7   8
ENDBRANCH   1   7
BRANCH   4  19
ATOM     19  C   UNL     1      47.686   7.656  12.471  0.00  0.00    +0.000 C 
BRANCH  19  20
ATOM     20  N   UNL     1      46.945   6.447  12.184  0.00  0.00    +0.000 N 
ATOM     21  C   UNL     1      45.581   6.378  12.272  0.00  0.00    +0.000 C 
ATOM     22  O   UNL     1      44.903   7.345  12.603  0.00  0.00    +0.000 OA
ATOM     23  H   UNL     1      47.491   5.592  12.125  0.00  0.00    +0.000 HD
BRANCH  21  24
ATOM     24  C   UNL     1      44.961   5.103  11.884  0.00  0.00    +0.000 A 
ATOM     25  C   UNL     1      44.237   4.380  12.824  0.00  0.00    +0.000 A 
ATOM     26  S   UNL     1      43.551   2.946  12.207  0.00  0.00    +0.000 S 
ATOM     27  C   UNL     1      44.236   3.213  10.673  0.00  0.00    +0.000 A 
ATOM     28  N   UNL     1      44.056   2.321   9.662  0.00  0.00    +0.000 NA
ATOM     29  C   UNL     1      44.660   2.630   8.564  0.00  0.00    +0.000 A 
ATOM     30  N   UNL     1      45.418   3.758   8.381  0.00  0.00    +0.000 N 
ATOM     31  C   UNL     1      45.577   4.715   9.355  0.00  0.00    +0.000 A 
ATOM     32  O   UNL     1      46.179   5.760   9.129  0.00  0.00    +0.000 OA
ATOM     33  C   UNL     1      44.953   4.396  10.624  0.00  0.00    +0.000 A 
ATOM     34  H   UNL     1      45.845   3.955   7.488  0.00  0.00    +0.000 HD
ENDBRANCH  21  24
ENDBRANCH  19  20
ENDBRANCH   4  19
TORSDOF 8
ENDMDL
MODEL 6
REMARK VINA RESULT:    -7.174      3.179      3.777
REMARK INTER + INTRA:         -11.392
REMARK INTER:                 -10.333
REMARK INTRA:                  -1.059
REMARK UNBOUND:                -0.863
REMARK  Name = 
REMARK  9 active torsions:
REMARK  status: ('A' for Active; 'I' for Inactive)
REMARK    1  A    between atoms: C_1  and  C_2
REMARK    2  A    between atoms: C_2  and  C_3
REMARK    3  A    between atoms: C_2  and  N_10
REMARK    4  A    between atoms: C_3  and  C_4
REMARK    5  A    between atoms: N_10  and  C_11
REMARK    6  A    between atoms: C_11  and  C_12
REMARK    7  A    between atoms: C_15  and  C_16
REMARK    8  A    between atoms: C_16  and  N_17
REMARK    9  A    between atoms: C_18  and  C_20
REMARK                            x       y       z     vdW  Elec       q    Type
REMARK                         _______ _______ _______ _____ _____    ______ ____
ROOT
ATOM      1  C   UNL     1      46.992   6.329  12.180  0.00  0.00    +0.000 A 
ATOM      2  C   UNL     1      47.934   7.263  11.776  0.00  0.00    +0.000 A 
ATOM      3  C   UNL     1      48.951   7.600  12.656  0.00  0.00    +0.000 A 
ATOM      4  C   UNL     1      48.970   7.003  13.908  0.00  0.00    +0.000 A 
ATOM      5  N   UNL     1      48.037   6.093  14.273  0.00  0.00    +0.000 NA
ATOM      6  N   UNL     1      47.041   5.754  13.403  0.00  0.00    +0.000 NA
ENDROOT
BRANCH   1   7
ATOM      7  C   UNL     1      45.888   5.891  11.253  0.00  0.00    +0.000 C 
BRANCH   7   8
ATOM      8  N   UNL     1      45.331   4.558  11.538  0.00  0.00    +0.000 NA
ATOM      9  H   UNL     1      46.077   3.866  11.441  0.00  0.00    +0.000 HD
BRANCH   8  11
ATOM     10  C   UNL     1      42.909   4.293  11.409  0.00  0.00    +0.000 C 
ATOM     11  C   UNL     1      44.228   4.179  10.634  0.00  0.00    +0.000 C 
BRANCH  11  12
ATOM     12  C   UNL     1      44.372   2.797   9.946  0.00  0.00    +0.000 C 
BRANCH  12  13
ATOM     13  C   UNL     1      45.333   2.695   8.778  0.00  0.00    +0.000 A 
ATOM     14  C   UNL     1      45.660   3.830   8.027  0.00  0.00    +0.000 A 
ATOM     15  C   UNL     1      46.612   3.757   7.007  0.00  0.00    +0.000 A 
ATOM     16  C   UNL     1      47.235   2.545   6.713  0.00  0.00    +0.000 A 
ATOM     17  C   UNL     1      46.902   1.403   7.435  0.00  0.00    +0.000 A 
ATOM     18  C   UNL     1      45.962   1.481   8.464  0.00  0.00    +0.000 A 
ENDBRANCH  12  13
ENDBRANCH  11  12
ENDBRANCH   8  11
ENDBRANCH   7   8
ENDBRANCH   1   7
BRANCH   4  19
ATOM     19  C   UNL     1      50.050   7.325  14.903  0.00  0.00    +0.000 C 
BRANCH  19  20
ATOM     20  N   UNL     1      49.531   7.504  16.241  0.00  0.00    +0.000 N 
ATOM     21  C   UNL     1      50.330   7.823  17.306  0.00  0.00    +0.000 C 
ATOM     22  O   UNL     1      51.540   7.976  17.185  0.00  0.00    +0.000 OA
ATOM     23  H   UNL     1      48.585   7.170  16.401  0.00  0.00    +0.000 HD
BRANCH  21  24
ATOM     24  C   UNL     1      49.653   8.040  18.593  0.00  0.00    +0.000 A 
ATOM     25  C   UNL     1      49.791   9.261  19.242  0.00  0.00    +0.000 A 
ATOM     26  S   UNL     1      48.915   9.367  20.700  0.00  0.00    +0.000 S 
ATOM     27  C   UNL     1      48.356   7.767  20.543  0.00  0.00    +0.000 A 
ATOM     28  N   UNL     1      47.562   7.208  21.495  0.00  0.00    +0.000 NA
ATOM     29  C   UNL     1      47.240   5.979  21.267  0.00  0.00    +0.000 A 
ATOM     30  N   UNL     1      47.632   5.262  20.167  0.00  0.00    +0.000 N 
ATOM     31  C   UNL     1      48.384   5.803  19.152  0.00  0.00    +0.000 A 
ATOM     32  O   UNL     1      48.635   5.166  18.134  0.00  0.00    +0.000 OA
ATOM     33  C   UNL     1      48.808   7.171  19.378  0.00  0.00    +0.000 A 
ATOM     34  H   UNL     1      47.325   4.308  20.034  0.00  0.00    +0.000 HD
ENDBRANCH  21  24
ENDBRANCH  19  20
ENDBRANCH   4  19
TORSDOF 8
ENDMDL
MODEL 7
REMARK VINA RESULT:    -7.090      3.925      9.497
REMARK INTER + INTRA:         -11.268
REMARK INTER:                  -9.283
REMARK INTRA:                  -1.985
REMARK UNBOUND:                -0.863
REMARK  Name = 
REMARK  9 active torsions:
REMARK  status: ('A' for Active; 'I' for Inactive)
REMARK    1  A    between atoms: C_1  and  C_2
REMARK    2  A    between atoms: C_2  and  C_3
REMARK    3  A    between atoms: C_2  and  N_10
REMARK    4  A    between atoms: C_3  and  C_4
REMARK    5  A    between atoms: N_10  and  C_11
REMARK    6  A    between atoms: C_11  and  C_12
REMARK    7  A    between atoms: C_15  and  C_16
REMARK    8  A    between atoms: C_16  and  N_17
REMARK    9  A    between atoms: C_18  and  C_20
REMARK                            x       y       z     vdW  Elec       q    Type
REMARK                         _______ _______ _______ _____ _____    ______ ____
ROOT
ATOM      1  C   UNL     1      49.553   5.505  17.088  0.00  0.00    +0.000 A 
ATOM      2  C   UNL     1      50.325   6.563  16.631  0.00  0.00    +0.000 A 
ATOM      3  C   UNL     1      49.998   7.145  15.415  0.00  0.00    +0.000 A 
ATOM      4  C   UNL     1      48.925   6.630  14.702  0.00  0.00    +0.000 A 
ATOM      5  N   UNL     1      48.189   5.599  15.175  0.00  0.00    +0.000 NA
ATOM      6  N   UNL     1      48.505   5.032  16.376  0.00  0.00    +0.000 NA
ENDROOT
BRANCH   1   7
ATOM      7  C   UNL     1      49.835   4.859  18.419  0.00  0.00    +0.000 C 
BRANCH   7   8
ATOM      8  N   UNL     1      48.659   4.703  19.293  0.00  0.00    +0.000 NA
ATOM      9  H   UNL     1      47.817   4.767  18.719  0.00  0.00    +0.000 HD
BRANCH   8  11
ATOM     10  C   UNL     1      48.190   5.036  21.664  0.00  0.00    +0.000 C 
ATOM     11  C   UNL     1      48.577   5.728  20.351  0.00  0.00    +0.000 C 
BRANCH  11  12
ATOM     12  C   UNL     1      47.652   6.934  20.044  0.00  0.00    +0.000 C 
BRANCH  12  13
ATOM     13  C   UNL     1      48.269   8.126  19.341  0.00  0.00    +0.000 A 
ATOM     14  C   UNL     1      49.582   8.518  19.627  0.00  0.00    +0.000 A 
ATOM     15  C   UNL     1      50.183   9.561  18.918  0.00  0.00    +0.000 A 
ATOM     16  C   UNL     1      49.474  10.237  17.927  0.00  0.00    +0.000 A 
ATOM     17  C   UNL     1      48.160   9.875  17.648  0.00  0.00    +0.000 A 
ATOM     18  C   UNL     1      47.565   8.823  18.346  0.00  0.00    +0.000 A 
ENDBRANCH  12  13
ENDBRANCH  11  12
ENDBRANCH   8  11
ENDBRANCH   7   8
ENDBRANCH   1   7
BRANCH   4  19
ATOM     19  C   UNL     1      48.519   7.223  13.381  0.00  0.00    +0.000 C 
BRANCH  19  20
ATOM     20  N   UNL     1      47.704   6.320  12.599  0.00  0.00    +0.000 N 
ATOM     21  C   UNL     1      46.505   6.691  12.054  0.00  0.00    +0.000 C 
ATOM     22  O   UNL     1      46.049   7.820  12.200  0.00  0.00    +0.000 OA
ATOM     23  H   UNL     1      47.952   5.336  12.652  0.00  0.00    +0.000 HD
BRANCH  21  24
ATOM     24  C   UNL     1      45.820   5.687  11.226  0.00  0.00    +0.000 A 
ATOM     25  C   UNL     1      45.922   5.757   9.843  0.00  0.00    +0.000 A 
ATOM     26  S   UNL     1      45.106   4.500   9.030  0.00  0.00    +0.000 S 
ATOM     27  C   UNL     1      44.544   3.844  10.496  0.00  0.00    +0.000 A 
ATOM     28  N   UNL     1      43.743   2.745  10.508  0.00  0.00    +0.000 NA
ATOM     29  C   UNL     1      43.362   2.375  11.685  0.00  0.00    +0.000 A 
ATOM     30  N   UNL     1      43.721   2.998  12.852  0.00  0.00    +0.000 N 
ATOM     31  C   UNL     1      44.575   4.074  12.891  0.00  0.00    +0.000 A 
ATOM     32  O   UNL     1      44.955   4.548  13.957  0.00  0.00    +0.000 OA
ATOM     33  C   UNL     1      44.999   4.556  11.592  0.00  0.00    +0.000 A 
ATOM     34  H   UNL     1      43.408   2.644  13.745  0.00  0.00    +0.000 HD
ENDBRANCH  21  24
ENDBRANCH  19  20
ENDBRANCH   4  19
TORSDOF 8
ENDMDL
MODEL 8
REMARK VINA RESULT:    -6.896      3.665      9.453
REMARK INTER + INTRA:         -10.983
REMARK INTER:                  -9.690
REMARK INTRA:                  -1.293
REMARK UNBOUND:                -0.863
REMARK  Name = 
REMARK  9 active torsions:
REMARK  status: ('A' for Active; 'I' for Inactive)
REMARK    1  A    between atoms: C_1  and  C_2
REMARK    2  A    between atoms: C_2  and  C_3
REMARK    3  A    between atoms: C_2  and  N_10
REMARK    4  A    between atoms: C_3  and  C_4
REMARK    5  A    between atoms: N_10  and  C_11
REMARK    6  A    between atoms: C_11  and  C_12
REMARK    7  A    between atoms: C_15  and  C_16
REMARK    8  A    between atoms: C_16  and  N_17
REMARK    9  A    between atoms: C_18  and  C_20
REMARK                            x       y       z     vdW  Elec       q    Type
REMARK                         _______ _______ _______ _____ _____    ______ ____
ROOT
ATOM      1  C   UNL     1      49.343   5.479  17.143  0.00  0.00    +0.000 A 
ATOM      2  C   UNL     1      50.032   6.615  16.746  0.00  0.00    +0.000 A 
ATOM      3  C   UNL     1      49.736   7.170  15.510  0.00  0.00    +0.000 A 
ATOM      4  C   UNL     1      48.778   6.554  14.718  0.00  0.00    +0.000 A 
ATOM      5  N   UNL     1      48.120   5.447  15.135  0.00  0.00    +0.000 NA
ATOM      6  N   UNL     1      48.404   4.905  16.355  0.00  0.00    +0.000 NA
ENDROOT
BRANCH   1   7
ATOM      7  C   UNL     1      49.591   4.853  18.491  0.00  0.00    +0.000 C 
BRANCH   7   8
ATOM      8  N   UNL     1      50.520   5.598  19.358  0.00  0.00    +0.000 NA
ATOM      9  H   UNL     1      50.755   6.481  18.900  0.00  0.00    +0.000 HD
BRANCH   8  11
ATOM     10  C   UNL     1      52.544   5.631  20.719  0.00  0.00    +0.000 C 
ATOM     11  C   UNL     1      51.774   4.871  19.632  0.00  0.00    +0.000 C 
BRANCH  11  12
ATOM     12  C   UNL     1      52.662   4.580  18.396  0.00  0.00    +0.000 C 
BRANCH  12  13
ATOM     13  C   UNL     1      52.983   3.131  18.091  0.00  0.00    +0.000 A 
ATOM     14  C   UNL     1      51.958   2.220  17.809  0.00  0.00    +0.000 A 
ATOM     15  C   UNL     1      52.255   0.905  17.441  0.00  0.00    +0.000 A 
ATOM     16  C   UNL     1      53.579   0.479  17.369  0.00  0.00    +0.000 A 
ATOM     17  C   UNL     1      54.609   1.366  17.670  0.00  0.00    +0.000 A 
ATOM     18  C   UNL     1      54.311   2.683  18.022  0.00  0.00    +0.000 A 
ENDBRANCH  12  13
ENDBRANCH  11  12
ENDBRANCH   8  11
ENDBRANCH   7   8
ENDBRANCH   1   7
BRANCH   4  19
ATOM     19  C   UNL     1      48.411   7.114  13.372  0.00  0.00    +0.000 C 
BRANCH  19  20
ATOM     20  N   UNL     1      47.578   6.211  12.609  0.00  0.00    +0.000 N 
ATOM     21  C   UNL     1      46.545   6.645  11.822  0.00  0.00    +0.000 C 
ATOM     22  O   UNL     1      46.265   7.835  11.720  0.00  0.00    +0.000 OA
ATOM     23  H   UNL     1      47.651   5.226  12.849  0.00  0.00    +0.000 HD
BRANCH  21  24
ATOM     24  C   UNL     1      45.830   5.618  11.051  0.00  0.00    +0.000 A 
ATOM     25  C   UNL     1      45.900   5.631   9.664  0.00  0.00    +0.000 A 
ATOM     26  S   UNL     1      45.050   4.354   8.921  0.00  0.00    +0.000 S 
ATOM     27  C   UNL     1      44.514   3.764  10.425  0.00  0.00    +0.000 A 
ATOM     28  N   UNL     1      43.700   2.677  10.499  0.00  0.00    +0.000 NA
ATOM     29  C   UNL     1      43.342   2.360  11.698  0.00  0.00    +0.000 A 
ATOM     30  N   UNL     1      43.735   3.025  12.831  0.00  0.00    +0.000 N 
ATOM     31  C   UNL     1      44.603   4.090  12.808  0.00  0.00    +0.000 A 
ATOM     32  O   UNL     1      45.013   4.601  13.845  0.00  0.00    +0.000 OA
ATOM     33  C   UNL     1      45.003   4.514  11.481  0.00  0.00    +0.000 A 
ATOM     34  H   UNL     1      43.439   2.711  13.744  0.00  0.00    +0.000 HD
ENDBRANCH  21  24
ENDBRANCH  19  20
ENDBRANCH   4  19
TORSDOF 8
ENDMDL
MODEL 9
REMARK VINA RESULT:    -6.732      4.471      9.411
REMARK INTER + INTRA:         -10.743
REMARK INTER:                  -8.911
REMARK INTRA:                  -1.832
REMARK UNBOUND:                -0.863
REMARK  Name = 
REMARK  9 active torsions:
REMARK  status: ('A' for Active; 'I' for Inactive)
REMARK    1  A    between atoms: C_1  and  C_2
REMARK    2  A    between atoms: C_2  and  C_3
REMARK    3  A    between atoms: C_2  and  N_10
REMARK    4  A    between atoms: C_3  and  C_4
REMARK    5  A    between atoms: N_10  and  C_11
REMARK    6  A    between atoms: C_11  and  C_12
REMARK    7  A    between atoms: C_15  and  C_16
REMARK    8  A    between atoms: C_16  and  N_17
REMARK    9  A    between atoms: C_18  and  C_20
REMARK                            x       y       z     vdW  Elec       q    Type
REMARK                         _______ _______ _______ _____ _____    ______ ____
ROOT
ATOM      1  C   UNL     1      48.694   5.823  20.133  0.00  0.00    +0.000 A 
ATOM      2  C   UNL     1      47.377   6.047  19.760  0.00  0.00    +0.000 A 
ATOM      3  C   UNL     1      46.876   5.368  18.659  0.00  0.00    +0.000 A 
ATOM      4  C   UNL     1      47.720   4.510  17.969  0.00  0.00    +0.000 A 
ATOM      5  N   UNL     1      49.000   4.310  18.359  0.00  0.00    +0.000 NA
ATOM      6  N   UNL     1      49.491   4.971  19.447  0.00  0.00    +0.000 NA
ENDROOT
BRANCH   1   7
ATOM      7  C   UNL     1      49.282   6.500  21.343  0.00  0.00    +0.000 C 
BRANCH   7   8
ATOM      8  N   UNL     1      49.351   7.969  21.260  0.00  0.00    +0.000 NA
ATOM      9  H   UNL     1      48.402   8.343  21.320  0.00  0.00    +0.000 HD
BRANCH   8  11
ATOM     10  C   UNL     1      51.359   8.997  20.332  0.00  0.00    +0.000 C 
ATOM     11  C   UNL     1      49.962   8.455  20.008  0.00  0.00    +0.000 C 
BRANCH  11  12
ATOM     12  C   UNL     1      49.119   9.481  19.208  0.00  0.00    +0.000 C 
BRANCH  12  13
ATOM     13  C   UNL     1      48.982   9.260  17.715  0.00  0.00    +0.000 A 
ATOM     14  C   UNL     1      48.866  10.350  16.843  0.00  0.00    +0.000 A 
ATOM     15  C   UNL     1      48.828  10.153  15.461  0.00  0.00    +0.000 A 
ATOM     16  C   UNL     1      48.886   8.865  14.933  0.00  0.00    +0.000 A 
ATOM     17  C   UNL     1      48.976   7.771  15.787  0.00  0.00    +0.000 A 
ATOM     18  C   UNL     1      49.030   7.969  17.168  0.00  0.00    +0.000 A 
ENDBRANCH  12  13
ENDBRANCH  11  12
ENDBRANCH   8  11
ENDBRANCH   7   8
ENDBRANCH   1   7
BRANCH   4  19
ATOM     19  C   UNL     1      47.232   3.743  16.772  0.00  0.00    +0.000 C 
BRANCH  19  20
ATOM     20  N   UNL     1      46.756   4.611  15.718  0.00  0.00    +0.000 N 
ATOM     21  C   UNL     1      46.786   4.254  14.396  0.00  0.00    +0.000 C 
ATOM     22  O   UNL     1      47.222   3.168  14.029  0.00  0.00    +0.000 OA
ATOM     23  H   UNL     1      46.600   5.582  15.975  0.00  0.00    +0.000 HD
BRANCH  21  24
ATOM     24  C   UNL     1      46.206   5.211  13.444  0.00  0.00    +0.000 A 
ATOM     25  C   UNL     1      46.956   6.304  13.030  0.00  0.00    +0.000 A 
ATOM     26  S   UNL     1      46.158   7.296  11.897  0.00  0.00    +0.000 S 
ATOM     27  C   UNL     1      44.760   6.328  11.953  0.00  0.00    +0.000 A 
ATOM     28  N   UNL     1      43.659   6.646  11.220  0.00  0.00    +0.000 NA
ATOM     29  C   UNL     1      42.659   5.846  11.385  0.00  0.00    +0.000 A 
ATOM     30  N   UNL     1      42.665   4.749  12.207  0.00  0.00    +0.000 N 
ATOM     31  C   UNL     1      43.773   4.357  12.919  0.00  0.00    +0.000 A 
ATOM     32  O   UNL     1      43.777   3.315  13.568  0.00  0.00    +0.000 OA
ATOM     33  C   UNL     1      44.912   5.245  12.802  0.00  0.00    +0.000 A 
ATOM     34  H   UNL     1      41.856   4.148  12.273  0.00  0.00    +0.000 HD
ENDBRANCH  21  24
ENDBRANCH  19  20
ENDBRANCH   4  19
TORSDOF 8
ENDMDL
