MODEL 1
REMARK VINA RESULT:    -7.108      0.000      0.000
REMARK INTER + INTRA:         -10.328
REMARK INTER:                  -9.601
REMARK INTRA:                  -0.727
REMARK UNBOUND:                -0.727
REMARK  Name = 
REMARK  7 active torsions:
REMARK  status: ('A' for Active; 'I' for Inactive)
REMARK    1  A    between atoms: C_1  and  C_2
REMARK    2  A    between atoms: C_3  and  C_4
REMARK    3  A    between atoms: C_7  and  C_8
REMARK    4  A    between atoms: C_12  and  N_13
REMARK    5  A    between atoms: N_13  and  C_14
REMARK    6  A    between atoms: C_14  and  C_15
REMARK    7  A    between atoms: C_15  and  C_16
REMARK                            x       y       z     vdW  Elec       q    Type
REMARK                         _______ _______ _______ _____ _____    ______ ____
ROOT
ATOM      1  C   UNL     1      45.197   7.157  12.428  0.00  0.00    +0.000 A 
ATOM      2  C   UNL     1      46.514   7.238  12.895  0.00  0.00    +0.000 A 
ATOM      3  N   UNL     1      47.157   6.282  13.609  0.00  0.00    +0.000 NA
ATOM      4  C   UNL     1      46.439   5.158  13.850  0.00  0.00    +0.000 A 
ATOM      5  C   UNL     1      45.122   4.983  13.452  0.00  0.00    +0.000 A 
ATOM      6  C   UNL     1      44.438   6.008  12.775  0.00  0.00    +0.000 A 
ENDROOT
BRANCH   4   7
ATOM      7  C   UNL     1      47.124   4.040  14.575  0.00  0.00    +0.000 C 
ATOM      8  N   UNL     1      47.027   4.076  15.940  0.00  0.00    +0.000 N 
ATOM      9  O   UNL     1      47.738   3.150  14.001  0.00  0.00    +0.000 OA
ATOM     10  H   UNL     1      46.532   4.833  16.389  0.00  0.00    +0.000 HD
ATOM     11  H   UNL     1      47.501   3.367  16.483  0.00  0.00    +0.000 HD
ENDBRANCH   4   7
BRANCH   1  14
ATOM     12  C   UNL     1      43.642  10.435  10.186  0.00  0.00    +0.000 C 
ATOM     13  C   UNL     1      44.225   9.262  10.957  0.00  0.00    +0.000 C 
ATOM     14  C   UNL     1      44.726   8.257  11.619  0.00  0.00    +0.000 C 
ENDBRANCH   1  14
BRANCH   6  15
ATOM     15  N   UNL     1      43.085   5.793  12.371  0.00  0.00    +0.000 N 
ATOM     16  H   UNL     1      42.547   5.359  13.119  0.00  0.00    +0.000 HD
BRANCH  15  17
ATOM     17  C   UNL     1      42.920   5.106  11.060  0.00  0.00    +0.000 C 
BRANCH  17  18
ATOM     18  C   UNL     1      43.455   3.668  11.031  0.00  0.00    +0.000 C 
BRANCH  18  19
ATOM     19  C   UNL     1      44.417   3.450   9.872  0.00  0.00    +0.000 A 
ATOM     20  C   UNL     1      44.774   2.153   9.475  0.00  0.00    +0.000 A 
ATOM     21  C   UNL     1      45.653   1.947   8.406  0.00  0.00    +0.000 A 
ATOM     22  C   UNL     1      46.192   3.033   7.722  0.00  0.00    +0.000 A 
ATOM     23  C   UNL     1      45.865   4.327   8.117  0.00  0.00    +0.000 A 
ATOM     24  C   UNL     1      44.990   4.537   9.190  0.00  0.00    +0.000 A 
ENDBRANCH  18  19
ENDBRANCH  17  18
ENDBRANCH  15  17
ENDBRANCH   6  15
TORSDOF 6
ENDMDL
MODEL 2
REMARK VINA RESULT:    -7.056      1.209      1.699
REMARK INTER + INTRA:         -10.257
REMARK INTER:                  -9.542
REMARK INTRA:                  -0.715
REMARK UNBOUND:                -0.727
REMARK  Name = 
REMARK  7 active torsions:
REMARK  status: ('A' for Active; 'I' for Inactive)
REMARK    1  A    between atoms: C_1  and  C_2
REMARK    2  A    between atoms: C_3  and  C_4
REMARK    3  A    between atoms: C_7  and  C_8
REMARK    4  A    between atoms: C_12  and  N_13
REMARK    5  A    between atoms: N_13  and  C_14
REMARK    6  A    between atoms: C_14  and  C_15
REMARK    7  A    between atoms: C_15  and  C_16
REMARK                            x       y       z     vdW  Elec       q    Type
REMARK                         _______ _______ _______ _____ _____    ______ ____
ROOT
ATOM      1  C   UNL     1      44.888   7.302  11.844  0.00  0.00    +0.000 A 
ATOM      2  C   UNL     1      45.807   7.637  12.844  0.00  0.00    +0.000 A 
ATOM      3  N   UNL     1      46.495   6.755  13.610  0.00  0.00    +0.000 NA
ATOM      4  C   UNL     1      46.262   5.447  13.339  0.00  0.00    +0.000 A 
ATOM      5  C   UNL     1      45.357   5.006  12.385  0.00  0.00    +0.000 A 
ATOM      6  C   UNL     1      44.594   5.926  11.644  0.00  0.00    +0.000 A 
ENDROOT
BRANCH   4   7
ATOM      7  C   UNL     1      47.046   4.429  14.109  0.00  0.00    +0.000 C 
ATOM      8  N   UNL     1      46.908   3.135  13.686  0.00  0.00    +0.000 N 
ATOM      9  O   UNL     1      47.761   4.719  15.059  0.00  0.00    +0.000 OA
ATOM     10  H   UNL     1      46.294   2.922  12.913  0.00  0.00    +0.000 HD
ATOM     11  H   UNL     1      47.384   2.401  14.192  0.00  0.00    +0.000 HD
ENDBRANCH   4   7
BRANCH   1  14
ATOM     12  C   UNL     1      43.115  10.601   9.803  0.00  0.00    +0.000 C 
ATOM     13  C   UNL     1      43.765   9.414  10.495  0.00  0.00    +0.000 C 
ATOM     14  C   UNL     1      44.322   8.395  11.089  0.00  0.00    +0.000 C 
ENDBRANCH   1  14
BRANCH   6  15
ATOM     15  N   UNL     1      43.678   5.440  10.663  0.00  0.00    +0.000 N 
ATOM     16  H   UNL     1      42.754   5.298  11.067  0.00  0.00    +0.000 HD
BRANCH  15  17
ATOM     17  C   UNL     1      44.156   4.270   9.876  0.00  0.00    +0.000 C 
BRANCH  17  18
ATOM     18  C   UNL     1      45.060   4.637   8.691  0.00  0.00    +0.000 C 
BRANCH  18  19
ATOM     19  C   UNL     1      45.807   3.422   8.158  0.00  0.00    +0.000 A 
ATOM     20  C   UNL     1      45.529   2.140   8.653  0.00  0.00    +0.000 A 
ATOM     21  C   UNL     1      46.208   1.018   8.163  0.00  0.00    +0.000 A 
ATOM     22  C   UNL     1      47.177   1.163   7.175  0.00  0.00    +0.000 A 
ATOM     23  C   UNL     1      47.481   2.432   6.688  0.00  0.00    +0.000 A 
ATOM     24  C   UNL     1      46.808   3.555   7.181  0.00  0.00    +0.000 A 
ENDBRANCH  18  19
ENDBRANCH  17  18
ENDBRANCH  15  17
ENDBRANCH   6  15
TORSDOF 6
ENDMDL
MODEL 3
REMARK VINA RESULT:    -6.727      2.112      4.467
REMARK INTER + INTRA:          -9.813
REMARK INTER:                  -8.993
REMARK INTRA:                  -0.820
REMARK UNBOUND:                -0.727
REMARK  Name = 
REMARK  7 active torsions:
REMARK  status: ('A' for Active; 'I' for Inactive)
REMARK    1  A    between atoms: C_1  and  C_2
REMARK    2  A    between atoms: C_3  and  C_4
REMARK    3  A    between atoms: C_7  and  C_8
REMARK    4  A    between atoms: C_12  and  N_13
REMARK    5  A    between atoms: N_13  and  C_14
REMARK    6  A    between atoms: C_14  and  C_15
REMARK    7  A    between atoms: C_15  and  C_16
REMARK                            x       y       z     vdW  Elec       q    Type
REMARK                         _______ _______ _______ _____ _____    ______ ____
ROOT
ATOM      1  C   UNL     1      46.498   5.400  13.849  0.00  0.00    +0.000 A 
ATOM      2  C   UNL     1      47.177   6.616  13.717  0.00  0.00    +0.000 A 
ATOM      3  N   UNL     1      46.736   7.693  13.021  0.00  0.00    +0.000 NA
ATOM      4  C   UNL     1      45.520   7.547  12.438  0.00  0.00    +0.000 A 
ATOM      5  C   UNL     1      44.775   6.379  12.489  0.00  0.00    +0.000 A 
ATOM      6  C   UNL     1      45.271   5.243  13.151  0.00  0.00    +0.000 A 
ENDROOT
BRANCH   4   7
ATOM      7  C   UNL     1      44.954   8.730  11.713  0.00  0.00    +0.000 C 
ATOM      8  N   UNL     1      43.806   8.494  11.007  0.00  0.00    +0.000 N 
ATOM      9  O   UNL     1      45.473   9.837  11.737  0.00  0.00    +0.000 OA
ATOM     10  H   UNL     1      43.410   7.565  10.988  0.00  0.00    +0.000 HD
ATOM     11  H   UNL     1      43.399   9.246  10.468  0.00  0.00    +0.000 HD
ENDBRANCH   4   7
BRANCH   1  14
ATOM     12  C   UNL     1      48.187   2.550  16.537  0.00  0.00    +0.000 C 
ATOM     13  C   UNL     1      47.606   3.548  15.549  0.00  0.00    +0.000 C 
ATOM     14  C   UNL     1      47.108   4.405  14.701  0.00  0.00    +0.000 C 
ENDBRANCH   1  14
BRANCH   6  15
ATOM     15  N   UNL     1      44.474   4.058  13.194  0.00  0.00    +0.000 N 
ATOM     16  H   UNL     1      45.056   3.233  13.327  0.00  0.00    +0.000 HD
BRANCH  15  17
ATOM     17  C   UNL     1      43.501   3.911  12.076  0.00  0.00    +0.000 C 
BRANCH  17  18
ATOM     18  C   UNL     1      43.734   2.673  11.199  0.00  0.00    +0.000 C 
BRANCH  18  19
ATOM     19  C   UNL     1      44.579   3.003   9.977  0.00  0.00    +0.000 A 
ATOM     20  C   UNL     1      44.841   4.336   9.628  0.00  0.00    +0.000 A 
ATOM     21  C   UNL     1      45.622   4.645   8.509  0.00  0.00    +0.000 A 
ATOM     22  C   UNL     1      46.149   3.627   7.719  0.00  0.00    +0.000 A 
ATOM     23  C   UNL     1      45.881   2.299   8.038  0.00  0.00    +0.000 A 
ATOM     24  C   UNL     1      45.095   1.986   9.154  0.00  0.00    +0.000 A 
ENDBRANCH  18  19
ENDBRANCH  17  18
ENDBRANCH  15  17
ENDBRANCH   6  15
TORSDOF 6
ENDMDL
MODEL 4
REMARK VINA RESULT:    -6.562      2.959      5.745
REMARK INTER + INTRA:          -9.590
REMARK INTER:                  -7.739
REMARK INTRA:                  -1.852
REMARK UNBOUND:                -0.727
REMARK  Name = 
REMARK  7 active torsions:
REMARK  status: ('A' for Active; 'I' for Inactive)
REMARK    1  A    between atoms: C_1  and  C_2
REMARK    2  A    between atoms: C_3  and  C_4
REMARK    3  A    between atoms: C_7  and  C_8
REMARK    4  A    between atoms: C_12  and  N_13
REMARK    5  A    between atoms: N_13  and  C_14
REMARK    6  A    between atoms: C_14  and  C_15
REMARK    7  A    between atoms: C_15  and  C_16
REMARK                            x       y       z     vdW  Elec       q    Type
REMARK                         _______ _______ _______ _____ _____    ______ ____
ROOT
ATOM      1  C   UNL     1      46.561   5.257  13.658  0.00  0.00    +0.000 A 
ATOM      2  C   UNL     1      46.708   3.870  13.550  0.00  0.00    +0.000 A 
ATOM      3  N   UNL     1      45.898   3.045  12.842  0.00  0.00    +0.000 NA
ATOM      4  C   UNL     1      44.886   3.656  12.179  0.00  0.00    +0.000 A 
ATOM      5  C   UNL     1      44.637   5.019  12.236  0.00  0.00    +0.000 A 
ATOM      6  C   UNL     1      45.439   5.859  13.030  0.00  0.00    +0.000 A 
ENDROOT
BRANCH   4   7
ATOM      7  C   UNL     1      44.000   2.800  11.326  0.00  0.00    +0.000 C 
ATOM      8  N   UNL     1      44.512   2.454  10.106  0.00  0.00    +0.000 N 
ATOM      9  O   UNL     1      42.888   2.433  11.681  0.00  0.00    +0.000 OA
ATOM     10  H   UNL     1      45.424   2.789   9.830  0.00  0.00    +0.000 HD
ATOM     11  H   UNL     1      43.944   1.908   9.473  0.00  0.00    +0.000 HD
ENDBRANCH   4   7
BRANCH   1  14
ATOM     12  C   UNL     1      49.646   7.425  15.654  0.00  0.00    +0.000 C 
ATOM     13  C   UNL     1      48.535   6.638  14.979  0.00  0.00    +0.000 C 
ATOM     14  C   UNL     1      47.581   5.962  14.399  0.00  0.00    +0.000 C 
ENDBRANCH   1  14
BRANCH   6  15
ATOM     15  N   UNL     1      45.163   7.260  13.059  0.00  0.00    +0.000 N 
ATOM     16  H   UNL     1      44.180   7.433  13.261  0.00  0.00    +0.000 HD
BRANCH  15  17
ATOM     17  C   UNL     1      45.660   8.026  11.883  0.00  0.00    +0.000 C 
BRANCH  17  18
ATOM     18  C   UNL     1      46.472   9.277  12.247  0.00  0.00    +0.000 C 
BRANCH  18  19
ATOM     19  C   UNL     1      47.970   9.011  12.184  0.00  0.00    +0.000 A 
ATOM     20  C   UNL     1      48.467   7.875  11.529  0.00  0.00    +0.000 A 
ATOM     21  C   UNL     1      49.843   7.628  11.463  0.00  0.00    +0.000 A 
ATOM     22  C   UNL     1      50.742   8.511  12.054  0.00  0.00    +0.000 A 
ATOM     23  C   UNL     1      50.265   9.633  12.728  0.00  0.00    +0.000 A 
ATOM     24  C   UNL     1      48.888   9.879  12.800  0.00  0.00    +0.000 A 
ENDBRANCH  18  19
ENDBRANCH  17  18
ENDBRANCH  15  17
ENDBRANCH   6  15
TORSDOF 6
ENDMDL
MODEL 5
REMARK VINA RESULT:    -6.560      2.317      2.709
REMARK INTER + INTRA:          -9.588
REMARK INTER:                  -9.031
REMARK INTRA:                  -0.557
REMARK UNBOUND:                -0.727
REMARK  Name = 
REMARK  7 active torsions:
REMARK  status: ('A' for Active; 'I' for Inactive)
REMARK    1  A    between atoms: C_1  and  C_2
REMARK    2  A    between atoms: C_3  and  C_4
REMARK    3  A    between atoms: C_7  and  C_8
REMARK    4  A    between atoms: C_12  and  N_13
REMARK    5  A    between atoms: N_13  and  C_14
REMARK    6  A    between atoms: C_14  and  C_15
REMARK    7  A    between atoms: C_15  and  C_16
REMARK                            x       y       z     vdW  Elec       q    Type
REMARK                         _______ _______ _______ _____ _____    ______ ____
ROOT
ATOM      1  C   UNL     1      47.919   6.530  13.899  0.00  0.00    +0.000 A 
ATOM      2  C   UNL     1      48.585   6.498  15.129  0.00  0.00    +0.000 A 
ATOM      3  N   UNL     1      48.460   5.526  16.067  0.00  0.00    +0.000 NA
ATOM      4  C   UNL     1      47.630   4.507  15.738  0.00  0.00    +0.000 A 
ATOM      5  C   UNL     1      46.906   4.451  14.557  0.00  0.00    +0.000 A 
ATOM      6  C   UNL     1      46.984   5.497  13.621  0.00  0.00    +0.000 A 
ENDROOT
BRANCH   4   7
ATOM      7  C   UNL     1      47.508   3.372  16.708  0.00  0.00    +0.000 C 
ATOM      8  N   UNL     1      48.639   2.622  16.885  0.00  0.00    +0.000 N 
ATOM      9  O   UNL     1      46.471   3.116  17.307  0.00  0.00    +0.000 OA
ATOM     10  H   UNL     1      49.475   2.843  16.363  0.00  0.00    +0.000 HD
ATOM     11  H   UNL     1      48.605   1.821  17.500  0.00  0.00    +0.000 HD
ENDBRANCH   4   7
BRANCH   1  14
ATOM     12  C   UNL     1      48.917   9.877  11.450  0.00  0.00    +0.000 C 
ATOM     13  C   UNL     1      48.559   8.661  12.289  0.00  0.00    +0.000 C 
ATOM     14  C   UNL     1      48.252   7.618  13.009  0.00  0.00    +0.000 C 
ENDBRANCH   1  14
BRANCH   6  15
ATOM     15  N   UNL     1      46.234   5.405  12.409  0.00  0.00    +0.000 N 
ATOM     16  H   UNL     1      46.071   6.328  12.011  0.00  0.00    +0.000 HD
BRANCH  15  17
ATOM     17  C   UNL     1      44.997   4.580  12.493  0.00  0.00    +0.000 C 
BRANCH  17  18
ATOM     18  C   UNL     1      44.109   4.651  11.244  0.00  0.00    +0.000 C 
BRANCH  18  19
ATOM     19  C   UNL     1      44.762   3.968  10.051  0.00  0.00    +0.000 A 
ATOM     20  C   UNL     1      44.768   2.570   9.944  0.00  0.00    +0.000 A 
ATOM     21  C   UNL     1      45.361   1.936   8.846  0.00  0.00    +0.000 A 
ATOM     22  C   UNL     1      45.962   2.690   7.842  0.00  0.00    +0.000 A 
ATOM     23  C   UNL     1      45.985   4.079   7.944  0.00  0.00    +0.000 A 
ATOM     24  C   UNL     1      45.397   4.715   9.043  0.00  0.00    +0.000 A 
ENDBRANCH  18  19
ENDBRANCH  17  18
ENDBRANCH  15  17
ENDBRANCH   6  15
TORSDOF 6
ENDMDL
MODEL 6
REMARK VINA RESULT:    -6.440      2.465      3.626
REMARK INTER + INTRA:          -9.426
REMARK INTER:                  -9.109
REMARK INTRA:                  -0.316
REMARK UNBOUND:                -0.727
REMARK  Name = 
REMARK  7 active torsions:
REMARK  status: ('A' for Active; 'I' for Inactive)
REMARK    1  A    between atoms: C_1  and  C_2
REMARK    2  A    between atoms: C_3  and  C_4
REMARK    3  A    between atoms: C_7  and  C_8
REMARK    4  A    between atoms: C_12  and  N_13
REMARK    5  A    between atoms: N_13  and  C_14
REMARK    6  A    between atoms: C_14  and  C_15
REMARK    7  A    between atoms: C_15  and  C_16
REMARK                            x       y       z     vdW  Elec       q    Type
REMARK                         _______ _______ _______ _____ _____    ______ ____
ROOT
ATOM      1  C   UNL     1      46.576   6.106  11.986  0.00  0.00    +0.000 A 
ATOM      2  C   UNL     1      46.357   5.578  13.263  0.00  0.00    +0.000 A 
ATOM      3  N   UNL     1      45.406   4.667  13.586  0.00  0.00    +0.000 NA
ATOM      4  C   UNL     1      44.639   4.239  12.553  0.00  0.00    +0.000 A 
ATOM      5  C   UNL     1      44.758   4.712  11.256  0.00  0.00    +0.000 A 
ATOM      6  C   UNL     1      45.698   5.710  10.942  0.00  0.00    +0.000 A 
ENDROOT
BRANCH   4   7
ATOM      7  C   UNL     1      43.617   3.182  12.841  0.00  0.00    +0.000 C 
ATOM      8  N   UNL     1      43.453   2.239  11.863  0.00  0.00    +0.000 N 
ATOM      9  O   UNL     1      42.962   3.153  13.874  0.00  0.00    +0.000 OA
ATOM     10  H   UNL     1      43.992   2.299  11.011  0.00  0.00    +0.000 HD
ATOM     11  H   UNL     1      42.751   1.523  11.986  0.00  0.00    +0.000 HD
ENDBRANCH   4   7
BRANCH   1  14
ATOM     12  C   UNL     1      49.903   8.697  11.344  0.00  0.00    +0.000 C 
ATOM     13  C   UNL     1      48.714   7.788  11.611  0.00  0.00    +0.000 C 
ATOM     14  C   UNL     1      47.695   7.008  11.840  0.00  0.00    +0.000 C 
ENDBRANCH   1  14
BRANCH   6  15
ATOM     15  N   UNL     1      45.802   6.169   9.594  0.00  0.00    +0.000 N 
ATOM     16  H   UNL     1      44.920   6.564   9.275  0.00  0.00    +0.000 HD
BRANCH  15  17
ATOM     17  C   UNL     1      46.382   5.188   8.635  0.00  0.00    +0.000 C 
BRANCH  17  18
ATOM     18  C   UNL     1      45.418   4.066   8.224  0.00  0.00    +0.000 C 
BRANCH  18  19
ATOM     19  C   UNL     1      46.129   2.978   7.433  0.00  0.00    +0.000 A 
ATOM     20  C   UNL     1      46.367   1.720   8.004  0.00  0.00    +0.000 A 
ATOM     21  C   UNL     1      47.015   0.712   7.279  0.00  0.00    +0.000 A 
ATOM     22  C   UNL     1      47.438   0.950   5.975  0.00  0.00    +0.000 A 
ATOM     23  C   UNL     1      47.229   2.201   5.400  0.00  0.00    +0.000 A 
ATOM     24  C   UNL     1      46.587   3.212   6.124  0.00  0.00    +0.000 A 
ENDBRANCH  18  19
ENDBRANCH  17  18
ENDBRANCH  15  17
ENDBRANCH   6  15
TORSDOF 6
ENDMDL
MODEL 7
REMARK VINA RESULT:    -6.308      3.182      6.884
REMARK INTER + INTRA:          -9.248
REMARK INTER:                  -8.419
REMARK INTRA:                  -0.829
REMARK UNBOUND:                -0.727
REMARK  Name = 
REMARK  7 active torsions:
REMARK  status: ('A' for Active; 'I' for Inactive)
REMARK    1  A    between atoms: C_1  and  C_2
REMARK    2  A    between atoms: C_3  and  C_4
REMARK    3  A    between atoms: C_7  and  C_8
REMARK    4  A    between atoms: C_12  and  N_13
REMARK    5  A    between atoms: N_13  and  C_14
REMARK    6  A    between atoms: C_14  and  C_15
REMARK    7  A    between atoms: C_15  and  C_16
REMARK                            x       y       z     vdW  Elec       q    Type
REMARK                         _______ _______ _______ _____ _____    ______ ____
ROOT
ATOM      1  C   UNL     1      46.918   5.981  13.290  0.00  0.00    +0.000 A 
ATOM      2  C   UNL     1      46.211   6.778  12.383  0.00  0.00    +0.000 A 
ATOM      3  N   UNL     1      45.005   6.474  11.841  0.00  0.00    +0.000 NA
ATOM      4  C   UNL     1      44.462   5.304  12.256  0.00  0.00    +0.000 A 
ATOM      5  C   UNL     1      45.088   4.431  13.133  0.00  0.00    +0.000 A 
ATOM      6  C   UNL     1      46.370   4.718  13.635  0.00  0.00    +0.000 A 
ENDROOT
BRANCH   4   7
ATOM      7  C   UNL     1      43.100   4.951  11.742  0.00  0.00    +0.000 C 
ATOM      8  N   UNL     1      42.170   5.953  11.802  0.00  0.00    +0.000 N 
ATOM      9  O   UNL     1      42.821   3.844  11.301  0.00  0.00    +0.000 OA
ATOM     10  H   UNL     1      42.422   6.850  12.190  0.00  0.00    +0.000 HD
ATOM     11  H   UNL     1      41.223   5.761  11.503  0.00  0.00    +0.000 HD
ENDBRANCH   4   7
BRANCH   1  14
ATOM     12  C   UNL     1      50.462   7.614  15.014  0.00  0.00    +0.000 C 
ATOM     13  C   UNL     1      49.219   7.028  14.364  0.00  0.00    +0.000 C 
ATOM     14  C   UNL     1      48.153   6.526  13.806  0.00  0.00    +0.000 C 
ENDBRANCH   1  14
BRANCH   6  15
ATOM     15  N   UNL     1      46.982   3.803  14.544  0.00  0.00    +0.000 N 
ATOM     16  H   UNL     1      46.617   2.861  14.413  0.00  0.00    +0.000 HD
BRANCH  15  17
ATOM     17  C   UNL     1      46.985   4.234  15.969  0.00  0.00    +0.000 C 
BRANCH  17  18
ATOM     18  C   UNL     1      47.555   3.192  16.940  0.00  0.00    +0.000 C 
BRANCH  18  19
ATOM     19  C   UNL     1      49.039   3.414  17.194  0.00  0.00    +0.000 A 
ATOM     20  C   UNL     1      49.918   2.325  17.286  0.00  0.00    +0.000 A 
ATOM     21  C   UNL     1      51.285   2.523  17.512  0.00  0.00    +0.000 A 
ATOM     22  C   UNL     1      51.792   3.811  17.655  0.00  0.00    +0.000 A 
ATOM     23  C   UNL     1      50.930   4.902  17.589  0.00  0.00    +0.000 A 
ATOM     24  C   UNL     1      49.562   4.707  17.368  0.00  0.00    +0.000 A 
ENDBRANCH  18  19
ENDBRANCH  17  18
ENDBRANCH  15  17
ENDBRANCH   6  15
TORSDOF 6
ENDMDL
MODEL 8
REMARK VINA RESULT:    -6.286      3.075      6.358
REMARK INTER + INTRA:          -9.218
REMARK INTER:                  -8.706
REMARK INTRA:                  -0.512
REMARK UNBOUND:                -0.727
REMARK  Name = 
REMARK  7 active torsions:
REMARK  status: ('A' for Active; 'I' for Inactive)
REMARK    1  A    between atoms: C_1  and  C_2
REMARK    2  A    between atoms: C_3  and  C_4
REMARK    3  A    between atoms: C_7  and  C_8
REMARK    4  A    between atoms: C_12  and  N_13
REMARK    5  A    between atoms: N_13  and  C_14
REMARK    6  A    between atoms: C_14  and  C_15
REMARK    7  A    between atoms: C_15  and  C_16
REMARK                            x       y       z     vdW  Elec       q    Type
REMARK                         _______ _______ _______ _____ _____    ______ ____
ROOT
ATOM      1  C   UNL     1      46.563   6.358  12.143  0.00  0.00    +0.000 A 
ATOM      2  C   UNL     1      45.921   6.142  10.918  0.00  0.00    +0.000 A 
ATOM      3  N   UNL     1      45.131   5.082  10.620  0.00  0.00    +0.000 NA
ATOM      4  C   UNL     1      44.952   4.191  11.626  0.00  0.00    +0.000 A 
ATOM      5  C   UNL     1      45.558   4.298  12.868  0.00  0.00    +0.000 A 
ATOM      6  C   UNL     1      46.434   5.362  13.147  0.00  0.00    +0.000 A 
ENDROOT
BRANCH   4   7
ATOM      7  C   UNL     1      44.033   3.035  11.373  0.00  0.00    +0.000 C 
ATOM      8  N   UNL     1      43.652   2.331  12.482  0.00  0.00    +0.000 N 
ATOM      9  O   UNL     1      43.643   2.726  10.255  0.00  0.00    +0.000 OA
ATOM     10  H   UNL     1      44.006   2.595  13.391  0.00  0.00    +0.000 HD
ATOM     11  H   UNL     1      43.062   1.518  12.368  0.00  0.00    +0.000 HD
ENDBRANCH   4   7
BRANCH   1  14
ATOM     12  C   UNL     1      48.665  10.064  12.345  0.00  0.00    +0.000 C 
ATOM     13  C   UNL     1      47.930   8.734  12.310  0.00  0.00    +0.000 C 
ATOM     14  C   UNL     1      47.299   7.594  12.280  0.00  0.00    +0.000 C 
ENDBRANCH   1  14
BRANCH   6  15
ATOM     15  N   UNL     1      47.033   5.450  14.440  0.00  0.00    +0.000 N 
ATOM     16  H   UNL     1      47.952   5.887  14.386  0.00  0.00    +0.000 HD
BRANCH  15  17
ATOM     17  C   UNL     1      47.036   4.183  15.222  0.00  0.00    +0.000 C 
BRANCH  17  18
ATOM     18  C   UNL     1      47.392   4.361  16.705  0.00  0.00    +0.000 C 
BRANCH  18  19
ATOM     19  C   UNL     1      48.784   3.831  17.015  0.00  0.00    +0.000 A 
ATOM     20  C   UNL     1      49.070   2.463  16.898  0.00  0.00    +0.000 A 
ATOM     21  C   UNL     1      50.350   1.971  17.175  0.00  0.00    +0.000 A 
ATOM     22  C   UNL     1      51.362   2.838  17.580  0.00  0.00    +0.000 A 
ATOM     23  C   UNL     1      51.089   4.195  17.723  0.00  0.00    +0.000 A 
ATOM     24  C   UNL     1      49.808   4.690  17.451  0.00  0.00    +0.000 A 
ENDBRANCH  18  19
ENDBRANCH  17  18
ENDBRANCH  15  17
ENDBRANCH   6  15
TORSDOF 6
ENDMDL
MODEL 9
REMARK VINA RESULT:    -6.021      3.137      6.849
REMARK INTER + INTRA:          -8.860
REMARK INTER:                  -7.746
REMARK INTRA:                  -1.114
REMARK UNBOUND:                -0.727
REMARK  Name = 
REMARK  7 active torsions:
REMARK  status: ('A' for Active; 'I' for Inactive)
REMARK    1  A    between atoms: C_1  and  C_2
REMARK    2  A    between atoms: C_3  and  C_4
REMARK    3  A    between atoms: C_7  and  C_8
REMARK    4  A    between atoms: C_12  and  N_13
REMARK    5  A    between atoms: N_13  and  C_14
REMARK    6  A    between atoms: C_14  and  C_15
REMARK    7  A    between atoms: C_15  and  C_16
REMARK                            x       y       z     vdW  Elec       q    Type
REMARK                         _______ _______ _______ _____ _____    ______ ____
ROOT
ATOM      1  C   UNL     1      46.689   6.174  12.843  0.00  0.00    +0.000 A 
ATOM      2  C   UNL     1      46.496   6.466  11.489  0.00  0.00    +0.000 A 
ATOM      3  N   UNL     1      45.703   5.769  10.638  0.00  0.00    +0.000 NA
ATOM      4  C   UNL     1      45.040   4.724  11.189  0.00  0.00    +0.000 A 
ATOM      5  C   UNL     1      45.175   4.336  12.513  0.00  0.00    +0.000 A 
ATOM      6  C   UNL     1      46.055   5.018  13.372  0.00  0.00    +0.000 A 
ENDROOT
BRANCH   4   7
ATOM      7  C   UNL     1      44.096   3.961  10.311  0.00  0.00    +0.000 C 
ATOM      8  N   UNL     1      44.056   4.358   9.002  0.00  0.00    +0.000 N 
ATOM      9  O   UNL     1      43.397   3.044  10.722  0.00  0.00    +0.000 OA
ATOM     10  H   UNL     1      44.628   5.131   8.694  0.00  0.00    +0.000 HD
ATOM     11  H   UNL     1      43.411   3.903   8.371  0.00  0.00    +0.000 HD
ENDBRANCH   4   7
BRANCH   1  14
ATOM     12  C   UNL     1      48.968   8.896  15.208  0.00  0.00    +0.000 C 
ATOM     13  C   UNL     1      48.187   7.924  14.339  0.00  0.00    +0.000 C 
ATOM     14  C   UNL     1      47.517   7.090  13.593  0.00  0.00    +0.000 C 
ENDBRANCH   1  14
BRANCH   6  15
ATOM     15  N   UNL     1      46.164   4.600  14.733  0.00  0.00    +0.000 N 
ATOM     16  H   UNL     1      46.008   5.381  15.367  0.00  0.00    +0.000 HD
BRANCH  15  17
ATOM     17  C   UNL     1      47.391   3.821  15.058  0.00  0.00    +0.000 C 
BRANCH  17  18
ATOM     18  C   UNL     1      47.557   3.505  16.550  0.00  0.00    +0.000 C 
BRANCH  18  19
ATOM     19  C   UNL     1      47.985   4.734  17.341  0.00  0.00    +0.000 A 
ATOM     20  C   UNL     1      47.153   5.267  18.336  0.00  0.00    +0.000 A 
ATOM     21  C   UNL     1      47.544   6.393  19.070  0.00  0.00    +0.000 A 
ATOM     22  C   UNL     1      48.769   7.004  18.817  0.00  0.00    +0.000 A 
ATOM     23  C   UNL     1      49.597   6.500  17.817  0.00  0.00    +0.000 A 
ATOM     24  C   UNL     1      49.206   5.378  17.078  0.00  0.00    +0.000 A 
ENDBRANCH  18  19
ENDBRANCH  17  18
ENDBRANCH  15  17
ENDBRANCH   6  15
TORSDOF 6
ENDMDL
