MODEL 1
REMARK VINA RESULT:    -8.403      0.000      0.000
REMARK INTER + INTRA:         -12.214
REMARK INTER:                 -11.351
REMARK INTRA:                  -0.863
REMARK UNBOUND:                -0.863
REMARK  Name = 
REMARK  7 active torsions:
REMARK  status: ('A' for Active; 'I' for Inactive)
REMARK    1  A    between atoms: C_1  and  C_2
REMARK    2  A    between atoms: C_2  and  O_3
REMARK    3  A    between atoms: C_2  and  C_13
REMARK    4  A    between atoms: O_3  and  C_4
REMARK    5  A    between atoms: C_7  and  C_8
REMARK    6  A    between atoms: C_18  and  O_19
REMARK    7  A    between atoms: O_19  and  C_20
REMARK                            x       y       z     vdW  Elec       q    Type
REMARK                         _______ _______ _______ _____ _____    ______ ____
ROOT
ATOM      1  C   UNL     1      42.457   5.397  11.803  0.00  0.00    +0.000 C 
ATOM      2  C   UNL     1      43.719   4.939  11.136  0.00  0.00    +0.000 C 
ENDROOT
BRANCH   2   3
ATOM      3  C   UNL     1      45.005   5.338  11.735  0.00  0.00    +0.000 A 
ATOM      4  C   UNL     1      45.600   6.564  11.414  0.00  0.00    +0.000 A 
ATOM      5  C   UNL     1      46.794   6.936  12.022  0.00  0.00    +0.000 A 
ATOM      6  F   UNL     1      47.341   8.120  11.719  0.00  0.00    +0.000 F 
ATOM      7  C   UNL     1      47.418   6.111  12.947  0.00  0.00    +0.000 A 
ATOM      8  C   UNL     1      46.837   4.889  13.278  0.00  0.00    +0.000 A 
ATOM      9  C   UNL     1      45.647   4.495  12.659  0.00  0.00    +0.000 A 
BRANCH   8  10
ATOM     10  O   UNL     1      47.518   4.136  14.203  0.00  0.00    +0.000 OA
BRANCH  10  11
ATOM     11  C   UNL     1      47.233   4.348  15.607  0.00  0.00    +0.000 C 
ATOM     12  C   UNL     1      48.183   5.249  16.408  0.00  0.00    +0.000 C 
ATOM     13  O   UNL     1      48.439   4.206  17.377  0.00  0.00    +0.000 OA
ATOM     14  C   UNL     1      47.726   3.250  16.558  0.00  0.00    +0.000 C 
ENDBRANCH  10  11
ENDBRANCH   8  10
ENDBRANCH   2   3
BRANCH   2  15
ATOM     15  O   UNL     1      43.691   4.860   9.752  0.00  0.00    +0.000 OA
BRANCH  15  16
ATOM     16  C   UNL     1      44.564   3.973   9.130  0.00  0.00    +0.000 A 
ATOM     17  C   UNL     1      44.432   2.641   9.501  0.00  0.00    +0.000 A 
ATOM     18  C   UNL     1      45.264   1.694   8.903  0.00  0.00    +0.000 A 
ATOM     19  C   UNL     1      46.202   2.097   7.947  0.00  0.00    +0.000 A 
ATOM     20  C   UNL     1      46.245   3.452   7.637  0.00  0.00    +0.000 A 
ATOM     21  N   UNL     1      45.453   4.403   8.207  0.00  0.00    +0.000 NA
BRANCH  19  22
ATOM     22  C   UNL     1      47.085   1.067   7.336  0.00  0.00    +0.000 C 
ATOM     23  N   UNL     1      48.001   1.448   6.396  0.00  0.00    +0.000 N 
ATOM     24  O   UNL     1      47.002  -0.109   7.666  0.00  0.00    +0.000 OA
ATOM     25  H   UNL     1      48.147   2.382   6.049  0.00  0.00    +0.000 HD
ATOM     26  H   UNL     1      48.581   0.712   6.015  0.00  0.00    +0.000 HD
ENDBRANCH  19  22
ENDBRANCH  15  16
ENDBRANCH   2  15
TORSDOF 6
ENDMDL
MODEL 2
REMARK VINA RESULT:    -7.840      2.128      3.231
REMARK INTER + INTRA:         -11.453
REMARK INTER:                 -10.566
REMARK INTRA:                  -0.887
REMARK UNBOUND:                -0.863
REMARK  Name = 
REMARK  7 active torsions:
REMARK  status: ('A' for Active; 'I' for Inactive)
REMARK    1  A    between atoms: C_1  and  C_2
REMARK    2  A    between atoms: C_2  and  O_3
REMARK    3  A    between atoms: C_2  and  C_13
REMARK    4  A    between atoms: O_3  and  C_4
REMARK    5  A    between atoms: C_7  and  C_8
REMARK    6  A    between atoms: C_18  and  O_19
REMARK    7  A    between atoms: O_19  and  C_20
REMARK                            x       y       z     vdW  Elec       q    Type
REMARK                         _______ _______ _______ _____ _____    ______ ____
ROOT
ATOM      1  C   UNL     1      42.418   5.390  11.786  0.00  0.00    +0.000 C 
ATOM      2  C   UNL     1      43.712   4.882  11.224  0.00  0.00    +0.000 C 
ENDROOT
BRANCH   2   3
ATOM      3  C   UNL     1      44.934   5.054  12.031  0.00  0.00    +0.000 A 
ATOM      4  C   UNL     1      45.471   3.989  12.761  0.00  0.00    +0.000 A 
ATOM      5  C   UNL     1      46.646   4.165  13.484  0.00  0.00    +0.000 A 
ATOM      6  F   UNL     1      47.159   3.131  14.163  0.00  0.00    +0.000 F 
ATOM      7  C   UNL     1      47.305   5.387  13.500  0.00  0.00    +0.000 A 
ATOM      8  C   UNL     1      46.783   6.456  12.776  0.00  0.00    +0.000 A 
ATOM      9  C   UNL     1      45.591   6.297  12.062  0.00  0.00    +0.000 A 
BRANCH   8  10
ATOM     10  O   UNL     1      47.497   7.627  12.844  0.00  0.00    +0.000 OA
BRANCH  10  11
ATOM     11  C   UNL     1      48.372   7.964  11.741  0.00  0.00    +0.000 C 
ATOM     12  C   UNL     1      49.855   7.583  11.854  0.00  0.00    +0.000 C 
ATOM     13  O   UNL     1      50.277   8.950  11.639  0.00  0.00    +0.000 OA
ATOM     14  C   UNL     1      48.906   9.403  11.731  0.00  0.00    +0.000 C 
ENDBRANCH  10  11
ENDBRANCH   8  10
ENDBRANCH   2   3
BRANCH   2  15
ATOM     15  O   UNL     1      43.870   4.986   9.851  0.00  0.00    +0.000 OA
BRANCH  15  16
ATOM     16  C   UNL     1      44.684   4.054   9.215  0.00  0.00    +0.000 A 
ATOM     17  C   UNL     1      44.431   2.724   9.524  0.00  0.00    +0.000 A 
ATOM     18  C   UNL     1      45.199   1.736   8.907  0.00  0.00    +0.000 A 
ATOM     19  C   UNL     1      46.196   2.097   7.995  0.00  0.00    +0.000 A 
ATOM     20  C   UNL     1      46.361   3.455   7.746  0.00  0.00    +0.000 A 
ATOM     21  N   UNL     1      45.634   4.445   8.335  0.00  0.00    +0.000 NA
BRANCH  19  22
ATOM     22  C   UNL     1      47.008   1.021   7.363  0.00  0.00    +0.000 C 
ATOM     23  N   UNL     1      47.933   1.357   6.416  0.00  0.00    +0.000 N 
ATOM     24  O   UNL     1      46.859  -0.151   7.685  0.00  0.00    +0.000 OA
ATOM     25  H   UNL     1      48.131   2.283   6.075  0.00  0.00    +0.000 HD
ATOM     26  H   UNL     1      48.464   0.590   6.020  0.00  0.00    +0.000 HD
ENDBRANCH  19  22
ENDBRANCH  15  16
ENDBRANCH   2  15
TORSDOF 6
ENDMDL
MODEL 3
REMARK VINA RESULT:    -7.416      2.064      2.483
REMARK INTER + INTRA:         -10.880
REMARK INTER:                 -10.037
REMARK INTRA:                  -0.843
REMARK UNBOUND:                -0.863
REMARK  Name = 
REMARK  7 active torsions:
REMARK  status: ('A' for Active; 'I' for Inactive)
REMARK    1  A    between atoms: C_1  and  C_2
REMARK    2  A    between atoms: C_2  and  O_3
REMARK    3  A    between atoms: C_2  and  C_13
REMARK    4  A    between atoms: O_3  and  C_4
REMARK    5  A    between atoms: C_7  and  C_8
REMARK    6  A    between atoms: C_18  and  O_19
REMARK    7  A    between atoms: O_19  and  C_20
REMARK                            x       y       z     vdW  Elec       q    Type
REMARK                         _______ _______ _______ _____ _____    ______ ____
ROOT
ATOM      1  C   UNL     1      43.572   3.065  12.483  0.00  0.00    +0.000 C 
ATOM      2  C   UNL     1      44.403   3.786  11.465  0.00  0.00    +0.000 C 
ENDROOT
BRANCH   2   3
ATOM      3  C   UNL     1      45.024   5.064  11.856  0.00  0.00    +0.000 A 
ATOM      4  C   UNL     1      44.529   6.283  11.378  0.00  0.00    +0.000 A 
ATOM      5  C   UNL     1      45.107   7.478  11.791  0.00  0.00    +0.000 A 
ATOM      6  F   UNL     1      44.609   8.636  11.340  0.00  0.00    +0.000 F 
ATOM      7  C   UNL     1      46.177   7.491  12.676  0.00  0.00    +0.000 A 
ATOM      8  C   UNL     1      46.680   6.287  13.162  0.00  0.00    +0.000 A 
ATOM      9  C   UNL     1      46.120   5.079  12.737  0.00  0.00    +0.000 A 
BRANCH   8  10
ATOM     10  O   UNL     1      47.737   6.391  14.033  0.00  0.00    +0.000 OA
BRANCH  10  11
ATOM     11  C   UNL     1      48.427   7.660  14.128  0.00  0.00    +0.000 C 
ATOM     12  C   UNL     1      49.958   7.659  14.018  0.00  0.00    +0.000 C 
ATOM     13  O   UNL     1      50.103   8.325  15.294  0.00  0.00    +0.000 OA
ATOM     14  C   UNL     1      48.687   8.170  15.552  0.00  0.00    +0.000 C 
ENDBRANCH  10  11
ENDBRANCH   8  10
ENDBRANCH   2   3
BRANCH   2  15
ATOM     15  O   UNL     1      43.983   3.692  10.148  0.00  0.00    +0.000 OA
BRANCH  15  16
ATOM     16  C   UNL     1      44.871   3.165   9.215  0.00  0.00    +0.000 A 
ATOM     17  C   UNL     1      45.434   4.082   8.337  0.00  0.00    +0.000 A 
ATOM     18  C   UNL     1      46.348   3.624   7.388  0.00  0.00    +0.000 A 
ATOM     19  C   UNL     1      46.682   2.267   7.340  0.00  0.00    +0.000 A 
ATOM     20  C   UNL     1      46.071   1.434   8.271  0.00  0.00    +0.000 A 
ATOM     21  N   UNL     1      45.170   1.847   9.207  0.00  0.00    +0.000 NA
BRANCH  19  22
ATOM     22  C   UNL     1      47.649   1.806   6.307  0.00  0.00    +0.000 C 
ATOM     23  N   UNL     1      48.831   2.474   6.157  0.00  0.00    +0.000 N 
ATOM     24  O   UNL     1      47.400   0.839   5.598  0.00  0.00    +0.000 OA
ATOM     25  H   UNL     1      49.132   3.280   6.679  0.00  0.00    +0.000 HD
ATOM     26  H   UNL     1      49.457   2.118   5.445  0.00  0.00    +0.000 HD
ENDBRANCH  19  22
ENDBRANCH  15  16
ENDBRANCH   2  15
TORSDOF 6
ENDMDL
MODEL 4
REMARK VINA RESULT:    -7.341      2.715      4.482
REMARK INTER + INTRA:         -10.779
REMARK INTER:                  -9.895
REMARK INTRA:                  -0.883
REMARK UNBOUND:                -0.863
REMARK  Name = 
REMARK  7 active torsions:
REMARK  status: ('A' for Active; 'I' for Inactive)
REMARK    1  A    between atoms: C_1  and  C_2
REMARK    2  A    between atoms: C_2  and  O_3
REMARK    3  A    between atoms: C_2  and  C_13
REMARK    4  A    between atoms: O_3  and  C_4
REMARK    5  A    between atoms: C_7  and  C_8
REMARK    6  A    between atoms: C_18  and  O_19
REMARK    7  A    between atoms: O_19  and  C_20
REMARK                            x       y       z     vdW  Elec       q    Type
REMARK                         _______ _______ _______ _____ _____    ______ ____
ROOT
ATOM      1  C   UNL     1      42.917   4.344  12.214  0.00  0.00    +0.000 C 
ATOM      2  C   UNL     1      44.058   4.738  11.325  0.00  0.00    +0.000 C 
ENDROOT
BRANCH   2   3
ATOM      3  C   UNL     1      44.939   5.833  11.771  0.00  0.00    +0.000 A 
ATOM      4  C   UNL     1      46.142   5.566  12.433  0.00  0.00    +0.000 A 
ATOM      5  C   UNL     1      46.975   6.614  12.810  0.00  0.00    +0.000 A 
ATOM      6  F   UNL     1      48.132   6.342  13.426  0.00  0.00    +0.000 F 
ATOM      7  C   UNL     1      46.636   7.933  12.544  0.00  0.00    +0.000 A 
ATOM      8  C   UNL     1      45.442   8.215  11.884  0.00  0.00    +0.000 A 
ATOM      9  C   UNL     1      44.587   7.171  11.519  0.00  0.00    +0.000 A 
BRANCH   8  10
ATOM     10  O   UNL     1      45.185   9.545  11.658  0.00  0.00    +0.000 OA
BRANCH  10  11
ATOM     11  C   UNL     1      44.090   9.894  10.778  0.00  0.00    +0.000 C 
ATOM     12  C   UNL     1      44.241  11.142   9.896  0.00  0.00    +0.000 C 
ATOM     13  O   UNL     1      43.029  11.727  10.426  0.00  0.00    +0.000 OA
ATOM     14  C   UNL     1      42.943  10.683  11.424  0.00  0.00    +0.000 C 
ENDBRANCH  10  11
ENDBRANCH   8  10
ENDBRANCH   2   3
BRANCH   2  15
ATOM     15  O   UNL     1      43.831   4.657   9.960  0.00  0.00    +0.000 OA
BRANCH  15  16
ATOM     16  C   UNL     1      44.777   4.000   9.179  0.00  0.00    +0.000 A 
ATOM     17  C   UNL     1      44.801   2.617   9.300  0.00  0.00    +0.000 A 
ATOM     18  C   UNL     1      45.713   1.894   8.531  0.00  0.00    +0.000 A 
ATOM     19  C   UNL     1      46.574   2.565   7.658  0.00  0.00    +0.000 A 
ATOM     20  C   UNL     1      46.462   3.950   7.602  0.00  0.00    +0.000 A 
ATOM     21  N   UNL     1      45.588   4.687   8.343  0.00  0.00    +0.000 NA
BRANCH  19  22
ATOM     22  C   UNL     1      47.546   1.768   6.860  0.00  0.00    +0.000 C 
ATOM     23  N   UNL     1      48.600   2.403   6.269  0.00  0.00    +0.000 N 
ATOM     24  O   UNL     1      47.412   0.557   6.733  0.00  0.00    +0.000 OA
ATOM     25  H   UNL     1      48.800   3.389   6.303  0.00  0.00    +0.000 HD
ATOM     26  H   UNL     1      49.235   1.817   5.742  0.00  0.00    +0.000 HD
ENDBRANCH  19  22
ENDBRANCH  15  16
ENDBRANCH   2  15
TORSDOF 6
ENDMDL
MODEL 5
REMARK VINA RESULT:    -6.879      3.134      7.449
REMARK INTER + INTRA:         -10.155
REMARK INTER:                  -9.796
REMARK INTRA:                  -0.359
REMARK UNBOUND:                -0.863
REMARK  Name = 
REMARK  7 active torsions:
REMARK  status: ('A' for Active; 'I' for Inactive)
REMARK    1  A    between atoms: C_1  and  C_2
REMARK    2  A    between atoms: C_2  and  O_3
REMARK    3  A    between atoms: C_2  and  C_13
REMARK    4  A    between atoms: O_3  and  C_4
REMARK    5  A    between atoms: C_7  and  C_8
REMARK    6  A    between atoms: C_18  and  O_19
REMARK    7  A    between atoms: O_19  and  C_20
REMARK                            x       y       z     vdW  Elec       q    Type
REMARK                         _______ _______ _______ _____ _____    ______ ____
ROOT
ATOM      1  C   UNL     1      44.431   6.928  11.824  0.00  0.00    +0.000 C 
ATOM      2  C   UNL     1      45.479   6.288  10.964  0.00  0.00    +0.000 C 
ENDROOT
BRANCH   2   3
ATOM      3  C   UNL     1      45.161   4.996  10.330  0.00  0.00    +0.000 A 
ATOM      4  C   UNL     1      44.417   4.024  11.008  0.00  0.00    +0.000 A 
ATOM      5  C   UNL     1      44.097   2.827  10.376  0.00  0.00    +0.000 A 
ATOM      6  F   UNL     1      43.369   1.915  11.030  0.00  0.00    +0.000 F 
ATOM      7  C   UNL     1      44.504   2.571   9.073  0.00  0.00    +0.000 A 
ATOM      8  C   UNL     1      45.243   3.530   8.385  0.00  0.00    +0.000 A 
ATOM      9  C   UNL     1      45.589   4.728   9.018  0.00  0.00    +0.000 A 
BRANCH   8  10
ATOM     10  O   UNL     1      45.603   3.197   7.101  0.00  0.00    +0.000 OA
BRANCH  10  11
ATOM     11  C   UNL     1      47.006   2.991   6.813  0.00  0.00    +0.000 C 
ATOM     12  C   UNL     1      47.400   2.615   5.378  0.00  0.00    +0.000 C 
ATOM     13  O   UNL     1      48.075   1.414   5.821  0.00  0.00    +0.000 OA
ATOM     14  C   UNL     1      47.559   1.602   7.160  0.00  0.00    +0.000 C 
ENDBRANCH  10  11
ENDBRANCH   8  10
ENDBRANCH   2   3
BRANCH   2  15
ATOM     15  O   UNL     1      46.795   6.463  11.363  0.00  0.00    +0.000 OA
BRANCH  15  16
ATOM     16  C   UNL     1      47.142   6.078  12.654  0.00  0.00    +0.000 A 
ATOM     17  C   UNL     1      47.940   6.974  13.354  0.00  0.00    +0.000 A 
ATOM     18  C   UNL     1      48.310   6.659  14.662  0.00  0.00    +0.000 A 
ATOM     19  C   UNL     1      47.872   5.465  15.242  0.00  0.00    +0.000 A 
ATOM     20  C   UNL     1      47.066   4.643  14.461  0.00  0.00    +0.000 A 
ATOM     21  N   UNL     1      46.692   4.916  13.179  0.00  0.00    +0.000 NA
BRANCH  19  22
ATOM     22  C   UNL     1      48.294   5.150  16.634  0.00  0.00    +0.000 C 
ATOM     23  N   UNL     1      47.342   5.029  17.606  0.00  0.00    +0.000 N 
ATOM     24  O   UNL     1      49.476   4.995  16.913  0.00  0.00    +0.000 OA
ATOM     25  H   UNL     1      46.349   5.142  17.488  0.00  0.00    +0.000 HD
ATOM     26  H   UNL     1      47.679   4.809  18.535  0.00  0.00    +0.000 HD
ENDBRANCH  19  22
ENDBRANCH  15  16
ENDBRANCH   2  15
TORSDOF 6
ENDMDL
MODEL 6
REMARK VINA RESULT:    -6.843      3.096      7.393
REMARK INTER + INTRA:         -10.106
REMARK INTER:                  -9.619
REMARK INTRA:                  -0.487
REMARK UNBOUND:                -0.863
REMARK  Name = 
REMARK  7 active torsions:
REMARK  status: ('A' for Active; 'I' for Inactive)
REMARK    1  A    between atoms: C_1  and  C_2
REMARK    2  A    between atoms: C_2  and  O_3
REMARK    3  A    between atoms: C_2  and  C_13
REMARK    4  A    between atoms: O_3  and  C_4
REMARK    5  A    between atoms: C_7  and  C_8
REMARK    6  A    between atoms: C_18  and  O_19
REMARK    7  A    between atoms: O_19  and  C_20
REMARK                            x       y       z     vdW  Elec       q    Type
REMARK                         _______ _______ _______ _____ _____    ______ ____
ROOT
ATOM      1  C   UNL     1      45.507   7.582  12.548  0.00  0.00    +0.000 C 
ATOM      2  C   UNL     1      46.293   6.623  11.707  0.00  0.00    +0.000 C 
ENDROOT
BRANCH   2   3
ATOM      3  C   UNL     1      45.553   5.600  10.947  0.00  0.00    +0.000 A 
ATOM      4  C   UNL     1      44.488   4.900  11.526  0.00  0.00    +0.000 A 
ATOM      5  C   UNL     1      43.780   3.967  10.777  0.00  0.00    +0.000 A 
ATOM      6  F   UNL     1      42.752   3.320  11.340  0.00  0.00    +0.000 F 
ATOM      7  C   UNL     1      44.109   3.709   9.454  0.00  0.00    +0.000 A 
ATOM      8  C   UNL     1      45.164   4.398   8.862  0.00  0.00    +0.000 A 
ATOM      9  C   UNL     1      45.897   5.323   9.612  0.00  0.00    +0.000 A 
BRANCH   8  10
ATOM     10  O   UNL     1      45.421   4.083   7.550  0.00  0.00    +0.000 OA
BRANCH  10  11
ATOM     11  C   UNL     1      46.683   3.449   7.230  0.00  0.00    +0.000 C 
ATOM     12  C   UNL     1      46.909   2.980   5.785  0.00  0.00    +0.000 C 
ATOM     13  O   UNL     1      47.180   1.625   6.211  0.00  0.00    +0.000 OA
ATOM     14  C   UNL     1      46.777   1.953   7.562  0.00  0.00    +0.000 C 
ENDBRANCH  10  11
ENDBRANCH   8  10
ENDBRANCH   2   3
BRANCH   2  15
ATOM     15  O   UNL     1      47.529   6.236  12.203  0.00  0.00    +0.000 OA
BRANCH  15  16
ATOM     16  C   UNL     1      47.585   5.744  13.503  0.00  0.00    +0.000 A 
ATOM     17  C   UNL     1      46.942   4.531  13.715  0.00  0.00    +0.000 A 
ATOM     18  C   UNL     1      46.975   3.970  14.992  0.00  0.00    +0.000 A 
ATOM     19  C   UNL     1      47.651   4.628  16.024  0.00  0.00    +0.000 A 
ATOM     20  C   UNL     1      48.272   5.831  15.705  0.00  0.00    +0.000 A 
ATOM     21  N   UNL     1      48.254   6.409  14.472  0.00  0.00    +0.000 NA
BRANCH  19  22
ATOM     22  C   UNL     1      47.657   4.013  17.379  0.00  0.00    +0.000 C 
ATOM     23  N   UNL     1      46.914   2.889  17.603  0.00  0.00    +0.000 N 
ATOM     24  O   UNL     1      48.319   4.499  18.288  0.00  0.00    +0.000 OA
ATOM     25  H   UNL     1      46.333   2.413  16.933  0.00  0.00    +0.000 HD
ATOM     26  H   UNL     1      46.956   2.505  18.539  0.00  0.00    +0.000 HD
ENDBRANCH  19  22
ENDBRANCH  15  16
ENDBRANCH   2  15
TORSDOF 6
ENDMDL
MODEL 7
REMARK VINA RESULT:    -6.454      3.359      7.198
REMARK INTER + INTRA:          -9.580
REMARK INTER:                  -9.188
REMARK INTRA:                  -0.392
REMARK UNBOUND:                -0.863
REMARK  Name = 
REMARK  7 active torsions:
REMARK  status: ('A' for Active; 'I' for Inactive)
REMARK    1  A    between atoms: C_1  and  C_2
REMARK    2  A    between atoms: C_2  and  O_3
REMARK    3  A    between atoms: C_2  and  C_13
REMARK    4  A    between atoms: O_3  and  C_4
REMARK    5  A    between atoms: C_7  and  C_8
REMARK    6  A    between atoms: C_18  and  O_19
REMARK    7  A    between atoms: O_19  and  C_20
REMARK                            x       y       z     vdW  Elec       q    Type
REMARK                         _______ _______ _______ _____ _____    ______ ____
ROOT
ATOM      1  C   UNL     1      49.795   7.629  11.956  0.00  0.00    +0.000 C 
ATOM      2  C   UNL     1      48.695   7.183  12.872  0.00  0.00    +0.000 C 
ENDROOT
BRANCH   2   3
ATOM      3  C   UNL     1      47.303   7.353  12.418  0.00  0.00    +0.000 A 
ATOM      4  C   UNL     1      46.620   8.557  12.624  0.00  0.00    +0.000 A 
ATOM      5  C   UNL     1      45.320   8.706  12.153  0.00  0.00    +0.000 A 
ATOM      6  F   UNL     1      44.686   9.871  12.341  0.00  0.00    +0.000 F 
ATOM      7  C   UNL     1      44.677   7.679  11.477  0.00  0.00    +0.000 A 
ATOM      8  C   UNL     1      45.345   6.476  11.263  0.00  0.00    +0.000 A 
ATOM      9  C   UNL     1      46.644   6.306  11.750  0.00  0.00    +0.000 A 
BRANCH   8  10
ATOM     10  O   UNL     1      44.637   5.513  10.584  0.00  0.00    +0.000 OA
BRANCH  10  11
ATOM     11  C   UNL     1      44.648   4.161  11.100  0.00  0.00    +0.000 C 
ATOM     12  C   UNL     1      44.038   3.052  10.232  0.00  0.00    +0.000 C 
ATOM     13  O   UNL     1      43.126   2.658  11.283  0.00  0.00    +0.000 OA
ATOM     14  C   UNL     1      43.510   3.810  12.069  0.00  0.00    +0.000 C 
ENDBRANCH  10  11
ENDBRANCH   8  10
ENDBRANCH   2   3
BRANCH   2  15
ATOM     15  O   UNL     1      48.917   7.352  14.230  0.00  0.00    +0.000 OA
BRANCH  15  16
ATOM     16  C   UNL     1      48.562   6.313  15.084  0.00  0.00    +0.000 A 
ATOM     17  C   UNL     1      49.119   6.362  16.355  0.00  0.00    +0.000 A 
ATOM     18  C   UNL     1      48.790   5.360  17.269  0.00  0.00    +0.000 A 
ATOM     19  C   UNL     1      47.911   4.339  16.896  0.00  0.00    +0.000 A 
ATOM     20  C   UNL     1      47.398   4.388  15.604  0.00  0.00    +0.000 A 
ATOM     21  N   UNL     1      47.704   5.347  14.686  0.00  0.00    +0.000 NA
BRANCH  19  22
ATOM     22  C   UNL     1      47.589   3.276  17.888  0.00  0.00    +0.000 C 
ATOM     23  N   UNL     1      48.362   3.156  19.007  0.00  0.00    +0.000 N 
ATOM     24  O   UNL     1      46.644   2.518  17.713  0.00  0.00    +0.000 OA
ATOM     25  H   UNL     1      49.162   3.718  19.245  0.00  0.00    +0.000 HD
ATOM     26  H   UNL     1      48.099   2.422  19.653  0.00  0.00    +0.000 HD
ENDBRANCH  19  22
ENDBRANCH  15  16
ENDBRANCH   2  15
TORSDOF 6
ENDMDL
MODEL 8
REMARK VINA RESULT:    -6.300      2.424      3.008
REMARK INTER + INTRA:          -9.373
REMARK INTER:                  -8.899
REMARK INTRA:                  -0.474
REMARK UNBOUND:                -0.863
REMARK  Name = 
REMARK  7 active torsions:
REMARK  status: ('A' for Active; 'I' for Inactive)
REMARK    1  A    between atoms: C_1  and  C_2
REMARK    2  A    between atoms: C_2  and  O_3
REMARK    3  A    between atoms: C_2  and  C_13
REMARK    4  A    between atoms: O_3  and  C_4
REMARK    5  A    between atoms: C_7  and  C_8
REMARK    6  A    between atoms: C_18  and  O_19
REMARK    7  A    between atoms: O_19  and  C_20
REMARK                            x       y       z     vdW  Elec       q    Type
REMARK                         _______ _______ _______ _____ _____    ______ ____
ROOT
ATOM      1  C   UNL     1      43.230   4.978  12.932  0.00  0.00    +0.000 C 
ATOM      2  C   UNL     1      44.116   5.490  11.836  0.00  0.00    +0.000 C 
ENDROOT
BRANCH   2   3
ATOM      3  C   UNL     1      44.815   6.770  12.051  0.00  0.00    +0.000 A 
ATOM      4  C   UNL     1      44.394   7.939  11.405  0.00  0.00    +0.000 A 
ATOM      5  C   UNL     1      45.045   9.142  11.653  0.00  0.00    +0.000 A 
ATOM      6  F   UNL     1      44.619  10.255  11.042  0.00  0.00    +0.000 F 
ATOM      7  C   UNL     1      46.115   9.213  12.534  0.00  0.00    +0.000 A 
ATOM      8  C   UNL     1      46.544   8.059  13.185  0.00  0.00    +0.000 A 
ATOM      9  C   UNL     1      45.911   6.840  12.929  0.00  0.00    +0.000 A 
BRANCH   8  10
ATOM     10  O   UNL     1      47.608   8.218  14.041  0.00  0.00    +0.000 OA
BRANCH  10  11
ATOM     11  C   UNL     1      48.941   7.979  13.531  0.00  0.00    +0.000 C 
ATOM     12  C   UNL     1      49.629   9.109  12.751  0.00  0.00    +0.000 C 
ATOM     13  O   UNL     1      49.835   8.259  11.599  0.00  0.00    +0.000 OA
ATOM     14  C   UNL     1      49.017   7.226  12.196  0.00  0.00    +0.000 C 
ENDBRANCH  10  11
ENDBRANCH   8  10
ENDBRANCH   2   3
BRANCH   2  15
ATOM     15  O   UNL     1      43.703   5.233  10.538  0.00  0.00    +0.000 OA
BRANCH  15  16
ATOM     16  C   UNL     1      44.450   4.337   9.781  0.00  0.00    +0.000 A 
ATOM     17  C   UNL     1      44.289   2.996  10.104  0.00  0.00    +0.000 A 
ATOM     18  C   UNL     1      44.995   2.042   9.371  0.00  0.00    +0.000 A 
ATOM     19  C   UNL     1      45.839   2.446   8.332  0.00  0.00    +0.000 A 
ATOM     20  C   UNL     1      45.921   3.812   8.081  0.00  0.00    +0.000 A 
ATOM     21  N   UNL     1      45.250   4.769   8.781  0.00  0.00    +0.000 NA
BRANCH  19  22
ATOM     22  C   UNL     1      46.590   1.407   7.576  0.00  0.00    +0.000 C 
ATOM     23  N   UNL     1      47.235   1.757   6.425  0.00  0.00    +0.000 N 
ATOM     24  O   UNL     1      46.637   0.250   7.976  0.00  0.00    +0.000 OA
ATOM     25  H   UNL     1      47.255   2.672   6.006  0.00  0.00    +0.000 HD
ATOM     26  H   UNL     1      47.736   1.016   5.951  0.00  0.00    +0.000 HD
ENDBRANCH  19  22
ENDBRANCH  15  16
ENDBRANCH   2  15
TORSDOF 6
ENDMDL
MODEL 9
REMARK VINA RESULT:    -6.199      3.853      6.262
REMARK INTER + INTRA:          -9.236
REMARK INTER:                  -8.608
REMARK INTRA:                  -0.628
REMARK UNBOUND:                -0.863
REMARK  Name = 
REMARK  7 active torsions:
REMARK  status: ('A' for Active; 'I' for Inactive)
REMARK    1  A    between atoms: C_1  and  C_2
REMARK    2  A    between atoms: C_2  and  O_3
REMARK    3  A    between atoms: C_2  and  C_13
REMARK    4  A    between atoms: O_3  and  C_4
REMARK    5  A    between atoms: C_7  and  C_8
REMARK    6  A    between atoms: C_18  and  O_19
REMARK    7  A    between atoms: O_19  and  C_20
REMARK                            x       y       z     vdW  Elec       q    Type
REMARK                         _______ _______ _______ _____ _____    ______ ____
ROOT
ATOM      1  C   UNL     1      48.878   7.548  15.487  0.00  0.00    +0.000 C 
ATOM      2  C   UNL     1      48.265   6.199  15.263  0.00  0.00    +0.000 C 
ENDROOT
BRANCH   2   3
ATOM      3  C   UNL     1      48.428   5.180  16.316  0.00  0.00    +0.000 A 
ATOM      4  C   UNL     1      47.410   4.262  16.595  0.00  0.00    +0.000 A 
ATOM      5  C   UNL     1      47.601   3.286  17.566  0.00  0.00    +0.000 A 
ATOM      6  F   UNL     1      46.624   2.403  17.809  0.00  0.00    +0.000 F 
ATOM      7  C   UNL     1      48.792   3.201  18.275  0.00  0.00    +0.000 A 
ATOM      8  C   UNL     1      49.815   4.106  18.007  0.00  0.00    +0.000 A 
ATOM      9  C   UNL     1      49.627   5.105  17.048  0.00  0.00    +0.000 A 
BRANCH   8  10
ATOM     10  O   UNL     1      50.959   3.950  18.752  0.00  0.00    +0.000 OA
BRANCH  10  11
ATOM     11  C   UNL     1      52.119   3.362  18.115  0.00  0.00    +0.000 C 
ATOM     12  C   UNL     1      52.085   1.860  17.800  0.00  0.00    +0.000 C 
ATOM     13  O   UNL     1      53.297   1.621  18.553  0.00  0.00    +0.000 OA
ATOM     14  C   UNL     1      53.270   2.978  19.055  0.00  0.00    +0.000 C 
ENDBRANCH  10  11
ENDBRANCH   8  10
ENDBRANCH   2   3
BRANCH   2  15
ATOM     15  O   UNL     1      48.266   5.730  13.958  0.00  0.00    +0.000 OA
BRANCH  15  16
ATOM     16  C   UNL     1      47.043   5.614  13.305  0.00  0.00    +0.000 A 
ATOM     17  C   UNL     1      46.606   6.753  12.641  0.00  0.00    +0.000 A 
ATOM     18  C   UNL     1      45.395   6.701  11.949  0.00  0.00    +0.000 A 
ATOM     19  C   UNL     1      44.654   5.516  11.932  0.00  0.00    +0.000 A 
ATOM     20  C   UNL     1      45.185   4.429  12.618  0.00  0.00    +0.000 A 
ATOM     21  N   UNL     1      46.360   4.448  13.308  0.00  0.00    +0.000 NA
BRANCH  19  22
ATOM     22  C   UNL     1      43.359   5.494  11.198  0.00  0.00    +0.000 C 
ATOM     23  N   UNL     1      42.278   6.130  11.737  0.00  0.00    +0.000 N 
ATOM     24  O   UNL     1      43.256   4.918  10.122  0.00  0.00    +0.000 OA
ATOM     25  H   UNL     1      42.251   6.625  12.613  0.00  0.00    +0.000 HD
ATOM     26  H   UNL     1      41.423   6.091  11.197  0.00  0.00    +0.000 HD
ENDBRANCH  19  22
ENDBRANCH  15  16
ENDBRANCH   2  15
TORSDOF 6
ENDMDL
