MODEL 1
REMARK VINA RESULT:    -8.470      0.000      0.000
REMARK INTER + INTRA:         -12.570
REMARK INTER:                 -11.441
REMARK INTRA:                  -1.128
REMARK UNBOUND:                -1.128
REMARK  Name = 
REMARK  7 active torsions:
REMARK  status: ('A' for Active; 'I' for Inactive)
REMARK    1  A    between atoms: C_1  and  C_2
REMARK    2  A    between atoms: C_2  and  N_3
REMARK    3  A    between atoms: C_2  and  C_18
REMARK    4  A    between atoms: C_8  and  C_9
REMARK    5  A    between atoms: C_9  and  N_10
REMARK    6  A    between atoms: N_10  and  C_11
REMARK    7  A    between atoms: C_18  and  C_20
REMARK                            x       y       z     vdW  Elec       q    Type
REMARK                         _______ _______ _______ _____ _____    ______ ____
ROOT
ATOM      1  N   UNL     1      45.870   6.543  13.545  0.00  0.00    +0.000 N 
ATOM      2  C   UNL     1      45.076   5.914  12.587  0.00  0.00    +0.000 A 
ATOM      3  C   UNL     1      43.782   5.562  12.961  0.00  0.00    +0.000 A 
ATOM      4  C   UNL     1      42.931   4.971  12.034  0.00  0.00    +0.000 A 
ATOM      5  C   UNL     1      43.408   4.703  10.760  0.00  0.00    +0.000 A 
ATOM      6  C   UNL     1      44.722   5.044  10.457  0.00  0.00    +0.000 A 
ATOM      7  N   UNL     1      45.547   5.668  11.347  0.00  0.00    +0.000 NA
ATOM      8  H   UNL     1      46.068   5.927  14.329  0.00  0.00    +0.000 HD
ENDROOT
BRANCH   1  10
ATOM      9  C   UNL     1      46.789   8.775  13.637  0.00  0.00    +0.000 C 
ATOM     10  C   UNL     1      46.991   7.365  13.072  0.00  0.00    +0.000 C 
BRANCH  10  11
ATOM     11  C   UNL     1      48.343   6.761  13.529  0.00  0.00    +0.000 C 
ATOM     12  O   UNL     1      49.206   6.426  12.712  0.00  0.00    +0.000 OA
BRANCH  11  13
ATOM     13  C   UNL     1      48.582   6.572  14.972  0.00  0.00    +0.000 A 
ATOM     14  C   UNL     1      49.269   7.481  15.760  0.00  0.00    +0.000 A 
ATOM     15  S   UNL     1      49.256   7.087  17.422  0.00  0.00    +0.000 S 
ATOM     16  C   UNL     1      48.352   5.674  17.138  0.00  0.00    +0.000 A 
ATOM     17  N   UNL     1      47.963   4.874  18.167  0.00  0.00    +0.000 NA
ATOM     18  C   UNL     1      47.264   3.851  17.803  0.00  0.00    +0.000 A 
ATOM     19  N   UNL     1      46.944   3.541  16.506  0.00  0.00    +0.000 N 
ATOM     20  C   UNL     1      47.435   4.244  15.427  0.00  0.00    +0.000 A 
ATOM     21  O   UNL     1      47.378   3.784  14.293  0.00  0.00    +0.000 OA
ATOM     22  C   UNL     1      48.109   5.480  15.791  0.00  0.00    +0.000 A 
ATOM     23  H   UNL     1      46.474   2.677  16.287  0.00  0.00    +0.000 HD
ENDBRANCH  11  13
ENDBRANCH  10  11
ENDBRANCH   1  10
BRANCH   6  24
ATOM     24  C   UNL     1      45.284   4.693   9.092  0.00  0.00    +0.000 C 
BRANCH  24  25
ATOM     25  N   UNL     1      44.441   3.789   8.295  0.00  0.00    +0.000 NA
ATOM     26  H   UNL     1      43.957   4.387   7.621  0.00  0.00    +0.000 HD
BRANCH  25  27
ATOM     27  C   UNL     1      45.170   2.763   7.523  0.00  0.00    +0.000 C 
ATOM     28  C   UNL     1      46.290   3.322   6.629  0.00  0.00    +0.000 C 
ATOM     29  C   UNL     1      47.126   2.186   6.030  0.00  0.00    +0.000 C 
ATOM     30  C   UNL     1      47.648   1.241   7.111  0.00  0.00    +0.000 C 
ATOM     31  N   UNL     1      46.545   0.684   7.890  0.00  0.00    +0.000 NA
ATOM     32  C   UNL     1      45.772   1.751   8.533  0.00  0.00    +0.000 C 
ATOM     33  H   UNL     1      46.917   0.068   8.614  0.00  0.00    +0.000 HD
ENDBRANCH  25  27
ENDBRANCH  24  25
ENDBRANCH   6  24
TORSDOF 6
ENDMDL
MODEL 2
REMARK VINA RESULT:    -8.050      2.435      3.984
REMARK INTER + INTRA:         -12.003
REMARK INTER:                 -11.639
REMARK INTRA:                  -0.364
REMARK UNBOUND:                -1.128
REMARK  Name = 
REMARK  7 active torsions:
REMARK  status: ('A' for Active; 'I' for Inactive)
REMARK    1  A    between atoms: C_1  and  C_2
REMARK    2  A    between atoms: C_2  and  N_3
REMARK    3  A    between atoms: C_2  and  C_18
REMARK    4  A    between atoms: C_8  and  C_9
REMARK    5  A    between atoms: C_9  and  N_10
REMARK    6  A    between atoms: N_10  and  C_11
REMARK    7  A    between atoms: C_18  and  C_20
REMARK                            x       y       z     vdW  Elec       q    Type
REMARK                         _______ _______ _______ _____ _____    ______ ____
ROOT
ATOM      1  N   UNL     1      47.855   5.650  15.130  0.00  0.00    +0.000 N 
ATOM      2  C   UNL     1      47.735   6.239  13.872  0.00  0.00    +0.000 A 
ATOM      3  C   UNL     1      48.827   6.962  13.398  0.00  0.00    +0.000 A 
ATOM      4  C   UNL     1      48.779   7.534  12.133  0.00  0.00    +0.000 A 
ATOM      5  C   UNL     1      47.620   7.411  11.383  0.00  0.00    +0.000 A 
ATOM      6  C   UNL     1      46.549   6.710  11.925  0.00  0.00    +0.000 A 
ATOM      7  N   UNL     1      46.605   6.103  13.147  0.00  0.00    +0.000 NA
ATOM      8  H   UNL     1      47.945   6.348  15.863  0.00  0.00    +0.000 HD
ENDROOT
BRANCH   1  10
ATOM      9  C   UNL     1      47.133   3.509  14.276  0.00  0.00    +0.000 C 
ATOM     10  C   UNL     1      46.990   4.503  15.433  0.00  0.00    +0.000 C 
BRANCH  10  11
ATOM     11  C   UNL     1      47.392   3.857  16.784  0.00  0.00    +0.000 C 
ATOM     12  O   UNL     1      46.617   3.117  17.397  0.00  0.00    +0.000 OA
BRANCH  11  13
ATOM     13  C   UNL     1      48.722   4.158  17.345  0.00  0.00    +0.000 A 
ATOM     14  C   UNL     1      49.027   5.338  18.004  0.00  0.00    +0.000 A 
ATOM     15  S   UNL     1      50.591   5.349  18.689  0.00  0.00    +0.000 S 
ATOM     16  C   UNL     1      50.921   3.787  18.105  0.00  0.00    +0.000 A 
ATOM     17  N   UNL     1      52.105   3.175  18.375  0.00  0.00    +0.000 NA
ATOM     18  C   UNL     1      52.206   1.983  17.886  0.00  0.00    +0.000 A 
ATOM     19  N   UNL     1      51.244   1.362  17.131  0.00  0.00    +0.000 N 
ATOM     20  C   UNL     1      50.093   1.997  16.717  0.00  0.00    +0.000 A 
ATOM     21  O   UNL     1      49.402   1.532  15.818  0.00  0.00    +0.000 OA
ATOM     22  C   UNL     1      49.873   3.286  17.355  0.00  0.00    +0.000 A 
ATOM     23  H   UNL     1      51.427   0.468  16.704  0.00  0.00    +0.000 HD
ENDBRANCH  11  13
ENDBRANCH  10  11
ENDBRANCH   1  10
BRANCH   6  24
ATOM     24  C   UNL     1      45.247   6.626  11.150  0.00  0.00    +0.000 C 
BRANCH  24  25
ATOM     25  N   UNL     1      44.386   5.492  11.516  0.00  0.00    +0.000 NA
ATOM     26  H   UNL     1      43.481   5.900  11.759  0.00  0.00    +0.000 HD
BRANCH  25  27
ATOM     27  C   UNL     1      44.146   4.508  10.440  0.00  0.00    +0.000 C 
ATOM     28  C   UNL     1      45.129   4.608   9.262  0.00  0.00    +0.000 C 
ATOM     29  C   UNL     1      44.946   3.430   8.299  0.00  0.00    +0.000 C 
ATOM     30  C   UNL     1      45.030   2.090   9.027  0.00  0.00    +0.000 C 
ATOM     31  N   UNL     1      44.035   2.015  10.093  0.00  0.00    +0.000 NA
ATOM     32  C   UNL     1      44.235   3.092  11.068  0.00  0.00    +0.000 C 
ATOM     33  H   UNL     1      44.119   1.119  10.574  0.00  0.00    +0.000 HD
ENDBRANCH  25  27
ENDBRANCH  24  25
ENDBRANCH   6  24
TORSDOF 6
ENDMDL
MODEL 3
REMARK VINA RESULT:    -7.547      2.701      7.652
REMARK INTER + INTRA:         -11.322
REMARK INTER:                 -10.026
REMARK INTRA:                  -1.296
REMARK UNBOUND:                -1.128
REMARK  Name = 
REMARK  7 active torsions:
REMARK  status: ('A' for Active; 'I' for Inactive)
REMARK    1  A    between atoms: C_1  and  C_2
REMARK    2  A    between atoms: C_2  and  N_3
REMARK    3  A    between atoms: C_2  and  C_18
REMARK    4  A    between atoms: C_8  and  C_9
REMARK    5  A    between atoms: C_9  and  N_10
REMARK    6  A    between atoms: N_10  and  C_11
REMARK    7  A    between atoms: C_18  and  C_20
REMARK                            x       y       z     vdW  Elec       q    Type
REMARK                         _______ _______ _______ _____ _____    ______ ____
ROOT
ATOM      1  N   UNL     1      46.909   7.200  11.686  0.00  0.00    +0.000 N 
ATOM      2  C   UNL     1      48.108   7.469  12.345  0.00  0.00    +0.000 A 
ATOM      3  C   UNL     1      49.214   7.779  11.556  0.00  0.00    +0.000 A 
ATOM      4  C   UNL     1      50.424   8.098  12.160  0.00  0.00    +0.000 A 
ATOM      5  C   UNL     1      50.517   8.057  13.542  0.00  0.00    +0.000 A 
ATOM      6  C   UNL     1      49.389   7.703  14.274  0.00  0.00    +0.000 A 
ATOM      7  N   UNL     1      48.184   7.436  13.691  0.00  0.00    +0.000 NA
ATOM      8  H   UNL     1      46.973   6.358  11.122  0.00  0.00    +0.000 HD
ENDROOT
BRANCH   1  10
ATOM      9  C   UNL     1      45.489   8.882  12.682  0.00  0.00    +0.000 C 
ATOM     10  C   UNL     1      45.661   7.379  12.439  0.00  0.00    +0.000 C 
BRANCH  10  11
ATOM     11  C   UNL     1      44.460   6.793  11.653  0.00  0.00    +0.000 C 
ATOM     12  O   UNL     1      43.626   7.527  11.114  0.00  0.00    +0.000 OA
BRANCH  11  13
ATOM     13  C   UNL     1      44.313   5.327  11.573  0.00  0.00    +0.000 A 
ATOM     14  C   UNL     1      43.703   4.564  12.555  0.00  0.00    +0.000 A 
ATOM     15  S   UNL     1      43.527   2.920  12.127  0.00  0.00    +0.000 S 
ATOM     16  C   UNL     1      44.285   3.171  10.626  0.00  0.00    +0.000 A 
ATOM     17  N   UNL     1      44.430   2.152   9.736  0.00  0.00    +0.000 NA
ATOM     18  C   UNL     1      45.003   2.495   8.630  0.00  0.00    +0.000 A 
ATOM     19  N   UNL     1      45.467   3.754   8.346  0.00  0.00    +0.000 N 
ATOM     20  C   UNL     1      45.468   4.776   9.270  0.00  0.00    +0.000 A 
ATOM     21  O   UNL     1      46.142   5.786   9.097  0.00  0.00    +0.000 OA
ATOM     22  C   UNL     1      44.711   4.478  10.475  0.00  0.00    +0.000 A 
ATOM     23  H   UNL     1      45.987   3.929   7.500  0.00  0.00    +0.000 HD
ENDBRANCH  11  13
ENDBRANCH  10  11
ENDBRANCH   1  10
BRANCH   6  24
ATOM     24  C   UNL     1      49.491   7.582  15.783  0.00  0.00    +0.000 C 
BRANCH  24  25
ATOM     25  N   UNL     1      48.389   6.842  16.415  0.00  0.00    +0.000 NA
ATOM     26  H   UNL     1      47.601   6.917  15.768  0.00  0.00    +0.000 HD
BRANCH  25  27
ATOM     27  C   UNL     1      48.638   5.403  16.635  0.00  0.00    +0.000 C 
ATOM     28  C   UNL     1      48.584   4.970  18.110  0.00  0.00    +0.000 C 
ATOM     29  C   UNL     1      48.642   3.444  18.231  0.00  0.00    +0.000 C 
ATOM     30  C   UNL     1      47.570   2.770  17.377  0.00  0.00    +0.000 C 
ATOM     31  N   UNL     1      47.702   3.159  15.976  0.00  0.00    +0.000 NA
ATOM     32  C   UNL     1      47.577   4.612  15.825  0.00  0.00    +0.000 C 
ATOM     33  H   UNL     1      46.968   2.709  15.428  0.00  0.00    +0.000 HD
ENDBRANCH  25  27
ENDBRANCH  24  25
ENDBRANCH   6  24
TORSDOF 6
ENDMDL
MODEL 4
REMARK VINA RESULT:    -7.125      2.396      4.111
REMARK INTER + INTRA:         -10.752
REMARK INTER:                 -10.116
REMARK INTRA:                  -0.636
REMARK UNBOUND:                -1.128
REMARK  Name = 
REMARK  7 active torsions:
REMARK  status: ('A' for Active; 'I' for Inactive)
REMARK    1  A    between atoms: C_1  and  C_2
REMARK    2  A    between atoms: C_2  and  N_3
REMARK    3  A    between atoms: C_2  and  C_18
REMARK    4  A    between atoms: C_8  and  C_9
REMARK    5  A    between atoms: C_9  and  N_10
REMARK    6  A    between atoms: N_10  and  C_11
REMARK    7  A    between atoms: C_18  and  C_20
REMARK                            x       y       z     vdW  Elec       q    Type
REMARK                         _______ _______ _______ _____ _____    ______ ____
ROOT
ATOM      1  N   UNL     1      47.852   5.560  15.231  0.00  0.00    +0.000 N 
ATOM      2  C   UNL     1      47.762   6.200  13.995  0.00  0.00    +0.000 A 
ATOM      3  C   UNL     1      48.869   6.932  13.573  0.00  0.00    +0.000 A 
ATOM      4  C   UNL     1      48.852   7.555  12.330  0.00  0.00    +0.000 A 
ATOM      5  C   UNL     1      47.708   7.471  11.553  0.00  0.00    +0.000 A 
ATOM      6  C   UNL     1      46.621   6.758  12.045  0.00  0.00    +0.000 A 
ATOM      7  N   UNL     1      46.647   6.103  13.242  0.00  0.00    +0.000 NA
ATOM      8  H   UNL     1      47.931   6.228  15.992  0.00  0.00    +0.000 HD
ENDROOT
BRANCH   1  10
ATOM      9  C   UNL     1      47.179   3.431  14.309  0.00  0.00    +0.000 C 
ATOM     10  C   UNL     1      46.972   4.410  15.470  0.00  0.00    +0.000 C 
BRANCH  10  11
ATOM     11  C   UNL     1      47.299   3.746  16.832  0.00  0.00    +0.000 C 
ATOM     12  O   UNL     1      46.482   3.017  17.404  0.00  0.00    +0.000 OA
BRANCH  11  13
ATOM     13  C   UNL     1      48.608   4.014  17.455  0.00  0.00    +0.000 A 
ATOM     14  C   UNL     1      49.741   3.252  17.216  0.00  0.00    +0.000 A 
ATOM     15  S   UNL     1      51.152   3.886  17.940  0.00  0.00    +0.000 S 
ATOM     16  C   UNL     1      50.290   5.185  18.618  0.00  0.00    +0.000 A 
ATOM     17  N   UNL     1      50.924   6.141  19.349  0.00  0.00    +0.000 NA
ATOM     18  C   UNL     1      50.147   7.077  19.781  0.00  0.00    +0.000 A 
ATOM     19  N   UNL     1      48.792   7.130  19.573  0.00  0.00    +0.000 N 
ATOM     20  C   UNL     1      48.090   6.113  18.962  0.00  0.00    +0.000 A 
ATOM     21  O   UNL     1      46.870   6.046  19.047  0.00  0.00    +0.000 OA
ATOM     22  C   UNL     1      48.938   5.108  18.339  0.00  0.00    +0.000 A 
ATOM     23  H   UNL     1      48.233   7.840  20.017  0.00  0.00    +0.000 HD
ENDBRANCH  11  13
ENDBRANCH  10  11
ENDBRANCH   1  10
BRANCH   6  24
ATOM     24  C   UNL     1      45.334   6.716  11.240  0.00  0.00    +0.000 C 
BRANCH  24  25
ATOM     25  N   UNL     1      44.450   5.585  11.555  0.00  0.00    +0.000 NA
ATOM     26  H   UNL     1      43.541   5.998  11.776  0.00  0.00    +0.000 HD
BRANCH  25  27
ATOM     27  C   UNL     1      44.234   4.625  10.453  0.00  0.00    +0.000 C 
ATOM     28  C   UNL     1      45.267   4.726   9.317  0.00  0.00    +0.000 C 
ATOM     29  C   UNL     1      45.100   3.569   8.326  0.00  0.00    +0.000 C 
ATOM     30  C   UNL     1      45.127   2.215   9.032  0.00  0.00    +0.000 C 
ATOM     31  N   UNL     1      44.088   2.142  10.055  0.00  0.00    +0.000 NA
ATOM     32  C   UNL     1      44.269   3.197  11.057  0.00  0.00    +0.000 C 
ATOM     33  H   UNL     1      44.135   1.236  10.523  0.00  0.00    +0.000 HD
ENDBRANCH  25  27
ENDBRANCH  24  25
ENDBRANCH   6  24
TORSDOF 6
ENDMDL
MODEL 5
REMARK VINA RESULT:    -7.064      1.627      2.194
REMARK INTER + INTRA:         -10.670
REMARK INTER:                 -10.235
REMARK INTRA:                  -0.435
REMARK UNBOUND:                -1.128
REMARK  Name = 
REMARK  7 active torsions:
REMARK  status: ('A' for Active; 'I' for Inactive)
REMARK    1  A    between atoms: C_1  and  C_2
REMARK    2  A    between atoms: C_2  and  N_3
REMARK    3  A    between atoms: C_2  and  C_18
REMARK    4  A    between atoms: C_8  and  C_9
REMARK    5  A    between atoms: C_9  and  N_10
REMARK    6  A    between atoms: N_10  and  C_11
REMARK    7  A    between atoms: C_18  and  C_20
REMARK                            x       y       z     vdW  Elec       q    Type
REMARK                         _______ _______ _______ _____ _____    ______ ____
ROOT
ATOM      1  N   UNL     1      46.038   6.017  13.669  0.00  0.00    +0.000 N 
ATOM      2  C   UNL     1      45.078   5.434  12.843  0.00  0.00    +0.000 A 
ATOM      3  C   UNL     1      43.765   5.882  12.975  0.00  0.00    +0.000 A 
ATOM      4  C   UNL     1      42.774   5.367  12.148  0.00  0.00    +0.000 A 
ATOM      5  C   UNL     1      43.108   4.381  11.233  0.00  0.00    +0.000 A 
ATOM      6  C   UNL     1      44.428   3.949  11.174  0.00  0.00    +0.000 A 
ATOM      7  N   UNL     1      45.416   4.483  11.949  0.00  0.00    +0.000 NA
ATOM      8  H   UNL     1      45.870   5.802  14.647  0.00  0.00    +0.000 HD
ENDROOT
BRANCH   1  10
ATOM      9  C   UNL     1      47.645   7.124  12.245  0.00  0.00    +0.000 C 
ATOM     10  C   UNL     1      47.438   5.968  13.230  0.00  0.00    +0.000 C 
BRANCH  10  11
ATOM     11  C   UNL     1      48.396   6.083  14.443  0.00  0.00    +0.000 C 
ATOM     12  O   UNL     1      49.438   6.743  14.379  0.00  0.00    +0.000 OA
BRANCH  11  13
ATOM     13  C   UNL     1      48.053   5.368  15.686  0.00  0.00    +0.000 A 
ATOM     14  C   UNL     1      47.536   4.082  15.713  0.00  0.00    +0.000 A 
ATOM     15  S   UNL     1      47.385   3.443  17.289  0.00  0.00    +0.000 S 
ATOM     16  C   UNL     1      47.981   4.873  17.989  0.00  0.00    +0.000 A 
ATOM     17  N   UNL     1      48.141   4.980  19.335  0.00  0.00    +0.000 NA
ATOM     18  C   UNL     1      48.624   6.115  19.720  0.00  0.00    +0.000 A 
ATOM     19  N   UNL     1      48.934   7.158  18.887  0.00  0.00    +0.000 N 
ATOM     20  C   UNL     1      48.656   7.144  17.537  0.00  0.00    +0.000 A 
ATOM     21  O   UNL     1      48.670   8.176  16.876  0.00  0.00    +0.000 OA
ATOM     22  C   UNL     1      48.243   5.842  17.037  0.00  0.00    +0.000 A 
ATOM     23  H   UNL     1      49.220   8.048  19.264  0.00  0.00    +0.000 HD
ENDBRANCH  11  13
ENDBRANCH  10  11
ENDBRANCH   1  10
BRANCH   6  24
ATOM     24  C   UNL     1      44.797   2.819  10.229  0.00  0.00    +0.000 C 
BRANCH  24  25
ATOM     25  N   UNL     1      44.253   2.952   8.871  0.00  0.00    +0.000 NA
ATOM     26  H   UNL     1      44.060   3.949   8.747  0.00  0.00    +0.000 HD
BRANCH  25  27
ATOM     27  C   UNL     1      45.165   2.547   7.781  0.00  0.00    +0.000 C 
ATOM     28  C   UNL     1      46.068   3.678   7.261  0.00  0.00    +0.000 C 
ATOM     29  C   UNL     1      47.120   3.130   6.290  0.00  0.00    +0.000 C 
ATOM     30  C   UNL     1      47.910   1.978   6.907  0.00  0.00    +0.000 C 
ATOM     31  N   UNL     1      47.017   0.901   7.326  0.00  0.00    +0.000 NA
ATOM     32  C   UNL     1      46.045   1.385   8.312  0.00  0.00    +0.000 C 
ATOM     33  H   UNL     1      47.565   0.151   7.748  0.00  0.00    +0.000 HD
ENDBRANCH  25  27
ENDBRANCH  24  25
ENDBRANCH   6  24
TORSDOF 6
ENDMDL
MODEL 6
REMARK VINA RESULT:    -6.945      1.793      2.673
REMARK INTER + INTRA:         -10.509
REMARK INTER:                  -9.630
REMARK INTRA:                  -0.879
REMARK UNBOUND:                -1.128
REMARK  Name = 
REMARK  7 active torsions:
REMARK  status: ('A' for Active; 'I' for Inactive)
REMARK    1  A    between atoms: C_1  and  C_2
REMARK    2  A    between atoms: C_2  and  N_3
REMARK    3  A    between atoms: C_2  and  C_18
REMARK    4  A    between atoms: C_8  and  C_9
REMARK    5  A    between atoms: C_9  and  N_10
REMARK    6  A    between atoms: N_10  and  C_11
REMARK    7  A    between atoms: C_18  and  C_20
REMARK                            x       y       z     vdW  Elec       q    Type
REMARK                         _______ _______ _______ _____ _____    ______ ____
ROOT
ATOM      1  N   UNL     1      47.957   8.297  13.959  0.00  0.00    +0.000 N 
ATOM      2  C   UNL     1      46.857   8.076  13.131  0.00  0.00    +0.000 A 
ATOM      3  C   UNL     1      46.075   9.180  12.800  0.00  0.00    +0.000 A 
ATOM      4  C   UNL     1      44.992   9.027  11.944  0.00  0.00    +0.000 A 
ATOM      5  C   UNL     1      44.684   7.761  11.469  0.00  0.00    +0.000 A 
ATOM      6  C   UNL     1      45.480   6.692  11.864  0.00  0.00    +0.000 A 
ATOM      7  N   UNL     1      46.574   6.841  12.666  0.00  0.00    +0.000 NA
ATOM      8  H   UNL     1      47.672   8.602  14.885  0.00  0.00    +0.000 HD
ENDROOT
BRANCH   1  10
ATOM      9  C   UNL     1      49.754   7.496  12.557  0.00  0.00    +0.000 C 
ATOM     10  C   UNL     1      49.055   7.323  13.910  0.00  0.00    +0.000 C 
BRANCH  10  11
ATOM     11  C   UNL     1      50.039   7.550  15.086  0.00  0.00    +0.000 C 
ATOM     12  O   UNL     1      51.261   7.479  14.924  0.00  0.00    +0.000 OA
BRANCH  11  13
ATOM     13  C   UNL     1      49.490   7.838  16.424  0.00  0.00    +0.000 A 
ATOM     14  C   UNL     1      49.620   9.063  17.058  0.00  0.00    +0.000 A 
ATOM     15  S   UNL     1      48.749   9.166  18.524  0.00  0.00    +0.000 S 
ATOM     16  C   UNL     1      48.191   7.567  18.371  0.00  0.00    +0.000 A 
ATOM     17  N   UNL     1      47.352   7.027  19.295  0.00  0.00    +0.000 NA
ATOM     18  C   UNL     1      46.993   5.814  19.037  0.00  0.00    +0.000 A 
ATOM     19  N   UNL     1      47.418   5.084  17.956  0.00  0.00    +0.000 N 
ATOM     20  C   UNL     1      48.374   5.541  17.075  0.00  0.00    +0.000 A 
ATOM     21  O   UNL     1      48.942   4.777  16.305  0.00  0.00    +0.000 OA
ATOM     22  C   UNL     1      48.703   6.948  17.245  0.00  0.00    +0.000 A 
ATOM     23  H   UNL     1      47.171   4.111  17.866  0.00  0.00    +0.000 HD
ENDBRANCH  11  13
ENDBRANCH  10  11
ENDBRANCH   1  10
BRANCH   6  24
ATOM     24  C   UNL     1      45.116   5.289  11.413  0.00  0.00    +0.000 C 
BRANCH  24  25
ATOM     25  N   UNL     1      44.110   5.230  10.343  0.00  0.00    +0.000 NA
ATOM     26  H   UNL     1      44.173   6.127   9.856  0.00  0.00    +0.000 HD
BRANCH  25  27
ATOM     27  C   UNL     1      44.322   4.172   9.334  0.00  0.00    +0.000 C 
ATOM     28  C   UNL     1      45.588   4.357   8.480  0.00  0.00    +0.000 C 
ATOM     29  C   UNL     1      45.844   3.121   7.612  0.00  0.00    +0.000 C 
ATOM     30  C   UNL     1      45.876   1.843   8.448  0.00  0.00    +0.000 C 
ATOM     31  N   UNL     1      44.629   1.676   9.189  0.00  0.00    +0.000 NA
ATOM     32  C   UNL     1      44.397   2.815  10.082  0.00  0.00    +0.000 C 
ATOM     33  H   UNL     1      44.679   0.825   9.751  0.00  0.00    +0.000 HD
ENDBRANCH  25  27
ENDBRANCH  24  25
ENDBRANCH   6  24
TORSDOF 6
ENDMDL
MODEL 7
REMARK VINA RESULT:    -6.688      2.831      4.542
REMARK INTER + INTRA:         -10.163
REMARK INTER:                  -8.784
REMARK INTRA:                  -1.379
REMARK UNBOUND:                -1.128
REMARK  Name = 
REMARK  7 active torsions:
REMARK  status: ('A' for Active; 'I' for Inactive)
REMARK    1  A    between atoms: C_1  and  C_2
REMARK    2  A    between atoms: C_2  and  N_3
REMARK    3  A    between atoms: C_2  and  C_18
REMARK    4  A    between atoms: C_8  and  C_9
REMARK    5  A    between atoms: C_9  and  N_10
REMARK    6  A    between atoms: N_10  and  C_11
REMARK    7  A    between atoms: C_18  and  C_20
REMARK                            x       y       z     vdW  Elec       q    Type
REMARK                         _______ _______ _______ _____ _____    ______ ____
ROOT
ATOM      1  N   UNL     1      49.289   9.295  14.941  0.00  0.00    +0.000 N 
ATOM      2  C   UNL     1      48.350   9.390  13.914  0.00  0.00    +0.000 A 
ATOM      3  C   UNL     1      48.440  10.491  13.066  0.00  0.00    +0.000 A 
ATOM      4  C   UNL     1      47.558  10.614  11.999  0.00  0.00    +0.000 A 
ATOM      5  C   UNL     1      46.571   9.656  11.829  0.00  0.00    +0.000 A 
ATOM      6  C   UNL     1      46.509   8.599  12.731  0.00  0.00    +0.000 A 
ATOM      7  N   UNL     1      47.401   8.445  13.752  0.00  0.00    +0.000 NA
ATOM      8  H   UNL     1      49.187  10.052  15.612  0.00  0.00    +0.000 HD
ENDROOT
BRANCH   1  10
ATOM      9  C   UNL     1      51.075   7.813  15.610  0.00  0.00    +0.000 C 
ATOM     10  C   UNL     1      49.554   7.965  15.504  0.00  0.00    +0.000 C 
BRANCH  10  11
ATOM     11  C   UNL     1      48.874   7.812  16.889  0.00  0.00    +0.000 C 
ATOM     12  O   UNL     1      48.158   8.704  17.354  0.00  0.00    +0.000 OA
BRANCH  11  13
ATOM     13  C   UNL     1      49.111   6.579  17.661  0.00  0.00    +0.000 A 
ATOM     14  C   UNL     1      49.838   6.541  18.840  0.00  0.00    +0.000 A 
ATOM     15  S   UNL     1      49.815   5.014  19.605  0.00  0.00    +0.000 S 
ATOM     16  C   UNL     1      48.853   4.347  18.372  0.00  0.00    +0.000 A 
ATOM     17  N   UNL     1      48.435   3.054  18.432  0.00  0.00    +0.000 NA
ATOM     18  C   UNL     1      47.693   2.693  17.438  0.00  0.00    +0.000 A 
ATOM     19  N   UNL     1      47.355   3.496  16.380  0.00  0.00    +0.000 N 
ATOM     20  C   UNL     1      47.870   4.763  16.209  0.00  0.00    +0.000 A 
ATOM     21  O   UNL     1      47.789   5.340  15.131  0.00  0.00    +0.000 OA
ATOM     22  C   UNL     1      48.597   5.262  17.367  0.00  0.00    +0.000 A 
ATOM     23  H   UNL     1      46.849   3.121  15.593  0.00  0.00    +0.000 HD
ENDBRANCH  11  13
ENDBRANCH  10  11
ENDBRANCH   1  10
BRANCH   6  24
ATOM     24  C   UNL     1      45.391   7.580  12.603  0.00  0.00    +0.000 C 
BRANCH  24  25
ATOM     25  N   UNL     1      45.632   6.314  13.310  0.00  0.00    +0.000 NA
ATOM     26  H   UNL     1      45.512   6.526  14.303  0.00  0.00    +0.000 HD
BRANCH  25  27
ATOM     27  C   UNL     1      44.696   5.219  12.982  0.00  0.00    +0.000 C 
ATOM     28  C   UNL     1      43.848   5.469  11.724  0.00  0.00    +0.000 C 
ATOM     29  C   UNL     1      43.064   4.210  11.337  0.00  0.00    +0.000 C 
ATOM     30  C   UNL     1      43.981   2.997  11.201  0.00  0.00    +0.000 C 
ATOM     31  N   UNL     1      44.717   2.759  12.440  0.00  0.00    +0.000 NA
ATOM     32  C   UNL     1      45.532   3.925  12.793  0.00  0.00    +0.000 C 
ATOM     33  H   UNL     1      45.333   1.954  12.320  0.00  0.00    +0.000 HD
ENDBRANCH  25  27
ENDBRANCH  24  25
ENDBRANCH   6  24
TORSDOF 6
ENDMDL
MODEL 8
REMARK VINA RESULT:    -6.665      2.171      2.860
REMARK INTER + INTRA:         -10.131
REMARK INTER:                  -9.600
REMARK INTRA:                  -0.530
REMARK UNBOUND:                -1.128
REMARK  Name = 
REMARK  7 active torsions:
REMARK  status: ('A' for Active; 'I' for Inactive)
REMARK    1  A    between atoms: C_1  and  C_2
REMARK    2  A    between atoms: C_2  and  N_3
REMARK    3  A    between atoms: C_2  and  C_18
REMARK    4  A    between atoms: C_8  and  C_9
REMARK    5  A    between atoms: C_9  and  N_10
REMARK    6  A    between atoms: N_10  and  C_11
REMARK    7  A    between atoms: C_18  and  C_20
REMARK                            x       y       z     vdW  Elec       q    Type
REMARK                         _______ _______ _______ _____ _____    ______ ____
ROOT
ATOM      1  N   UNL     1      46.308   5.498  14.106  0.00  0.00    +0.000 N 
ATOM      2  C   UNL     1      45.446   5.235  13.041  0.00  0.00    +0.000 A 
ATOM      3  C   UNL     1      44.124   4.925  13.350  0.00  0.00    +0.000 A 
ATOM      4  C   UNL     1      43.211   4.696  12.328  0.00  0.00    +0.000 A 
ATOM      5  C   UNL     1      43.650   4.736  11.014  0.00  0.00    +0.000 A 
ATOM      6  C   UNL     1      44.990   5.014  10.769  0.00  0.00    +0.000 A 
ATOM      7  N   UNL     1      45.882   5.288  11.765  0.00  0.00    +0.000 NA
ATOM      8  H   UNL     1      46.444   4.677  14.688  0.00  0.00    +0.000 HD
ENDROOT
BRANCH   1  10
ATOM      9  C   UNL     1      47.041   7.743  13.598  0.00  0.00    +0.000 C 
ATOM     10  C   UNL     1      47.506   6.301  13.833  0.00  0.00    +0.000 C 
BRANCH  10  11
ATOM     11  C   UNL     1      48.503   6.216  15.017  0.00  0.00    +0.000 C 
ATOM     12  O   UNL     1      48.574   5.206  15.724  0.00  0.00    +0.000 OA
BRANCH  11  13
ATOM     13  C   UNL     1      49.363   7.378  15.303  0.00  0.00    +0.000 A 
ATOM     14  C   UNL     1      50.364   7.819  14.451  0.00  0.00    +0.000 A 
ATOM     15  S   UNL     1      51.092   9.279  14.956  0.00  0.00    +0.000 S 
ATOM     16  C   UNL     1      50.111   9.355  16.343  0.00  0.00    +0.000 A 
ATOM     17  N   UNL     1      50.204  10.400  17.209  0.00  0.00    +0.000 NA
ATOM     18  C   UNL     1      49.383  10.335  18.204  0.00  0.00    +0.000 A 
ATOM     19  N   UNL     1      48.499   9.310  18.425  0.00  0.00    +0.000 N 
ATOM     20  C   UNL     1      48.470   8.169  17.653  0.00  0.00    +0.000 A 
ATOM     21  O   UNL     1      47.889   7.160  18.035  0.00  0.00    +0.000 OA
ATOM     22  C   UNL     1      49.277   8.257  16.446  0.00  0.00    +0.000 A 
ATOM     23  H   UNL     1      47.952   9.279  19.271  0.00  0.00    +0.000 HD
ENDBRANCH  11  13
ENDBRANCH  10  11
ENDBRANCH   1  10
BRANCH   6  24
ATOM     24  C   UNL     1      45.505   4.992   9.341  0.00  0.00    +0.000 C 
BRANCH  24  25
ATOM     25  N   UNL     1      44.608   4.340   8.376  0.00  0.00    +0.000 NA
ATOM     26  H   UNL     1      44.391   5.054   7.677  0.00  0.00    +0.000 HD
BRANCH  25  27
ATOM     27  C   UNL     1      45.185   3.186   7.656  0.00  0.00    +0.000 C 
ATOM     28  C   UNL     1      46.421   3.527   6.806  0.00  0.00    +0.000 C 
ATOM     29  C   UNL     1      47.078   2.252   6.266  0.00  0.00    +0.000 C 
ATOM     30  C   UNL     1      47.385   1.260   7.385  0.00  0.00    +0.000 C 
ATOM     31  N   UNL     1      46.172   0.916   8.122  0.00  0.00    +0.000 NA
ATOM     32  C   UNL     1      45.564   2.113   8.710  0.00  0.00    +0.000 C 
ATOM     33  H   UNL     1      46.404   0.265   8.873  0.00  0.00    +0.000 HD
ENDBRANCH  25  27
ENDBRANCH  24  25
ENDBRANCH   6  24
TORSDOF 6
ENDMDL
MODEL 9
REMARK VINA RESULT:    -6.609      3.233      5.195
REMARK INTER + INTRA:         -10.056
REMARK INTER:                  -8.858
REMARK INTRA:                  -1.198
REMARK UNBOUND:                -1.128
REMARK  Name = 
REMARK  7 active torsions:
REMARK  status: ('A' for Active; 'I' for Inactive)
REMARK    1  A    between atoms: C_1  and  C_2
REMARK    2  A    between atoms: C_2  and  N_3
REMARK    3  A    between atoms: C_2  and  C_18
REMARK    4  A    between atoms: C_8  and  C_9
REMARK    5  A    between atoms: C_9  and  N_10
REMARK    6  A    between atoms: N_10  and  C_11
REMARK    7  A    between atoms: C_18  and  C_20
REMARK                            x       y       z     vdW  Elec       q    Type
REMARK                         _______ _______ _______ _____ _____    ______ ____
ROOT
ATOM      1  N   UNL     1      49.883   8.027  15.709  0.00  0.00    +0.000 N 
ATOM      2  C   UNL     1      48.911   7.746  14.748  0.00  0.00    +0.000 A 
ATOM      3  C   UNL     1      48.394   8.822  14.031  0.00  0.00    +0.000 A 
ATOM      4  C   UNL     1      47.455   8.597  13.032  0.00  0.00    +0.000 A 
ATOM      5  C   UNL     1      47.017   7.303  12.799  0.00  0.00    +0.000 A 
ATOM      6  C   UNL     1      47.543   6.275  13.574  0.00  0.00    +0.000 A 
ATOM      7  N   UNL     1      48.501   6.481  14.524  0.00  0.00    +0.000 NA
ATOM      8  H   UNL     1      49.507   8.588  16.467  0.00  0.00    +0.000 HD
ENDROOT
BRANCH   1  10
ATOM      9  C   UNL     1      52.189   7.552  16.250  0.00  0.00    +0.000 C 
ATOM     10  C   UNL     1      50.791   6.941  16.098  0.00  0.00    +0.000 C 
BRANCH  10  11
ATOM     11  C   UNL     1      50.319   6.280  17.419  0.00  0.00    +0.000 C 
ATOM     12  O   UNL     1      50.270   6.918  18.475  0.00  0.00    +0.000 OA
BRANCH  11  13
ATOM     13  C   UNL     1      49.940   4.855  17.401  0.00  0.00    +0.000 A 
ATOM     14  C   UNL     1      48.652   4.407  17.157  0.00  0.00    +0.000 A 
ATOM     15  S   UNL     1      48.534   2.708  17.035  0.00  0.00    +0.000 S 
ATOM     16  C   UNL     1      50.197   2.514  17.332  0.00  0.00    +0.000 A 
ATOM     17  N   UNL     1      50.769   1.280  17.330  0.00  0.00    +0.000 NA
ATOM     18  C   UNL     1      52.042   1.288  17.547  0.00  0.00    +0.000 A 
ATOM     19  N   UNL     1      52.788   2.413  17.791  0.00  0.00    +0.000 N 
ATOM     20  C   UNL     1      52.228   3.663  17.941  0.00  0.00    +0.000 A 
ATOM     21  O   UNL     1      52.862   4.586  18.439  0.00  0.00    +0.000 OA
ATOM     22  C   UNL     1      50.822   3.724  17.570  0.00  0.00    +0.000 A 
ATOM     23  H   UNL     1      53.761   2.337  18.044  0.00  0.00    +0.000 HD
ENDBRANCH  11  13
ENDBRANCH  10  11
ENDBRANCH   1  10
BRANCH   6  24
ATOM     24  C   UNL     1      47.023   4.861  13.384  0.00  0.00    +0.000 C 
BRANCH  24  25
ATOM     25  N   UNL     1      45.732   4.590  14.031  0.00  0.00    +0.000 NA
ATOM     26  H   UNL     1      45.459   5.467  14.480  0.00  0.00    +0.000 HD
BRANCH  25  27
ATOM     27  C   UNL     1      44.635   4.209  13.118  0.00  0.00    +0.000 C 
ATOM     28  C   UNL     1      43.924   5.400  12.454  0.00  0.00    +0.000 C 
ATOM     29  C   UNL     1      42.950   4.919  11.373  0.00  0.00    +0.000 C 
ATOM     30  C   UNL     1      43.639   4.003  10.363  0.00  0.00    +0.000 C 
ATOM     31  N   UNL     1      44.243   2.853  11.031  0.00  0.00    +0.000 NA
ATOM     32  C   UNL     1      45.232   3.288  12.022  0.00  0.00    +0.000 C 
ATOM     33  H   UNL     1      44.708   2.265  10.340  0.00  0.00    +0.000 HD
ENDBRANCH  25  27
ENDBRANCH  24  25
ENDBRANCH   6  24
TORSDOF 6
ENDMDL
