MODEL 1
REMARK VINA RESULT:    -8.715      0.000      0.000
REMARK INTER + INTRA:         -11.906
REMARK INTER:                 -11.262
REMARK INTRA:                  -0.645
REMARK UNBOUND:                -0.645
REMARK  Name = 
REMARK  5 active torsions:
REMARK  status: ('A' for Active; 'I' for Inactive)
REMARK    1  A    between atoms: C_2  and  C_18
REMARK    2  A    between atoms: N_3  and  C_4
REMARK    3  A    between atoms: C_4  and  C_5
REMARK    4  A    between atoms: C_8  and  C_9
REMARK    5  A    between atoms: C_9  and  C_10
REMARK                            x       y       z     vdW  Elec       q    Type
REMARK                         _______ _______ _______ _____ _____    ______ ____
ROOT
ATOM      1  O   UNL     1      46.589   3.330  13.958  0.00  0.00    +0.000 OA
ATOM      2  C   UNL     1      46.525   4.555  14.126  0.00  0.00    +0.000 C 
ATOM      3  N   UNL     1      45.443   5.276  13.662  0.00  0.00    +0.000 N 
ATOM      4  H   UNL     1      45.486   6.289  13.649  0.00  0.00    +0.000 HD
ENDROOT
BRANCH   2   5
ATOM      5  C   UNL     1      47.546   5.309  14.836  0.00  0.00    +0.000 A 
ATOM      6  C   UNL     1      48.321   6.310  14.270  0.00  0.00    +0.000 A 
ATOM      7  S   UNL     1      49.377   7.050  15.399  0.00  0.00    +0.000 S 
ATOM      8  C   UNL     1      48.810   6.069  16.671  0.00  0.00    +0.000 A 
ATOM      9  N   UNL     1      49.292   6.191  17.940  0.00  0.00    +0.000 NA
ATOM     10  C   UNL     1      48.737   5.392  18.791  0.00  0.00    +0.000 A 
ATOM     11  N   UNL     1      47.757   4.480  18.497  0.00  0.00    +0.000 N 
ATOM     12  C   UNL     1      47.306   4.253  17.219  0.00  0.00    +0.000 A 
ATOM     13  O   UNL     1      46.574   3.303  16.988  0.00  0.00    +0.000 OA
ATOM     14  C   UNL     1      47.852   5.177  16.235  0.00  0.00    +0.000 A 
ATOM     15  H   UNL     1      47.401   3.851  19.196  0.00  0.00    +0.000 HD
ENDBRANCH   2   5
BRANCH   3  16
ATOM     16  C   UNL     1      44.394   4.602  12.944  0.00  0.00    +0.000 C 
BRANCH  16  17
ATOM     17  C   UNL     1      44.772   4.394  11.496  0.00  0.00    +0.000 A 
ATOM     18  C   UNL     1      44.456   3.182  10.915  0.00  0.00    +0.000 A 
ATOM     19  C   UNL     1      44.723   2.929   9.573  0.00  0.00    +0.000 A 
ATOM     20  C   UNL     1      45.305   3.885   8.738  0.00  0.00    +0.000 A 
ATOM     21  C   UNL     1      45.703   5.093   9.334  0.00  0.00    +0.000 A 
ATOM     22  C   UNL     1      45.434   5.347  10.705  0.00  0.00    +0.000 A 
BRANCH  20  23
ATOM     23  C   UNL     1      45.550   3.516   7.289  0.00  0.00    +0.000 C 
BRANCH  23  24
ATOM     24  C   UNL     1      46.945   3.048   6.763  0.00  0.00    +0.000 C 
ATOM     25  C   UNL     1      47.143   3.078   5.247  0.00  0.00    +0.000 C 
ATOM     26  C   UNL     1      46.748   1.791   4.528  0.00  0.00    +0.000 C 
ATOM     27  N   UNL     1      47.247   0.555   5.130  0.00  0.00    +0.000 NA
ATOM     28  C   UNL     1      47.201   0.469   6.585  0.00  0.00    +0.000 C 
ATOM     29  C   UNL     1      47.552   1.755   7.334  0.00  0.00    +0.000 C 
ATOM     30  H   UNL     1      48.198   0.384   4.809  0.00  0.00    +0.000 HD
ENDBRANCH  23  24
ENDBRANCH  20  23
ENDBRANCH  16  17
ENDBRANCH   3  16
TORSDOF 5
ENDMDL
MODEL 2
REMARK VINA RESULT:    -7.940      1.867      3.136
REMARK INTER + INTRA:         -10.906
REMARK INTER:                 -10.191
REMARK INTRA:                  -0.715
REMARK UNBOUND:                -0.645
REMARK  Name = 
REMARK  5 active torsions:
REMARK  status: ('A' for Active; 'I' for Inactive)
REMARK    1  A    between atoms: C_2  and  C_18
REMARK    2  A    between atoms: N_3  and  C_4
REMARK    3  A    between atoms: C_4  and  C_5
REMARK    4  A    between atoms: C_8  and  C_9
REMARK    5  A    between atoms: C_9  and  C_10
REMARK                            x       y       z     vdW  Elec       q    Type
REMARK                         _______ _______ _______ _____ _____    ______ ____
ROOT
ATOM      1  O   UNL     1      46.609   3.789  13.906  0.00  0.00    +0.000 OA
ATOM      2  C   UNL     1      46.596   5.025  13.857  0.00  0.00    +0.000 C 
ATOM      3  N   UNL     1      45.485   5.702  13.395  0.00  0.00    +0.000 N 
ATOM      4  H   UNL     1      45.551   6.694  13.195  0.00  0.00    +0.000 HD
ENDROOT
BRANCH   2   5
ATOM      5  C   UNL     1      47.712   5.845  14.301  0.00  0.00    +0.000 A 
ATOM      6  C   UNL     1      48.247   5.820  15.580  0.00  0.00    +0.000 A 
ATOM      7  S   UNL     1      49.605   6.853  15.751  0.00  0.00    +0.000 S 
ATOM      8  C   UNL     1      49.523   7.339  14.121  0.00  0.00    +0.000 A 
ATOM      9  N   UNL     1      50.416   8.221  13.590  0.00  0.00    +0.000 NA
ATOM     10  C   UNL     1      50.231   8.464  12.334  0.00  0.00    +0.000 A 
ATOM     11  N   UNL     1      49.239   7.919  11.562  0.00  0.00    +0.000 N 
ATOM     12  C   UNL     1      48.259   7.101  12.070  0.00  0.00    +0.000 A 
ATOM     13  O   UNL     1      47.296   6.799  11.382  0.00  0.00    +0.000 OA
ATOM     14  C   UNL     1      48.464   6.744  13.467  0.00  0.00    +0.000 A 
ATOM     15  H   UNL     1      49.118   8.187  10.600  0.00  0.00    +0.000 HD
ENDBRANCH   2   5
BRANCH   3  16
ATOM     16  C   UNL     1      44.342   4.961  12.932  0.00  0.00    +0.000 C 
BRANCH  16  17
ATOM     17  C   UNL     1      44.560   4.444  11.529  0.00  0.00    +0.000 A 
ATOM     18  C   UNL     1      44.908   5.357  10.553  0.00  0.00    +0.000 A 
ATOM     19  C   UNL     1      45.177   4.956   9.247  0.00  0.00    +0.000 A 
ATOM     20  C   UNL     1      45.129   3.616   8.857  0.00  0.00    +0.000 A 
ATOM     21  C   UNL     1      44.702   2.687   9.820  0.00  0.00    +0.000 A 
ATOM     22  C   UNL     1      44.423   3.099  11.149  0.00  0.00    +0.000 A 
BRANCH  20  23
ATOM     23  C   UNL     1      45.445   3.280   7.413  0.00  0.00    +0.000 C 
BRANCH  23  24
ATOM     24  C   UNL     1      46.877   2.873   6.937  0.00  0.00    +0.000 C 
ATOM     25  C   UNL     1      47.183   3.083   5.454  0.00  0.00    +0.000 C 
ATOM     26  C   UNL     1      46.847   1.893   4.560  0.00  0.00    +0.000 C 
ATOM     27  N   UNL     1      47.308   0.592   5.043  0.00  0.00    +0.000 NA
ATOM     28  C   UNL     1      47.157   0.332   6.471  0.00  0.00    +0.000 C 
ATOM     29  C   UNL     1      47.447   1.519   7.391  0.00  0.00    +0.000 C 
ATOM     30  H   UNL     1      48.280   0.457   4.774  0.00  0.00    +0.000 HD
ENDBRANCH  23  24
ENDBRANCH  20  23
ENDBRANCH  16  17
ENDBRANCH   3  16
TORSDOF 5
ENDMDL
MODEL 3
REMARK VINA RESULT:    -7.738      3.536      4.898
REMARK INTER + INTRA:         -10.644
REMARK INTER:                  -9.167
REMARK INTRA:                  -1.477
REMARK UNBOUND:                -0.645
REMARK  Name = 
REMARK  5 active torsions:
REMARK  status: ('A' for Active; 'I' for Inactive)
REMARK    1  A    between atoms: C_2  and  C_18
REMARK    2  A    between atoms: N_3  and  C_4
REMARK    3  A    between atoms: C_4  and  C_5
REMARK    4  A    between atoms: C_8  and  C_9
REMARK    5  A    between atoms: C_9  and  C_10
REMARK                            x       y       z     vdW  Elec       q    Type
REMARK                         _______ _______ _______ _____ _____    ______ ____
ROOT
ATOM      1  O   UNL     1      50.331   7.244  14.765  0.00  0.00    +0.000 OA
ATOM      2  C   UNL     1      49.424   7.104  15.596  0.00  0.00    +0.000 C 
ATOM      3  N   UNL     1      48.234   7.791  15.466  0.00  0.00    +0.000 N 
ATOM      4  H   UNL     1      47.576   7.804  16.238  0.00  0.00    +0.000 HD
ENDROOT
BRANCH   2   5
ATOM      5  C   UNL     1      49.527   6.202  16.733  0.00  0.00    +0.000 A 
ATOM      6  C   UNL     1      50.366   6.398  17.819  0.00  0.00    +0.000 A 
ATOM      7  S   UNL     1      50.188   5.189  19.022  0.00  0.00    +0.000 S 
ATOM      8  C   UNL     1      48.975   4.391  18.132  0.00  0.00    +0.000 A 
ATOM      9  N   UNL     1      48.366   3.265  18.600  0.00  0.00    +0.000 NA
ATOM     10  C   UNL     1      47.449   2.800  17.817  0.00  0.00    +0.000 A 
ATOM     11  N   UNL     1      47.087   3.344  16.613  0.00  0.00    +0.000 N 
ATOM     12  C   UNL     1      47.733   4.420  16.054  0.00  0.00    +0.000 A 
ATOM     13  O   UNL     1      47.498   4.745  14.900  0.00  0.00    +0.000 OA
ATOM     14  C   UNL     1      48.730   5.021  16.930  0.00  0.00    +0.000 A 
ATOM     15  H   UNL     1      46.398   2.905  16.026  0.00  0.00    +0.000 HD
ENDBRANCH   2   5
BRANCH   3  16
ATOM     16  C   UNL     1      48.058   8.707  14.370  0.00  0.00    +0.000 C 
BRANCH  16  17
ATOM     17  C   UNL     1      47.178   8.108  13.297  0.00  0.00    +0.000 A 
ATOM     18  C   UNL     1      47.722   7.131  12.488  0.00  0.00    +0.000 A 
ATOM     19  C   UNL     1      46.963   6.493  11.510  0.00  0.00    +0.000 A 
ATOM     20  C   UNL     1      45.614   6.789  11.306  0.00  0.00    +0.000 A 
ATOM     21  C   UNL     1      45.069   7.835  12.070  0.00  0.00    +0.000 A 
ATOM     22  C   UNL     1      45.846   8.488  13.062  0.00  0.00    +0.000 A 
BRANCH  20  23
ATOM     23  C   UNL     1      44.872   6.034  10.221  0.00  0.00    +0.000 C 
BRANCH  23  24
ATOM     24  C   UNL     1      44.012   4.764  10.517  0.00  0.00    +0.000 C 
ATOM     25  C   UNL     1      42.815   4.958  11.449  0.00  0.00    +0.000 C 
ATOM     26  C   UNL     1      43.122   4.757  12.930  0.00  0.00    +0.000 C 
ATOM     27  N   UNL     1      43.892   3.558  13.256  0.00  0.00    +0.000 NA
ATOM     28  C   UNL     1      44.996   3.223  12.363  0.00  0.00    +0.000 C 
ATOM     29  C   UNL     1      44.733   3.453  10.875  0.00  0.00    +0.000 C 
ATOM     30  H   UNL     1      43.262   2.762  13.330  0.00  0.00    +0.000 HD
ENDBRANCH  23  24
ENDBRANCH  20  23
ENDBRANCH  16  17
ENDBRANCH   3  16
TORSDOF 5
ENDMDL
MODEL 4
REMARK VINA RESULT:    -6.969      4.434      9.232
REMARK INTER + INTRA:          -9.650
REMARK INTER:                  -8.547
REMARK INTRA:                  -1.103
REMARK UNBOUND:                -0.645
REMARK  Name = 
REMARK  5 active torsions:
REMARK  status: ('A' for Active; 'I' for Inactive)
REMARK    1  A    between atoms: C_2  and  C_18
REMARK    2  A    between atoms: N_3  and  C_4
REMARK    3  A    between atoms: C_4  and  C_5
REMARK    4  A    between atoms: C_8  and  C_9
REMARK    5  A    between atoms: C_9  and  C_10
REMARK                            x       y       z     vdW  Elec       q    Type
REMARK                         _______ _______ _______ _____ _____    ______ ____
ROOT
ATOM      1  O   UNL     1      47.316   3.169  14.034  0.00  0.00    +0.000 OA
ATOM      2  C   UNL     1      46.979   4.248  14.536  0.00  0.00    +0.000 C 
ATOM      3  N   UNL     1      46.943   4.410  15.906  0.00  0.00    +0.000 N 
ATOM      4  H   UNL     1      46.500   5.232  16.302  0.00  0.00    +0.000 HD
ENDROOT
BRANCH   2   5
ATOM      5  C   UNL     1      46.630   5.415  13.740  0.00  0.00    +0.000 A 
ATOM      6  C   UNL     1      47.451   6.517  13.559  0.00  0.00    +0.000 A 
ATOM      7  S   UNL     1      46.771   7.684  12.502  0.00  0.00    +0.000 S 
ATOM      8  C   UNL     1      45.379   6.737  12.247  0.00  0.00    +0.000 A 
ATOM      9  N   UNL     1      44.375   7.146  11.421  0.00  0.00    +0.000 NA
ATOM     10  C   UNL     1      43.404   6.300  11.316  0.00  0.00    +0.000 A 
ATOM     11  N   UNL     1      43.335   5.091  11.958  0.00  0.00    +0.000 N 
ATOM     12  C   UNL     1      44.274   4.676  12.872  0.00  0.00    +0.000 A 
ATOM     13  O   UNL     1      44.068   3.683  13.553  0.00  0.00    +0.000 OA
ATOM     14  C   UNL     1      45.422   5.566  12.974  0.00  0.00    +0.000 A 
ATOM     15  H   UNL     1      42.527   4.499  11.873  0.00  0.00    +0.000 HD
ENDBRANCH   2   5
BRANCH   3  16
ATOM     16  C   UNL     1      47.269   3.299  16.762  0.00  0.00    +0.000 C 
BRANCH  16  17
ATOM     17  C   UNL     1      48.674   3.424  17.302  0.00  0.00    +0.000 A 
ATOM     18  C   UNL     1      49.580   2.433  16.978  0.00  0.00    +0.000 A 
ATOM     19  C   UNL     1      50.907   2.499  17.393  0.00  0.00    +0.000 A 
ATOM     20  C   UNL     1      51.400   3.572  18.139  0.00  0.00    +0.000 A 
ATOM     21  C   UNL     1      50.472   4.547  18.541  0.00  0.00    +0.000 A 
ATOM     22  C   UNL     1      49.118   4.475  18.122  0.00  0.00    +0.000 A 
BRANCH  20  23
ATOM     23  C   UNL     1      52.863   3.554  18.536  0.00  0.00    +0.000 C 
BRANCH  23  24
ATOM     24  C   UNL     1      53.855   4.695  18.143  0.00  0.00    +0.000 C 
ATOM     25  C   UNL     1      54.003   5.840  19.145  0.00  0.00    +0.000 C 
ATOM     26  C   UNL     1      53.027   6.995  18.940  0.00  0.00    +0.000 C 
ATOM     27  N   UNL     1      52.897   7.474  17.564  0.00  0.00    +0.000 NA
ATOM     28  C   UNL     1      52.854   6.458  16.518  0.00  0.00    +0.000 C 
ATOM     29  C   UNL     1      53.792   5.267  16.716  0.00  0.00    +0.000 C 
ATOM     30  H   UNL     1      53.644   8.135  17.365  0.00  0.00    +0.000 HD
ENDBRANCH  23  24
ENDBRANCH  20  23
ENDBRANCH  16  17
ENDBRANCH   3  16
TORSDOF 5
ENDMDL
MODEL 5
REMARK VINA RESULT:    -6.941      4.556     10.270
REMARK INTER + INTRA:          -9.614
REMARK INTER:                  -8.597
REMARK INTRA:                  -1.017
REMARK UNBOUND:                -0.645
REMARK  Name = 
REMARK  5 active torsions:
REMARK  status: ('A' for Active; 'I' for Inactive)
REMARK    1  A    between atoms: C_2  and  C_18
REMARK    2  A    between atoms: N_3  and  C_4
REMARK    3  A    between atoms: C_4  and  C_5
REMARK    4  A    between atoms: C_8  and  C_9
REMARK    5  A    between atoms: C_9  and  C_10
REMARK                            x       y       z     vdW  Elec       q    Type
REMARK                         _______ _______ _______ _____ _____    ______ ____
ROOT
ATOM      1  O   UNL     1      47.315   3.442  13.657  0.00  0.00    +0.000 OA
ATOM      2  C   UNL     1      46.794   4.447  14.157  0.00  0.00    +0.000 C 
ATOM      3  N   UNL     1      46.804   4.642  15.523  0.00  0.00    +0.000 N 
ATOM      4  H   UNL     1      46.227   5.371  15.929  0.00  0.00    +0.000 HD
ENDROOT
BRANCH   2   5
ATOM      5  C   UNL     1      46.171   5.493  13.361  0.00  0.00    +0.000 A 
ATOM      6  C   UNL     1      46.786   6.684  13.006  0.00  0.00    +0.000 A 
ATOM      7  S   UNL     1      45.803   7.664  12.000  0.00  0.00    +0.000 S 
ATOM      8  C   UNL     1      44.546   6.515  11.998  0.00  0.00    +0.000 A 
ATOM      9  N   UNL     1      43.389   6.719  11.306  0.00  0.00    +0.000 NA
ATOM     10  C   UNL     1      42.550   5.739  11.386  0.00  0.00    +0.000 A 
ATOM     11  N   UNL     1      42.750   4.583  12.093  0.00  0.00    +0.000 N 
ATOM     12  C   UNL     1      43.855   4.370  12.881  0.00  0.00    +0.000 A 
ATOM     13  O   UNL     1      43.894   3.409  13.635  0.00  0.00    +0.000 OA
ATOM     14  C   UNL     1      44.861   5.417  12.771  0.00  0.00    +0.000 A 
ATOM     15  H   UNL     1      42.036   3.878  12.156  0.00  0.00    +0.000 HD
ENDBRANCH   2   5
BRANCH   3  16
ATOM     16  C   UNL     1      47.397   3.649  16.379  0.00  0.00    +0.000 C 
BRANCH  16  17
ATOM     17  C   UNL     1      47.695   4.217  17.747  0.00  0.00    +0.000 A 
ATOM     18  C   UNL     1      46.965   5.313  18.163  0.00  0.00    +0.000 A 
ATOM     19  C   UNL     1      47.142   5.865  19.428  0.00  0.00    +0.000 A 
ATOM     20  C   UNL     1      48.046   5.335  20.351  0.00  0.00    +0.000 A 
ATOM     21  C   UNL     1      48.851   4.269  19.913  0.00  0.00    +0.000 A 
ATOM     22  C   UNL     1      48.672   3.712  18.620  0.00  0.00    +0.000 A 
BRANCH  20  23
ATOM     23  C   UNL     1      48.161   6.004  21.706  0.00  0.00    +0.000 C 
BRANCH  23  24
ATOM     24  C   UNL     1      48.765   7.433  21.892  0.00  0.00    +0.000 C 
ATOM     25  C   UNL     1      47.763   8.577  22.047  0.00  0.00    +0.000 C 
ATOM     26  C   UNL     1      47.333   9.229  20.736  0.00  0.00    +0.000 C 
ATOM     27  N   UNL     1      48.417   9.561  19.813  0.00  0.00    +0.000 NA
ATOM     28  C   UNL     1      49.484   8.576  19.672  0.00  0.00    +0.000 C 
ATOM     29  C   UNL     1      49.908   7.875  20.963  0.00  0.00    +0.000 C 
ATOM     30  H   UNL     1      48.817  10.460  20.071  0.00  0.00    +0.000 HD
ENDBRANCH  23  24
ENDBRANCH  20  23
ENDBRANCH  16  17
ENDBRANCH   3  16
TORSDOF 5
ENDMDL
MODEL 6
REMARK VINA RESULT:    -6.889      3.532      9.484
REMARK INTER + INTRA:          -9.547
REMARK INTER:                  -8.497
REMARK INTRA:                  -1.051
REMARK UNBOUND:                -0.645
REMARK  Name = 
REMARK  5 active torsions:
REMARK  status: ('A' for Active; 'I' for Inactive)
REMARK    1  A    between atoms: C_2  and  C_18
REMARK    2  A    between atoms: N_3  and  C_4
REMARK    3  A    between atoms: C_4  and  C_5
REMARK    4  A    between atoms: C_8  and  C_9
REMARK    5  A    between atoms: C_9  and  C_10
REMARK                            x       y       z     vdW  Elec       q    Type
REMARK                         _______ _______ _______ _____ _____    ______ ____
ROOT
ATOM      1  O   UNL     1      45.760   7.801  12.017  0.00  0.00    +0.000 OA
ATOM      2  C   UNL     1      46.340   6.765  11.670  0.00  0.00    +0.000 C 
ATOM      3  N   UNL     1      47.641   6.518  12.061  0.00  0.00    +0.000 N 
ATOM      4  H   UNL     1      48.158   5.760  11.629  0.00  0.00    +0.000 HD
ENDROOT
BRANCH   2   5
ATOM      5  C   UNL     1      45.702   5.733  10.867  0.00  0.00    +0.000 A 
ATOM      6  C   UNL     1      45.861   5.592   9.497  0.00  0.00    +0.000 A 
ATOM      7  S   UNL     1      45.031   4.229   8.870  0.00  0.00    +0.000 S 
ATOM      8  C   UNL     1      44.460   3.786  10.412  0.00  0.00    +0.000 A 
ATOM      9  N   UNL     1      43.683   2.681  10.599  0.00  0.00    +0.000 NA
ATOM     10  C   UNL     1      43.357   2.471  11.831  0.00  0.00    +0.000 A 
ATOM     11  N   UNL     1      43.725   3.258  12.892  0.00  0.00    +0.000 N 
ATOM     12  C   UNL     1      44.425   4.431  12.745  0.00  0.00    +0.000 A 
ATOM     13  O   UNL     1      44.561   5.186  13.695  0.00  0.00    +0.000 OA
ATOM     14  C   UNL     1      44.874   4.676  11.381  0.00  0.00    +0.000 A 
ATOM     15  H   UNL     1      43.396   3.067  13.823  0.00  0.00    +0.000 HD
ENDBRANCH   2   5
BRANCH   3  16
ATOM     16  C   UNL     1      48.343   7.494  12.852  0.00  0.00    +0.000 C 
BRANCH  16  17
ATOM     17  C   UNL     1      48.765   6.913  14.182  0.00  0.00    +0.000 A 
ATOM     18  C   UNL     1      49.955   7.353  14.729  0.00  0.00    +0.000 A 
ATOM     19  C   UNL     1      50.390   6.907  15.973  0.00  0.00    +0.000 A 
ATOM     20  C   UNL     1      49.646   6.011  16.743  0.00  0.00    +0.000 A 
ATOM     21  C   UNL     1      48.473   5.496  16.165  0.00  0.00    +0.000 A 
ATOM     22  C   UNL     1      48.035   5.948  14.894  0.00  0.00    +0.000 A 
BRANCH  20  23
ATOM     23  C   UNL     1      50.202   5.591  18.089  0.00  0.00    +0.000 C 
BRANCH  23  24
ATOM     24  C   UNL     1      49.779   6.278  19.427  0.00  0.00    +0.000 C 
ATOM     25  C   UNL     1      49.935   5.441  20.697  0.00  0.00    +0.000 C 
ATOM     26  C   UNL     1      48.713   4.603  21.061  0.00  0.00    +0.000 C 
ATOM     27  N   UNL     1      47.431   5.304  21.012  0.00  0.00    +0.000 NA
ATOM     28  C   UNL     1      47.223   6.213  19.889  0.00  0.00    +0.000 C 
ATOM     29  C   UNL     1      48.442   7.037  19.474  0.00  0.00    +0.000 C 
ATOM     30  H   UNL     1      47.286   5.805  21.886  0.00  0.00    +0.000 HD
ENDBRANCH  23  24
ENDBRANCH  20  23
ENDBRANCH  16  17
ENDBRANCH   3  16
TORSDOF 5
ENDMDL
MODEL 7
REMARK VINA RESULT:    -6.764      4.768     10.254
REMARK INTER + INTRA:          -9.386
REMARK INTER:                  -8.123
REMARK INTRA:                  -1.262
REMARK UNBOUND:                -0.645
REMARK  Name = 
REMARK  5 active torsions:
REMARK  status: ('A' for Active; 'I' for Inactive)
REMARK    1  A    between atoms: C_2  and  C_18
REMARK    2  A    between atoms: N_3  and  C_4
REMARK    3  A    between atoms: C_4  and  C_5
REMARK    4  A    between atoms: C_8  and  C_9
REMARK    5  A    between atoms: C_9  and  C_10
REMARK                            x       y       z     vdW  Elec       q    Type
REMARK                         _______ _______ _______ _____ _____    ______ ____
ROOT
ATOM      1  O   UNL     1      47.421   3.097  14.054  0.00  0.00    +0.000 OA
ATOM      2  C   UNL     1      46.879   4.133  14.457  0.00  0.00    +0.000 C 
ATOM      3  N   UNL     1      46.956   4.501  15.786  0.00  0.00    +0.000 N 
ATOM      4  H   UNL     1      46.365   5.249  16.133  0.00  0.00    +0.000 HD
ENDROOT
BRANCH   2   5
ATOM      5  C   UNL     1      46.159   5.042  13.578  0.00  0.00    +0.000 A 
ATOM      6  C   UNL     1      44.901   4.793  13.050  0.00  0.00    +0.000 A 
ATOM      7  S   UNL     1      44.305   6.100  12.114  0.00  0.00    +0.000 S 
ATOM      8  C   UNL     1      45.699   7.033  12.410  0.00  0.00    +0.000 A 
ATOM      9  N   UNL     1      45.841   8.291  11.904  0.00  0.00    +0.000 NA
ATOM     10  C   UNL     1      46.944   8.872  12.243  0.00  0.00    +0.000 A 
ATOM     11  N   UNL     1      47.919   8.319  13.031  0.00  0.00    +0.000 N 
ATOM     12  C   UNL     1      47.867   7.023  13.486  0.00  0.00    +0.000 A 
ATOM     13  O   UNL     1      48.844   6.522  14.021  0.00  0.00    +0.000 OA
ATOM     14  C   UNL     1      46.612   6.349  13.186  0.00  0.00    +0.000 A 
ATOM     15  H   UNL     1      48.779   8.806  13.219  0.00  0.00    +0.000 HD
ENDBRANCH   2   5
BRANCH   3  16
ATOM     16  C   UNL     1      47.646   3.651  16.719  0.00  0.00    +0.000 C 
BRANCH  16  17
ATOM     17  C   UNL     1      47.811   4.334  18.057  0.00  0.00    +0.000 A 
ATOM     18  C   UNL     1      46.965   5.384  18.354  0.00  0.00    +0.000 A 
ATOM     19  C   UNL     1      47.018   6.033  19.584  0.00  0.00    +0.000 A 
ATOM     20  C   UNL     1      47.909   5.651  20.589  0.00  0.00    +0.000 A 
ATOM     21  C   UNL     1      48.827   4.635  20.272  0.00  0.00    +0.000 A 
ATOM     22  C   UNL     1      48.775   3.979  19.015  0.00  0.00    +0.000 A 
BRANCH  20  23
ATOM     23  C   UNL     1      47.884   6.415  21.897  0.00  0.00    +0.000 C 
BRANCH  23  24
ATOM     24  C   UNL     1      48.416   7.879  22.026  0.00  0.00    +0.000 C 
ATOM     25  C   UNL     1      47.364   8.988  21.996  0.00  0.00    +0.000 C 
ATOM     26  C   UNL     1      47.042   9.521  20.603  0.00  0.00    +0.000 C 
ATOM     27  N   UNL     1      48.199   9.830  19.764  0.00  0.00    +0.000 NA
ATOM     28  C   UNL     1      49.308   8.884  19.803  0.00  0.00    +0.000 C 
ATOM     29  C   UNL     1      49.629   8.299  21.179  0.00  0.00    +0.000 C 
ATOM     30  H   UNL     1      48.539  10.762  19.988  0.00  0.00    +0.000 HD
ENDBRANCH  23  24
ENDBRANCH  20  23
ENDBRANCH  16  17
ENDBRANCH   3  16
TORSDOF 5
ENDMDL
MODEL 8
REMARK VINA RESULT:    -6.743      3.250      9.377
REMARK INTER + INTRA:          -9.359
REMARK INTER:                  -8.057
REMARK INTRA:                  -1.301
REMARK UNBOUND:                -0.645
REMARK  Name = 
REMARK  5 active torsions:
REMARK  status: ('A' for Active; 'I' for Inactive)
REMARK    1  A    between atoms: C_2  and  C_18
REMARK    2  A    between atoms: N_3  and  C_4
REMARK    3  A    between atoms: C_4  and  C_5
REMARK    4  A    between atoms: C_8  and  C_9
REMARK    5  A    between atoms: C_9  and  C_10
REMARK                            x       y       z     vdW  Elec       q    Type
REMARK                         _______ _______ _______ _____ _____    ______ ____
ROOT
ATOM      1  O   UNL     1      44.800   7.693  12.083  0.00  0.00    +0.000 OA
ATOM      2  C   UNL     1      45.493   6.676  11.949  0.00  0.00    +0.000 C 
ATOM      3  N   UNL     1      46.872   6.757  11.945  0.00  0.00    +0.000 N 
ATOM      4  H   UNL     1      47.418   5.951  11.661  0.00  0.00    +0.000 HD
ENDROOT
BRANCH   2   5
ATOM      5  C   UNL     1      44.925   5.344  11.820  0.00  0.00    +0.000 A 
ATOM      6  C   UNL     1      44.253   4.674  12.831  0.00  0.00    +0.000 A 
ATOM      7  S   UNL     1      43.642   3.153  12.328  0.00  0.00    +0.000 S 
ATOM      8  C   UNL     1      44.240   3.364  10.747  0.00  0.00    +0.000 A 
ATOM      9  N   UNL     1      44.052   2.423   9.778  0.00  0.00    +0.000 NA
ATOM     10  C   UNL     1      44.544   2.749   8.628  0.00  0.00    +0.000 A 
ATOM     11  N   UNL     1      45.209   3.915   8.354  0.00  0.00    +0.000 N 
ATOM     12  C   UNL     1      45.507   4.850   9.316  0.00  0.00    +0.000 A 
ATOM     13  O   UNL     1      46.263   5.774   9.059  0.00  0.00    +0.000 OA
ATOM     14  C   UNL     1      44.915   4.559  10.615  0.00  0.00    +0.000 A 
ATOM     15  H   UNL     1      45.612   4.087   7.449  0.00  0.00    +0.000 HD
ENDBRANCH   2   5
BRANCH   3  16
ATOM     16  C   UNL     1      47.509   8.041  12.062  0.00  0.00    +0.000 C 
BRANCH  16  17
ATOM     17  C   UNL     1      48.347   8.120  13.317  0.00  0.00    +0.000 A 
ATOM     18  C   UNL     1      47.797   8.738  14.422  0.00  0.00    +0.000 A 
ATOM     19  C   UNL     1      48.482   8.807  15.631  0.00  0.00    +0.000 A 
ATOM     20  C   UNL     1      49.748   8.243  15.802  0.00  0.00    +0.000 A 
ATOM     21  C   UNL     1      50.352   7.678  14.665  0.00  0.00    +0.000 A 
ATOM     22  C   UNL     1      49.653   7.614  13.432  0.00  0.00    +0.000 A 
BRANCH  20  23
ATOM     23  C   UNL     1      50.409   8.364  17.160  0.00  0.00    +0.000 C 
BRANCH  23  24
ATOM     24  C   UNL     1      50.005   7.471  18.377  0.00  0.00    +0.000 C 
ATOM     25  C   UNL     1      49.746   5.994  18.076  0.00  0.00    +0.000 C 
ATOM     26  C   UNL     1      48.303   5.663  17.706  0.00  0.00    +0.000 C 
ATOM     27  N   UNL     1      47.281   6.240  18.578  0.00  0.00    +0.000 NA
ATOM     28  C   UNL     1      47.489   7.618  19.011  0.00  0.00    +0.000 C 
ATOM     29  C   UNL     1      48.933   7.992  19.349  0.00  0.00    +0.000 C 
ATOM     30  H   UNL     1      47.156   5.644  19.393  0.00  0.00    +0.000 HD
ENDBRANCH  23  24
ENDBRANCH  20  23
ENDBRANCH  16  17
ENDBRANCH   3  16
TORSDOF 5
ENDMDL
