MODEL 1
REMARK VINA RESULT:    -7.966      0.000      0.000
REMARK INTER + INTRA:         -12.772
REMARK INTER:                 -11.691
REMARK INTRA:                  -1.081
REMARK UNBOUND:                -1.081
REMARK  Name = 
REMARK  8 active torsions:
REMARK  status: ('A' for Active; 'I' for Inactive)
REMARK    1  A    between atoms: C_2  and  C_3
REMARK    2  A    between atoms: C_2  and  C_11
REMARK    3  A    between atoms: C_3  and  C_4
REMARK    4  A    between atoms: C_4  and  C_5
REMARK    5  A    between atoms: C_14  and  C_15
REMARK    6  A    between atoms: C_15  and  N_16
REMARK    7  A    between atoms: N_16  and  C_17
REMARK    8  A    between atoms: C_17  and  C_18
REMARK                            x       y       z     vdW  Elec       q    Type
REMARK                         _______ _______ _______ _____ _____    ______ ____
ROOT
ATOM      1  C   UNL     1      45.029   4.586  11.347  0.00  0.00    +0.000 A 
ATOM      2  C   UNL     1      45.385   4.269  12.666  0.00  0.00    +0.000 A 
ATOM      3  C   UNL     1      46.291   5.066  13.373  0.00  0.00    +0.000 A 
ATOM      4  C   UNL     1      46.858   6.200  12.779  0.00  0.00    +0.000 A 
ATOM      5  C   UNL     1      46.505   6.515  11.462  0.00  0.00    +0.000 A 
ATOM      6  C   UNL     1      45.605   5.713  10.750  0.00  0.00    +0.000 A 
ENDROOT
BRANCH   1   8
ATOM      7  N   UNL     1      42.998   3.284  11.250  0.00  0.00    +0.000 NA
ATOM      8  C   UNL     1      44.061   3.688  10.626  0.00  0.00    +0.000 C 
ATOM      9  H   UNL     1      42.429   2.641  10.699  0.00  0.00    +0.000 HD
BRANCH   8  10
ATOM     10  C   UNL     1      44.393   3.215   9.212  0.00  0.00    +0.000 C 
BRANCH  10  11
ATOM     11  C   UNL     1      45.432   2.098   9.130  0.00  0.00    +0.000 C 
BRANCH  11  12
ATOM     12  C   UNL     1      46.224   2.188   7.853  0.00  0.00    +0.000 A 
ATOM     13  C   UNL     1      46.104   3.292   7.005  0.00  0.00    +0.000 A 
ATOM     14  C   UNL     1      46.833   3.333   5.819  0.00  0.00    +0.000 A 
ATOM     15  C   UNL     1      47.654   2.261   5.517  0.00  0.00    +0.000 A 
ATOM     16  N   UNL     1      47.787   1.172   6.306  0.00  0.00    +0.000 NA
ATOM     17  C   UNL     1      47.072   1.161   7.452  0.00  0.00    +0.000 A 
ENDBRANCH  11  12
ENDBRANCH  10  11
ENDBRANCH   8  10
ENDBRANCH   1   8
BRANCH   4  18
ATOM     18  C   UNL     1      47.818   7.077  13.546  0.00  0.00    +0.000 C 
BRANCH  18  19
ATOM     19  N   UNL     1      48.805   6.278  14.267  0.00  0.00    +0.000 NA
ATOM     20  H   UNL     1      49.739   6.537  13.946  0.00  0.00    +0.000 HD
BRANCH  19  21
ATOM     21  C   UNL     1      48.728   6.542  15.709  0.00  0.00    +0.000 C 
BRANCH  21  22
ATOM     22  C   UNL     1      48.669   5.266  16.525  0.00  0.00    +0.000 A 
ATOM     23  C   UNL     1      47.442   4.661  16.793  0.00  0.00    +0.000 A 
ATOM     24  C   UNL     1      47.416   3.496  17.553  0.00  0.00    +0.000 A 
ATOM     25  C   UNL     1      48.610   2.969  18.028  0.00  0.00    +0.000 A 
ATOM     26  C   UNL     1      49.786   3.631  17.719  0.00  0.00    +0.000 A 
ATOM     27  N   UNL     1      49.844   4.761  16.981  0.00  0.00    +0.000 NA
ENDBRANCH  21  22
ENDBRANCH  19  21
ENDBRANCH  18  19
ENDBRANCH   4  18
TORSDOF 8
ENDMDL
MODEL 2
REMARK VINA RESULT:    -7.629      1.204      8.493
REMARK INTER + INTRA:         -12.278
REMARK INTER:                 -11.304
REMARK INTRA:                  -0.974
REMARK UNBOUND:                -1.081
REMARK  Name = 
REMARK  8 active torsions:
REMARK  status: ('A' for Active; 'I' for Inactive)
REMARK    1  A    between atoms: C_2  and  C_3
REMARK    2  A    between atoms: C_2  and  C_11
REMARK    3  A    between atoms: C_3  and  C_4
REMARK    4  A    between atoms: C_4  and  C_5
REMARK    5  A    between atoms: C_14  and  C_15
REMARK    6  A    between atoms: C_15  and  N_16
REMARK    7  A    between atoms: N_16  and  C_17
REMARK    8  A    between atoms: C_17  and  C_18
REMARK                            x       y       z     vdW  Elec       q    Type
REMARK                         _______ _______ _______ _____ _____    ______ ____
ROOT
ATOM      1  C   UNL     1      47.025   6.089  12.824  0.00  0.00    +0.000 A 
ATOM      2  C   UNL     1      46.845   6.505  11.497  0.00  0.00    +0.000 A 
ATOM      3  C   UNL     1      45.741   6.072  10.755  0.00  0.00    +0.000 A 
ATOM      4  C   UNL     1      44.790   5.216  11.325  0.00  0.00    +0.000 A 
ATOM      5  C   UNL     1      44.971   4.799  12.649  0.00  0.00    +0.000 A 
ATOM      6  C   UNL     1      46.080   5.224  13.389  0.00  0.00    +0.000 A 
ENDROOT
BRANCH   1   8
ATOM      7  N   UNL     1      49.381   6.597  12.961  0.00  0.00    +0.000 NA
ATOM      8  C   UNL     1      48.237   6.572  13.572  0.00  0.00    +0.000 C 
ATOM      9  H   UNL     1      50.150   6.891  13.562  0.00  0.00    +0.000 HD
BRANCH   8  10
ATOM     10  C   UNL     1      48.104   6.945  15.048  0.00  0.00    +0.000 C 
BRANCH  10  11
ATOM     11  C   UNL     1      49.174   6.351  15.963  0.00  0.00    +0.000 C 
BRANCH  11  12
ATOM     12  C   UNL     1      48.674   5.102  16.640  0.00  0.00    +0.000 A 
ATOM     13  C   UNL     1      49.535   4.289  17.382  0.00  0.00    +0.000 A 
ATOM     14  C   UNL     1      49.047   3.128  17.975  0.00  0.00    +0.000 A 
ATOM     15  C   UNL     1      47.711   2.814  17.798  0.00  0.00    +0.000 A 
ATOM     16  N   UNL     1      46.851   3.569  17.080  0.00  0.00    +0.000 NA
ATOM     17  C   UNL     1      47.351   4.692  16.519  0.00  0.00    +0.000 A 
ENDBRANCH  11  12
ENDBRANCH  10  11
ENDBRANCH   8  10
ENDBRANCH   1   8
BRANCH   4  18
ATOM     18  C   UNL     1      43.584   4.766  10.537  0.00  0.00    +0.000 C 
BRANCH  18  19
ATOM     19  N   UNL     1      43.972   4.226   9.237  0.00  0.00    +0.000 NA
ATOM     20  H   UNL     1      44.764   4.761   8.879  0.00  0.00    +0.000 HD
BRANCH  19  21
ATOM     21  C   UNL     1      44.387   2.823   9.364  0.00  0.00    +0.000 C 
BRANCH  21  22
ATOM     22  C   UNL     1      45.533   2.476   8.434  0.00  0.00    +0.000 A 
ATOM     23  C   UNL     1      46.087   3.452   7.608  0.00  0.00    +0.000 A 
ATOM     24  C   UNL     1      47.130   3.103   6.757  0.00  0.00    +0.000 A 
ATOM     25  C   UNL     1      47.589   1.791   6.749  0.00  0.00    +0.000 A 
ATOM     26  C   UNL     1      46.984   0.881   7.599  0.00  0.00    +0.000 A 
ATOM     27  N   UNL     1      45.972   1.191   8.439  0.00  0.00    +0.000 NA
ENDBRANCH  21  22
ENDBRANCH  19  21
ENDBRANCH  18  19
ENDBRANCH   4  18
TORSDOF 8
ENDMDL
MODEL 3
REMARK VINA RESULT:    -7.524      1.495      2.230
REMARK INTER + INTRA:         -12.124
REMARK INTER:                 -11.355
REMARK INTRA:                  -0.769
REMARK UNBOUND:                -1.081
REMARK  Name = 
REMARK  8 active torsions:
REMARK  status: ('A' for Active; 'I' for Inactive)
REMARK    1  A    between atoms: C_2  and  C_3
REMARK    2  A    between atoms: C_2  and  C_11
REMARK    3  A    between atoms: C_3  and  C_4
REMARK    4  A    between atoms: C_4  and  C_5
REMARK    5  A    between atoms: C_14  and  C_15
REMARK    6  A    between atoms: C_15  and  N_16
REMARK    7  A    between atoms: N_16  and  C_17
REMARK    8  A    between atoms: C_17  and  C_18
REMARK                            x       y       z     vdW  Elec       q    Type
REMARK                         _______ _______ _______ _____ _____    ______ ____
ROOT
ATOM      1  C   UNL     1      44.914   4.974  11.593  0.00  0.00    +0.000 A 
ATOM      2  C   UNL     1      45.457   6.192  12.028  0.00  0.00    +0.000 A 
ATOM      3  C   UNL     1      46.372   6.230  13.085  0.00  0.00    +0.000 A 
ATOM      4  C   UNL     1      46.767   5.051  13.729  0.00  0.00    +0.000 A 
ATOM      5  C   UNL     1      46.223   3.836  13.298  0.00  0.00    +0.000 A 
ATOM      6  C   UNL     1      45.300   3.797  12.245  0.00  0.00    +0.000 A 
ENDROOT
BRANCH   1   8
ATOM      7  N   UNL     1      42.832   5.680  10.596  0.00  0.00    +0.000 NA
ATOM      8  C   UNL     1      43.923   4.990  10.462  0.00  0.00    +0.000 C 
ATOM      9  H   UNL     1      42.201   5.591   9.800  0.00  0.00    +0.000 HD
BRANCH   8  10
ATOM     10  C   UNL     1      44.188   4.136   9.224  0.00  0.00    +0.000 C 
BRANCH  10  11
ATOM     11  C   UNL     1      45.498   4.439   8.498  0.00  0.00    +0.000 C 
BRANCH  11  12
ATOM     12  C   UNL     1      46.118   3.181   7.951  0.00  0.00    +0.000 A 
ATOM     13  C   UNL     1      46.984   3.219   6.856  0.00  0.00    +0.000 A 
ATOM     14  C   UNL     1      47.522   2.035   6.359  0.00  0.00    +0.000 A 
ATOM     15  C   UNL     1      47.166   0.847   6.973  0.00  0.00    +0.000 A 
ATOM     16  N   UNL     1      46.324   0.768   8.026  0.00  0.00    +0.000 NA
ATOM     17  C   UNL     1      45.820   1.933   8.490  0.00  0.00    +0.000 A 
ENDBRANCH  11  12
ENDBRANCH  10  11
ENDBRANCH   8  10
ENDBRANCH   1   8
BRANCH   4  18
ATOM     18  C   UNL     1      47.773   5.084  14.854  0.00  0.00    +0.000 C 
BRANCH  18  19
ATOM     19  N   UNL     1      47.128   4.872  16.147  0.00  0.00    +0.000 NA
ATOM     20  H   UNL     1      46.124   5.020  16.045  0.00  0.00    +0.000 HD
BRANCH  19  21
ATOM     21  C   UNL     1      47.343   3.496  16.611  0.00  0.00    +0.000 C 
BRANCH  21  22
ATOM     22  C   UNL     1      48.784   3.239  17.006  0.00  0.00    +0.000 A 
ATOM     23  C   UNL     1      49.493   4.194  17.733  0.00  0.00    +0.000 A 
ATOM     24  C   UNL     1      50.817   3.937  18.073  0.00  0.00    +0.000 A 
ATOM     25  C   UNL     1      51.399   2.739  17.677  0.00  0.00    +0.000 A 
ATOM     26  C   UNL     1      50.627   1.844  16.956  0.00  0.00    +0.000 A 
ATOM     27  N   UNL     1      49.339   2.063  16.614  0.00  0.00    +0.000 NA
ENDBRANCH  21  22
ENDBRANCH  19  21
ENDBRANCH  18  19
ENDBRANCH   4  18
TORSDOF 8
ENDMDL
MODEL 4
REMARK VINA RESULT:    -7.312      3.066      5.209
REMARK INTER + INTRA:         -11.813
REMARK INTER:                 -10.729
REMARK INTRA:                  -1.085
REMARK UNBOUND:                -1.081
REMARK  Name = 
REMARK  8 active torsions:
REMARK  status: ('A' for Active; 'I' for Inactive)
REMARK    1  A    between atoms: C_2  and  C_3
REMARK    2  A    between atoms: C_2  and  C_11
REMARK    3  A    between atoms: C_3  and  C_4
REMARK    4  A    between atoms: C_4  and  C_5
REMARK    5  A    between atoms: C_14  and  C_15
REMARK    6  A    between atoms: C_15  and  N_16
REMARK    7  A    between atoms: N_16  and  C_17
REMARK    8  A    between atoms: C_17  and  C_18
REMARK                            x       y       z     vdW  Elec       q    Type
REMARK                         _______ _______ _______ _____ _____    ______ ____
ROOT
ATOM      1  C   UNL     1      45.711   3.039   7.962  0.00  0.00    +0.000 A 
ATOM      2  C   UNL     1      45.439   1.894   8.724  0.00  0.00    +0.000 A 
ATOM      3  C   UNL     1      44.641   1.971   9.870  0.00  0.00    +0.000 A 
ATOM      4  C   UNL     1      44.094   3.195  10.278  0.00  0.00    +0.000 A 
ATOM      5  C   UNL     1      44.369   4.338   9.519  0.00  0.00    +0.000 A 
ATOM      6  C   UNL     1      45.175   4.264   8.377  0.00  0.00    +0.000 A 
ENDROOT
BRANCH   1   8
ATOM      7  N   UNL     1      46.901   3.973   6.081  0.00  0.00    +0.000 NA
ATOM      8  C   UNL     1      46.588   2.905   6.747  0.00  0.00    +0.000 C 
ATOM      9  H   UNL     1      47.456   3.778   5.248  0.00  0.00    +0.000 HD
BRANCH   8  10
ATOM     10  C   UNL     1      47.019   1.514   6.287  0.00  0.00    +0.000 C 
BRANCH  10  11
ATOM     11  C   UNL     1      47.696   1.467   4.918  0.00  0.00    +0.000 C 
BRANCH  11  12
ATOM     12  C   UNL     1      46.871   0.683   3.932  0.00  0.00    +0.000 A 
ATOM     13  C   UNL     1      45.929   1.313   3.115  0.00  0.00    +0.000 A 
ATOM     14  C   UNL     1      45.165   0.556   2.232  0.00  0.00    +0.000 A 
ATOM     15  C   UNL     1      45.364  -0.812   2.201  0.00  0.00    +0.000 A 
ATOM     16  N   UNL     1      46.256  -1.459   2.983  0.00  0.00    +0.000 NA
ATOM     17  C   UNL     1      46.987  -0.699   3.828  0.00  0.00    +0.000 A 
ENDBRANCH  11  12
ENDBRANCH  10  11
ENDBRANCH   8  10
ENDBRANCH   1   8
BRANCH   4  18
ATOM     18  C   UNL     1      43.212   3.279  11.500  0.00  0.00    +0.000 C 
BRANCH  18  19
ATOM     19  N   UNL     1      44.006   3.307  12.725  0.00  0.00    +0.000 NA
ATOM     20  H   UNL     1      44.981   3.112  12.493  0.00  0.00    +0.000 HD
BRANCH  19  21
ATOM     21  C   UNL     1      43.941   4.634  13.351  0.00  0.00    +0.000 C 
BRANCH  21  22
ATOM     22  C   UNL     1      45.089   5.527  12.927  0.00  0.00    +0.000 A 
ATOM     23  C   UNL     1      46.406   5.143  13.174  0.00  0.00    +0.000 A 
ATOM     24  C   UNL     1      47.440   5.987  12.783  0.00  0.00    +0.000 A 
ATOM     25  C   UNL     1      47.135   7.191  12.162  0.00  0.00    +0.000 A 
ATOM     26  C   UNL     1      45.801   7.500  11.954  0.00  0.00    +0.000 A 
ATOM     27  N   UNL     1      44.776   6.700  12.318  0.00  0.00    +0.000 NA
ENDBRANCH  21  22
ENDBRANCH  19  21
ENDBRANCH  18  19
ENDBRANCH   4  18
TORSDOF 8
ENDMDL
MODEL 5
REMARK VINA RESULT:    -7.179      1.753      1.923
REMARK INTER + INTRA:         -11.618
REMARK INTER:                 -10.919
REMARK INTRA:                  -0.699
REMARK UNBOUND:                -1.081
REMARK  Name = 
REMARK  8 active torsions:
REMARK  status: ('A' for Active; 'I' for Inactive)
REMARK    1  A    between atoms: C_2  and  C_3
REMARK    2  A    between atoms: C_2  and  C_11
REMARK    3  A    between atoms: C_3  and  C_4
REMARK    4  A    between atoms: C_4  and  C_5
REMARK    5  A    between atoms: C_14  and  C_15
REMARK    6  A    between atoms: C_15  and  N_16
REMARK    7  A    between atoms: N_16  and  C_17
REMARK    8  A    between atoms: C_17  and  C_18
REMARK                            x       y       z     vdW  Elec       q    Type
REMARK                         _______ _______ _______ _____ _____    ______ ____
ROOT
ATOM      1  C   UNL     1      45.306   5.438  11.643  0.00  0.00    +0.000 A 
ATOM      2  C   UNL     1      45.424   4.765  12.867  0.00  0.00    +0.000 A 
ATOM      3  C   UNL     1      46.438   5.097  13.771  0.00  0.00    +0.000 A 
ATOM      4  C   UNL     1      47.356   6.111  13.473  0.00  0.00    +0.000 A 
ATOM      5  C   UNL     1      47.241   6.781  12.249  0.00  0.00    +0.000 A 
ATOM      6  C   UNL     1      46.232   6.445  11.339  0.00  0.00    +0.000 A 
ENDROOT
BRANCH   1   8
ATOM      7  N   UNL     1      43.118   5.738  10.668  0.00  0.00    +0.000 NA
ATOM      8  C   UNL     1      44.207   5.033  10.699  0.00  0.00    +0.000 C 
ATOM      9  H   UNL     1      42.413   5.360  10.036  0.00  0.00    +0.000 HD
BRANCH   8  10
ATOM     10  C   UNL     1      44.369   3.765   9.863  0.00  0.00    +0.000 C 
BRANCH  10  11
ATOM     11  C   UNL     1      44.717   3.999   8.394  0.00  0.00    +0.000 C 
BRANCH  11  12
ATOM     12  C   UNL     1      45.728   2.993   7.910  0.00  0.00    +0.000 A 
ATOM     13  C   UNL     1      46.638   3.313   6.900  0.00  0.00    +0.000 A 
ATOM     14  C   UNL     1      47.544   2.352   6.458  0.00  0.00    +0.000 A 
ATOM     15  C   UNL     1      47.502   1.097   7.038  0.00  0.00    +0.000 A 
ATOM     16  N   UNL     1      46.630   0.747   8.009  0.00  0.00    +0.000 NA
ATOM     17  C   UNL     1      45.765   1.700   8.421  0.00  0.00    +0.000 A 
ENDBRANCH  11  12
ENDBRANCH  10  11
ENDBRANCH   8  10
ENDBRANCH   1   8
BRANCH   4  18
ATOM     18  C   UNL     1      48.437   6.490  14.456  0.00  0.00    +0.000 C 
BRANCH  18  19
ATOM     19  N   UNL     1      47.993   6.296  15.833  0.00  0.00    +0.000 NA
ATOM     20  H   UNL     1      47.300   5.547  15.855  0.00  0.00    +0.000 HD
BRANCH  19  21
ATOM     21  C   UNL     1      49.120   5.901  16.687  0.00  0.00    +0.000 C 
BRANCH  21  22
ATOM     22  C   UNL     1      48.725   5.789  18.146  0.00  0.00    +0.000 A 
ATOM     23  C   UNL     1      47.921   6.766  18.732  0.00  0.00    +0.000 A 
ATOM     24  C   UNL     1      47.582   6.643  20.076  0.00  0.00    +0.000 A 
ATOM     25  C   UNL     1      48.055   5.554  20.799  0.00  0.00    +0.000 A 
ATOM     26  C   UNL     1      48.849   4.629  20.142  0.00  0.00    +0.000 A 
ATOM     27  N   UNL     1      49.193   4.719  18.839  0.00  0.00    +0.000 NA
ENDBRANCH  21  22
ENDBRANCH  19  21
ENDBRANCH  18  19
ENDBRANCH   4  18
TORSDOF 8
ENDMDL
MODEL 6
REMARK VINA RESULT:    -6.979      2.834      7.895
REMARK INTER + INTRA:         -11.323
REMARK INTER:                 -10.319
REMARK INTRA:                  -1.004
REMARK UNBOUND:                -1.081
REMARK  Name = 
REMARK  8 active torsions:
REMARK  status: ('A' for Active; 'I' for Inactive)
REMARK    1  A    between atoms: C_2  and  C_3
REMARK    2  A    between atoms: C_2  and  C_11
REMARK    3  A    between atoms: C_3  and  C_4
REMARK    4  A    between atoms: C_4  and  C_5
REMARK    5  A    between atoms: C_14  and  C_15
REMARK    6  A    between atoms: C_15  and  N_16
REMARK    7  A    between atoms: N_16  and  C_17
REMARK    8  A    between atoms: C_17  and  C_18
REMARK                            x       y       z     vdW  Elec       q    Type
REMARK                         _______ _______ _______ _____ _____    ______ ____
ROOT
ATOM      1  C   UNL     1      46.350   7.107  12.695  0.00  0.00    +0.000 A 
ATOM      2  C   UNL     1      46.603   5.850  13.263  0.00  0.00    +0.000 A 
ATOM      3  C   UNL     1      45.851   4.732  12.888  0.00  0.00    +0.000 A 
ATOM      4  C   UNL     1      44.832   4.845  11.933  0.00  0.00    +0.000 A 
ATOM      5  C   UNL     1      44.578   6.100  11.369  0.00  0.00    +0.000 A 
ATOM      6  C   UNL     1      45.323   7.222  11.750  0.00  0.00    +0.000 A 
ENDROOT
BRANCH   1   8
ATOM      7  N   UNL     1      46.960   8.785  14.319  0.00  0.00    +0.000 NA
ATOM      8  C   UNL     1      47.177   8.280  13.144  0.00  0.00    +0.000 C 
ATOM      9  H   UNL     1      47.534   9.606  14.516  0.00  0.00    +0.000 HD
BRANCH   8  10
ATOM     10  C   UNL     1      48.193   8.892  12.181  0.00  0.00    +0.000 C 
BRANCH  10  11
ATOM     11  C   UNL     1      49.032   7.883  11.399  0.00  0.00    +0.000 C 
BRANCH  11  12
ATOM     12  C   UNL     1      50.500   8.067  11.680  0.00  0.00    +0.000 A 
ATOM     13  C   UNL     1      51.465   7.749  10.720  0.00  0.00    +0.000 A 
ATOM     14  C   UNL     1      52.815   7.908  11.020  0.00  0.00    +0.000 A 
ATOM     15  C   UNL     1      53.156   8.373  12.277  0.00  0.00    +0.000 A 
ATOM     16  N   UNL     1      52.254   8.681  13.235  0.00  0.00    +0.000 NA
ATOM     17  C   UNL     1      50.951   8.521  12.915  0.00  0.00    +0.000 A 
ENDBRANCH  11  12
ENDBRANCH  10  11
ENDBRANCH   8  10
ENDBRANCH   1   8
BRANCH   4  18
ATOM     18  C   UNL     1      44.034   3.637  11.507  0.00  0.00    +0.000 C 
BRANCH  18  19
ATOM     19  N   UNL     1      44.887   2.634  10.876  0.00  0.00    +0.000 NA
ATOM     20  H   UNL     1      44.850   1.774  11.425  0.00  0.00    +0.000 HD
BRANCH  19  21
ATOM     21  C   UNL     1      44.411   2.332   9.520  0.00  0.00    +0.000 C 
BRANCH  21  22
ATOM     22  C   UNL     1      45.531   2.356   8.499  0.00  0.00    +0.000 A 
ATOM     23  C   UNL     1      45.838   3.536   7.823  0.00  0.00    +0.000 A 
ATOM     24  C   UNL     1      46.863   3.528   6.883  0.00  0.00    +0.000 A 
ATOM     25  C   UNL     1      47.551   2.345   6.639  0.00  0.00    +0.000 A 
ATOM     26  C   UNL     1      47.183   1.216   7.352  0.00  0.00    +0.000 A 
ATOM     27  N   UNL     1      46.195   1.194   8.273  0.00  0.00    +0.000 NA
ENDBRANCH  21  22
ENDBRANCH  19  21
ENDBRANCH  18  19
ENDBRANCH   4  18
TORSDOF 8
ENDMDL
MODEL 7
REMARK VINA RESULT:    -6.948      2.996      5.440
REMARK INTER + INTRA:         -11.279
REMARK INTER:                 -10.398
REMARK INTRA:                  -0.881
REMARK UNBOUND:                -1.081
REMARK  Name = 
REMARK  8 active torsions:
REMARK  status: ('A' for Active; 'I' for Inactive)
REMARK    1  A    between atoms: C_2  and  C_3
REMARK    2  A    between atoms: C_2  and  C_11
REMARK    3  A    between atoms: C_3  and  C_4
REMARK    4  A    between atoms: C_4  and  C_5
REMARK    5  A    between atoms: C_14  and  C_15
REMARK    6  A    between atoms: C_15  and  N_16
REMARK    7  A    between atoms: N_16  and  C_17
REMARK    8  A    between atoms: C_17  and  C_18
REMARK                            x       y       z     vdW  Elec       q    Type
REMARK                         _______ _______ _______ _____ _____    ______ ____
ROOT
ATOM      1  C   UNL     1      44.706   4.406  11.576  0.00  0.00    +0.000 A 
ATOM      2  C   UNL     1      44.345   5.706  11.194  0.00  0.00    +0.000 A 
ATOM      3  C   UNL     1      45.013   6.817  11.720  0.00  0.00    +0.000 A 
ATOM      4  C   UNL     1      46.059   6.653  12.635  0.00  0.00    +0.000 A 
ATOM      5  C   UNL     1      46.418   5.356  13.019  0.00  0.00    +0.000 A 
ATOM      6  C   UNL     1      45.744   4.243  12.501  0.00  0.00    +0.000 A 
ENDROOT
BRANCH   1   8
ATOM      7  N   UNL     1      42.878   2.829  11.601  0.00  0.00    +0.000 NA
ATOM      8  C   UNL     1      43.946   3.246  10.994  0.00  0.00    +0.000 C 
ATOM      9  H   UNL     1      42.460   2.010  11.160  0.00  0.00    +0.000 HD
BRANCH   8  10
ATOM     10  C   UNL     1      44.491   2.544   9.751  0.00  0.00    +0.000 C 
BRANCH  10  11
ATOM     11  C   UNL     1      45.034   3.474   8.668  0.00  0.00    +0.000 C 
BRANCH  11  12
ATOM     12  C   UNL     1      45.971   2.742   7.744  0.00  0.00    +0.000 A 
ATOM     13  C   UNL     1      46.416   3.325   6.555  0.00  0.00    +0.000 A 
ATOM     14  C   UNL     1      47.262   2.612   5.711  0.00  0.00    +0.000 A 
ATOM     15  C   UNL     1      47.630   1.331   6.083  0.00  0.00    +0.000 A 
ATOM     16  N   UNL     1      47.212   0.729   7.218  0.00  0.00    +0.000 NA
ATOM     17  C   UNL     1      46.394   1.446   8.020  0.00  0.00    +0.000 A 
ENDBRANCH  11  12
ENDBRANCH  10  11
ENDBRANCH   8  10
ENDBRANCH   1   8
BRANCH   4  18
ATOM     18  C   UNL     1      46.800   7.848  13.187  0.00  0.00    +0.000 C 
BRANCH  18  19
ATOM     19  N   UNL     1      47.170   8.778  12.124  0.00  0.00    +0.000 NA
ATOM     20  H   UNL     1      46.652   8.538  11.278  0.00  0.00    +0.000 HD
BRANCH  19  21
ATOM     21  C   UNL     1      46.820  10.154  12.498  0.00  0.00    +0.000 C 
BRANCH  21  22
ATOM     22  C   UNL     1      45.647  10.688  11.700  0.00  0.00    +0.000 A 
ATOM     23  C   UNL     1      45.867  11.491  10.583  0.00  0.00    +0.000 A 
ATOM     24  C   UNL     1      44.771  11.976   9.875  0.00  0.00    +0.000 A 
ATOM     25  C   UNL     1      43.490  11.650  10.302  0.00  0.00    +0.000 A 
ATOM     26  C   UNL     1      43.358  10.847  11.422  0.00  0.00    +0.000 A 
ATOM     27  N   UNL     1      44.400  10.359  12.128  0.00  0.00    +0.000 NA
ENDBRANCH  21  22
ENDBRANCH  19  21
ENDBRANCH  18  19
ENDBRANCH   4  18
TORSDOF 8
ENDMDL
MODEL 8
REMARK VINA RESULT:    -6.930      1.871      2.630
REMARK INTER + INTRA:         -11.253
REMARK INTER:                 -10.450
REMARK INTRA:                  -0.803
REMARK UNBOUND:                -1.081
REMARK  Name = 
REMARK  8 active torsions:
REMARK  status: ('A' for Active; 'I' for Inactive)
REMARK    1  A    between atoms: C_2  and  C_3
REMARK    2  A    between atoms: C_2  and  C_11
REMARK    3  A    between atoms: C_3  and  C_4
REMARK    4  A    between atoms: C_4  and  C_5
REMARK    5  A    between atoms: C_14  and  C_15
REMARK    6  A    between atoms: C_15  and  N_16
REMARK    7  A    between atoms: N_16  and  C_17
REMARK    8  A    between atoms: C_17  and  C_18
REMARK                            x       y       z     vdW  Elec       q    Type
REMARK                         _______ _______ _______ _____ _____    ______ ____
ROOT
ATOM      1  C   UNL     1      45.057   3.906  11.917  0.00  0.00    +0.000 A 
ATOM      2  C   UNL     1      45.149   5.300  11.790  0.00  0.00    +0.000 A 
ATOM      3  C   UNL     1      46.060   6.030  12.560  0.00  0.00    +0.000 A 
ATOM      4  C   UNL     1      46.904   5.383  13.471  0.00  0.00    +0.000 A 
ATOM      5  C   UNL     1      46.811   3.992  13.600  0.00  0.00    +0.000 A 
ATOM      6  C   UNL     1      45.893   3.261  12.837  0.00  0.00    +0.000 A 
ENDROOT
BRANCH   1   8
ATOM      7  N   UNL     1      42.835   3.053  11.517  0.00  0.00    +0.000 NA
ATOM      8  C   UNL     1      44.050   3.170  11.078  0.00  0.00    +0.000 C 
ATOM      9  H   UNL     1      42.238   2.498  10.904  0.00  0.00    +0.000 HD
BRANCH   8  10
ATOM     10  C   UNL     1      44.500   2.516   9.772  0.00  0.00    +0.000 C 
BRANCH  10  11
ATOM     11  C   UNL     1      45.068   3.477   8.729  0.00  0.00    +0.000 C 
BRANCH  11  12
ATOM     12  C   UNL     1      45.969   2.756   7.762  0.00  0.00    +0.000 A 
ATOM     13  C   UNL     1      46.415   1.458   8.021  0.00  0.00    +0.000 A 
ATOM     14  C   UNL     1      47.267   0.828   7.119  0.00  0.00    +0.000 A 
ATOM     15  C   UNL     1      47.651   1.524   5.986  0.00  0.00    +0.000 A 
ATOM     16  N   UNL     1      47.250   2.783   5.707  0.00  0.00    +0.000 NA
ATOM     17  C   UNL     1      46.421   3.369   6.598  0.00  0.00    +0.000 A 
ENDBRANCH  11  12
ENDBRANCH  10  11
ENDBRANCH   8  10
ENDBRANCH   1   8
BRANCH   4  18
ATOM     18  C   UNL     1      47.906   6.164  14.286  0.00  0.00    +0.000 C 
BRANCH  18  19
ATOM     19  N   UNL     1      48.207   5.488  15.545  0.00  0.00    +0.000 NA
ATOM     20  H   UNL     1      48.593   4.565  15.342  0.00  0.00    +0.000 HD
BRANCH  19  21
ATOM     21  C   UNL     1      49.207   6.244  16.310  0.00  0.00    +0.000 C 
BRANCH  21  22
ATOM     22  C   UNL     1      48.578   7.097  17.393  0.00  0.00    +0.000 A 
ATOM     23  C   UNL     1      48.036   6.501  18.530  0.00  0.00    +0.000 A 
ATOM     24  C   UNL     1      47.456   7.307  19.504  0.00  0.00    +0.000 A 
ATOM     25  C   UNL     1      47.428   8.684  19.316  0.00  0.00    +0.000 A 
ATOM     26  C   UNL     1      47.987   9.197  18.158  0.00  0.00    +0.000 A 
ATOM     27  N   UNL     1      48.560   8.441  17.197  0.00  0.00    +0.000 NA
ENDBRANCH  21  22
ENDBRANCH  19  21
ENDBRANCH  18  19
ENDBRANCH   4  18
TORSDOF 8
ENDMDL
MODEL 9
REMARK VINA RESULT:    -6.823      1.584      2.077
REMARK INTER + INTRA:         -11.095
REMARK INTER:                 -10.331
REMARK INTRA:                  -0.763
REMARK UNBOUND:                -1.081
REMARK  Name = 
REMARK  8 active torsions:
REMARK  status: ('A' for Active; 'I' for Inactive)
REMARK    1  A    between atoms: C_2  and  C_3
REMARK    2  A    between atoms: C_2  and  C_11
REMARK    3  A    between atoms: C_3  and  C_4
REMARK    4  A    between atoms: C_4  and  C_5
REMARK    5  A    between atoms: C_14  and  C_15
REMARK    6  A    between atoms: C_15  and  N_16
REMARK    7  A    between atoms: N_16  and  C_17
REMARK    8  A    between atoms: C_17  and  C_18
REMARK                            x       y       z     vdW  Elec       q    Type
REMARK                         _______ _______ _______ _____ _____    ______ ____
ROOT
ATOM      1  C   UNL     1      45.488   5.154  11.636  0.00  0.00    +0.000 A 
ATOM      2  C   UNL     1      45.758   4.597  12.894  0.00  0.00    +0.000 A 
ATOM      3  C   UNL     1      46.640   5.224  13.780  0.00  0.00    +0.000 A 
ATOM      4  C   UNL     1      47.270   6.424  13.429  0.00  0.00    +0.000 A 
ATOM      5  C   UNL     1      47.003   6.979  12.172  0.00  0.00    +0.000 A 
ATOM      6  C   UNL     1      46.128   6.348  11.281  0.00  0.00    +0.000 A 
ENDROOT
BRANCH   1   8
ATOM      7  N   UNL     1      43.553   5.089  10.194  0.00  0.00    +0.000 NA
ATOM      8  C   UNL     1      44.544   4.432  10.715  0.00  0.00    +0.000 C 
ATOM      9  H   UNL     1      42.941   4.506   9.624  0.00  0.00    +0.000 HD
BRANCH   8  10
ATOM     10  C   UNL     1      44.728   2.934  10.479  0.00  0.00    +0.000 C 
BRANCH  10  11
ATOM     11  C   UNL     1      44.427   2.462   9.057  0.00  0.00    +0.000 C 
BRANCH  11  12
ATOM     12  C   UNL     1      45.670   2.474   8.208  0.00  0.00    +0.000 A 
ATOM     13  C   UNL     1      46.082   3.634   7.547  0.00  0.00    +0.000 A 
ATOM     14  C   UNL     1      47.222   3.605   6.749  0.00  0.00    +0.000 A 
ATOM     15  C   UNL     1      47.910   2.410   6.632  0.00  0.00    +0.000 A 
ATOM     16  N   UNL     1      47.537   1.266   7.246  0.00  0.00    +0.000 NA
ATOM     17  C   UNL     1      46.428   1.324   8.017  0.00  0.00    +0.000 A 
ENDBRANCH  11  12
ENDBRANCH  10  11
ENDBRANCH   8  10
ENDBRANCH   1   8
BRANCH   4  18
ATOM     18  C   UNL     1      48.204   7.118  14.391  0.00  0.00    +0.000 C 
BRANCH  18  19
ATOM     19  N   UNL     1      49.109   6.167  15.029  0.00  0.00    +0.000 NA
ATOM     20  H   UNL     1      49.778   5.829  14.335  0.00  0.00    +0.000 HD
BRANCH  19  21
ATOM     21  C   UNL     1      49.862   6.816  16.110  0.00  0.00    +0.000 C 
BRANCH  21  22
ATOM     22  C   UNL     1      50.874   5.885  16.746  0.00  0.00    +0.000 A 
ATOM     23  C   UNL     1      52.201   6.285  16.890  0.00  0.00    +0.000 A 
ATOM     24  C   UNL     1      53.112   5.407  17.469  0.00  0.00    +0.000 A 
ATOM     25  C   UNL     1      52.676   4.154  17.884  0.00  0.00    +0.000 A 
ATOM     26  C   UNL     1      51.341   3.833  17.704  0.00  0.00    +0.000 A 
ATOM     27  N   UNL     1      50.434   4.665  17.149  0.00  0.00    +0.000 NA
ENDBRANCH  21  22
ENDBRANCH  19  21
ENDBRANCH  18  19
ENDBRANCH   4  18
TORSDOF 8
ENDMDL
