MODEL 1
REMARK VINA RESULT:    -7.956      0.000      0.000
REMARK INTER + INTRA:         -12.175
REMARK INTER:                 -10.979
REMARK INTRA:                  -1.196
REMARK UNBOUND:                -1.196
REMARK  Name = 
REMARK  7 active torsions:
REMARK  status: ('A' for Active; 'I' for Inactive)
REMARK    1  A    between atoms: C_2  and  C_4
REMARK    2  A    between atoms: C_7  and  O_8
REMARK    3  A    between atoms: O_8  and  C_9
REMARK    4  A    between atoms: C_9  and  C_10
REMARK    5  A    between atoms: C_10  and  C_11
REMARK    6  A    between atoms: C_15  and  C_16
REMARK    7  A    between atoms: C_21  and  O_22
REMARK                            x       y       z     vdW  Elec       q    Type
REMARK                         _______ _______ _______ _____ _____    ______ ____
ROOT
ATOM      1  C   UNL     1      45.015   5.183  12.678  0.00  0.00    +0.000 A 
ATOM      2  C   UNL     1      45.661   4.141  13.356  0.00  0.00    +0.000 A 
ATOM      3  C   UNL     1      46.967   4.296  13.797  0.00  0.00    +0.000 A 
ATOM      4  C   UNL     1      47.633   5.505  13.589  0.00  0.00    +0.000 A 
ATOM      5  C   UNL     1      47.057   6.578  12.873  0.00  0.00    +0.000 A 
ATOM      6  C   UNL     1      45.733   6.374  12.394  0.00  0.00    +0.000 A 
ATOM      7 CL   UNL     1      44.946   7.552  11.372  0.00  0.00    +0.000 Cl
ENDROOT
BRANCH   5   8
ATOM      8  C   UNL     1      47.854   7.836  12.676  0.00  0.00    +0.000 A 
ATOM      9  C   UNL     1      48.773   7.954  11.611  0.00  0.00    +0.000 A 
ATOM     10  C   UNL     1      49.579   9.086  11.436  0.00  0.00    +0.000 A 
ATOM     11  C   UNL     1      49.438  10.177  12.280  0.00  0.00    +0.000 A 
ATOM     12  C   UNL     1      48.493  10.135  13.298  0.00  0.00    +0.000 A 
ATOM     13  C   UNL     1      47.723   8.979  13.498  0.00  0.00    +0.000 A 
BRANCH  13  14
ATOM     14  O   UNL     1      46.826   8.990  14.535  0.00  0.00    +0.000 OA
ATOM     15  H   UNL     1      47.011   9.756  15.103  0.00  0.00    +0.000 HD
ENDBRANCH  13  14
ENDBRANCH   5   8
BRANCH   1  16
ATOM     16  C   UNL     1      43.568   4.982  12.285  0.00  0.00    +0.000 C 
BRANCH  16  17
ATOM     17  C   UNL     1      43.370   3.953  11.170  0.00  0.00    +0.000 C 
BRANCH  17  18
ATOM     18  O   UNL     1      43.671   4.604   9.929  0.00  0.00    +0.000 OA
BRANCH  18  22
ATOM     19  C   UNL     1      46.395   2.472   7.810  0.00  0.00    +0.000 A 
ATOM     20  C   UNL     1      46.275   3.841   7.609  0.00  0.00    +0.000 A 
ATOM     21  N   UNL     1      45.378   4.601   8.291  0.00  0.00    +0.000 NA
ATOM     22  C   UNL     1      44.609   3.931   9.173  0.00  0.00    +0.000 A 
ATOM     23  C   UNL     1      44.723   2.555   9.368  0.00  0.00    +0.000 A 
ATOM     24  N   UNL     1      45.614   1.786   8.696  0.00  0.00    +0.000 NA
BRANCH  19  26
ATOM     25  N   UNL     1      48.437   2.439   6.509  0.00  0.00    +0.000 N 
ATOM     26  C   UNL     1      47.413   1.704   7.041  0.00  0.00    +0.000 C 
ATOM     27  O   UNL     1      47.343   0.489   6.892  0.00  0.00    +0.000 OA
ATOM     28  H   UNL     1      49.162   1.973   5.984  0.00  0.00    +0.000 HD
ATOM     29  H   UNL     1      48.481   3.440   6.666  0.00  0.00    +0.000 HD
ENDBRANCH  19  26
ENDBRANCH  18  22
ENDBRANCH  17  18
ENDBRANCH  16  17
ENDBRANCH   1  16
TORSDOF 7
ENDMDL
MODEL 2
REMARK VINA RESULT:    -7.089      1.981      2.756
REMARK INTER + INTRA:         -10.979
REMARK INTER:                 -10.207
REMARK INTRA:                  -0.773
REMARK UNBOUND:                -1.196
REMARK  Name = 
REMARK  7 active torsions:
REMARK  status: ('A' for Active; 'I' for Inactive)
REMARK    1  A    between atoms: C_2  and  C_4
REMARK    2  A    between atoms: C_7  and  O_8
REMARK    3  A    between atoms: O_8  and  C_9
REMARK    4  A    between atoms: C_9  and  C_10
REMARK    5  A    between atoms: C_10  and  C_11
REMARK    6  A    between atoms: C_15  and  C_16
REMARK    7  A    between atoms: C_21  and  O_22
REMARK                            x       y       z     vdW  Elec       q    Type
REMARK                         _______ _______ _______ _____ _____    ______ ____
ROOT
ATOM      1  C   UNL     1      45.213   6.291  12.240  0.00  0.00    +0.000 A 
ATOM      2  C   UNL     1      44.671   7.406  11.588  0.00  0.00    +0.000 A 
ATOM      3  C   UNL     1      45.242   8.659  11.751  0.00  0.00    +0.000 A 
ATOM      4  C   UNL     1      46.379   8.808  12.547  0.00  0.00    +0.000 A 
ATOM      5  C   UNL     1      46.949   7.736  13.269  0.00  0.00    +0.000 A 
ATOM      6  C   UNL     1      46.315   6.470  13.118  0.00  0.00    +0.000 A 
ATOM      7 CL   UNL     1      46.817   5.086  14.057  0.00  0.00    +0.000 Cl
ENDROOT
BRANCH   5   8
ATOM      8  C   UNL     1      48.160   7.990  14.120  0.00  0.00    +0.000 A 
ATOM      9  C   UNL     1      48.074   8.774  15.290  0.00  0.00    +0.000 A 
ATOM     10  C   UNL     1      49.194   9.085  16.071  0.00  0.00    +0.000 A 
ATOM     11  C   UNL     1      50.435   8.554  15.749  0.00  0.00    +0.000 A 
ATOM     12  C   UNL     1      50.553   7.716  14.647  0.00  0.00    +0.000 A 
ATOM     13  C   UNL     1      49.437   7.448  13.842  0.00  0.00    +0.000 A 
BRANCH  13  14
ATOM     14  O   UNL     1      49.623   6.633  12.754  0.00  0.00    +0.000 OA
ATOM     15  H   UNL     1      49.608   5.708  13.049  0.00  0.00    +0.000 HD
ENDBRANCH  13  14
ENDBRANCH   5   8
BRANCH   1  16
ATOM     16  C   UNL     1      44.591   4.939  11.968  0.00  0.00    +0.000 C 
BRANCH  16  17
ATOM     17  C   UNL     1      43.627   4.933  10.782  0.00  0.00    +0.000 C 
BRANCH  17  18
ATOM     18  O   UNL     1      43.546   3.583  10.304  0.00  0.00    +0.000 OA
BRANCH  18  22
ATOM     19  C   UNL     1      46.454   2.816   7.582  0.00  0.00    +0.000 A 
ATOM     20  C   UNL     1      45.927   1.784   8.346  0.00  0.00    +0.000 A 
ATOM     21  N   UNL     1      44.954   1.987   9.273  0.00  0.00    +0.000 NA
ATOM     22  C   UNL     1      44.539   3.263   9.401  0.00  0.00    +0.000 A 
ATOM     23  C   UNL     1      45.074   4.302   8.640  0.00  0.00    +0.000 A 
ATOM     24  N   UNL     1      46.044   4.113   7.713  0.00  0.00    +0.000 NA
BRANCH  19  26
ATOM     25  N   UNL     1      47.329   3.090   5.341  0.00  0.00    +0.000 N 
ATOM     26  C   UNL     1      47.507   2.519   6.571  0.00  0.00    +0.000 C 
ATOM     27  O   UNL     1      48.474   1.808   6.822  0.00  0.00    +0.000 OA
ATOM     28  H   UNL     1      48.014   2.931   4.617  0.00  0.00    +0.000 HD
ATOM     29  H   UNL     1      46.530   3.691   5.168  0.00  0.00    +0.000 HD
ENDBRANCH  19  26
ENDBRANCH  18  22
ENDBRANCH  17  18
ENDBRANCH  16  17
ENDBRANCH   1  16
TORSDOF 7
ENDMDL
MODEL 3
REMARK VINA RESULT:    -6.236      4.178      7.502
REMARK INTER + INTRA:          -9.801
REMARK INTER:                  -8.681
REMARK INTRA:                  -1.120
REMARK UNBOUND:                -1.196
REMARK  Name = 
REMARK  7 active torsions:
REMARK  status: ('A' for Active; 'I' for Inactive)
REMARK    1  A    between atoms: C_2  and  C_4
REMARK    2  A    between atoms: C_7  and  O_8
REMARK    3  A    between atoms: O_8  and  C_9
REMARK    4  A    between atoms: C_9  and  C_10
REMARK    5  A    between atoms: C_10  and  C_11
REMARK    6  A    between atoms: C_15  and  C_16
REMARK    7  A    between atoms: C_21  and  O_22
REMARK                            x       y       z     vdW  Elec       q    Type
REMARK                         _______ _______ _______ _____ _____    ______ ____
ROOT
ATOM      1  C   UNL     1      47.196   8.703  12.649  0.00  0.00    +0.000 A 
ATOM      2  C   UNL     1      46.158   9.638  12.546  0.00  0.00    +0.000 A 
ATOM      3  C   UNL     1      44.948   9.281  11.970  0.00  0.00    +0.000 A 
ATOM      4  C   UNL     1      44.752   7.976  11.514  0.00  0.00    +0.000 A 
ATOM      5  C   UNL     1      45.771   6.998  11.545  0.00  0.00    +0.000 A 
ATOM      6  C   UNL     1      47.016   7.406  12.101  0.00  0.00    +0.000 A 
ATOM      7 CL   UNL     1      48.410   6.353  12.075  0.00  0.00    +0.000 Cl
ENDROOT
BRANCH   5   8
ATOM      8  C   UNL     1      45.481   5.624  11.012  0.00  0.00    +0.000 A 
ATOM      9  C   UNL     1      45.573   5.346   9.631  0.00  0.00    +0.000 A 
ATOM     10  C   UNL     1      45.247   4.095   9.094  0.00  0.00    +0.000 A 
ATOM     11  C   UNL     1      44.890   3.049   9.932  0.00  0.00    +0.000 A 
ATOM     12  C   UNL     1      44.857   3.257  11.305  0.00  0.00    +0.000 A 
ATOM     13  C   UNL     1      45.138   4.525  11.834  0.00  0.00    +0.000 A 
BRANCH  13  14
ATOM     14  O   UNL     1      45.064   4.672  13.196  0.00  0.00    +0.000 OA
ATOM     15  H   UNL     1      44.963   3.795  13.601  0.00  0.00    +0.000 HD
ENDBRANCH  13  14
ENDBRANCH   5   8
BRANCH   1  16
ATOM     16  C   UNL     1      48.467   9.130  13.350  0.00  0.00    +0.000 C 
BRANCH  16  17
ATOM     17  C   UNL     1      48.498   8.777  14.838  0.00  0.00    +0.000 C 
BRANCH  17  18
ATOM     18  O   UNL     1      49.465   7.733  15.009  0.00  0.00    +0.000 OA
BRANCH  18  22
ATOM     19  C   UNL     1      48.151   4.553  17.159  0.00  0.00    +0.000 A 
ATOM     20  C   UNL     1      47.661   4.778  15.879  0.00  0.00    +0.000 A 
ATOM     21  N   UNL     1      48.066   5.829  15.118  0.00  0.00    +0.000 NA
ATOM     22  C   UNL     1      48.975   6.641  15.695  0.00  0.00    +0.000 A 
ATOM     23  C   UNL     1      49.460   6.420  16.983  0.00  0.00    +0.000 A 
ATOM     24  N   UNL     1      49.066   5.376  17.752  0.00  0.00    +0.000 NA
BRANCH  19  26
ATOM     25  N   UNL     1      48.378   3.081  19.068  0.00  0.00    +0.000 N 
ATOM     26  C   UNL     1      47.676   3.370  17.929  0.00  0.00    +0.000 C 
ATOM     27  O   UNL     1      46.717   2.697  17.571  0.00  0.00    +0.000 OA
ATOM     28  H   UNL     1      48.098   2.295  19.636  0.00  0.00    +0.000 HD
ATOM     29  H   UNL     1      49.155   3.669  19.351  0.00  0.00    +0.000 HD
ENDBRANCH  19  26
ENDBRANCH  18  22
ENDBRANCH  17  18
ENDBRANCH  16  17
ENDBRANCH   1  16
TORSDOF 7
ENDMDL
MODEL 4
REMARK VINA RESULT:    -6.154      4.246      7.815
REMARK INTER + INTRA:          -9.688
REMARK INTER:                  -8.947
REMARK INTRA:                  -0.741
REMARK UNBOUND:                -1.196
REMARK  Name = 
REMARK  7 active torsions:
REMARK  status: ('A' for Active; 'I' for Inactive)
REMARK    1  A    between atoms: C_2  and  C_4
REMARK    2  A    between atoms: C_7  and  O_8
REMARK    3  A    between atoms: O_8  and  C_9
REMARK    4  A    between atoms: C_9  and  C_10
REMARK    5  A    between atoms: C_10  and  C_11
REMARK    6  A    between atoms: C_15  and  C_16
REMARK    7  A    between atoms: C_21  and  O_22
REMARK                            x       y       z     vdW  Elec       q    Type
REMARK                         _______ _______ _______ _____ _____    ______ ____
ROOT
ATOM      1  C   UNL     1      47.050   8.564  12.708  0.00  0.00    +0.000 A 
ATOM      2  C   UNL     1      46.260   9.655  12.324  0.00  0.00    +0.000 A 
ATOM      3  C   UNL     1      45.058   9.451  11.663  0.00  0.00    +0.000 A 
ATOM      4  C   UNL     1      44.618   8.152  11.402  0.00  0.00    +0.000 A 
ATOM      5  C   UNL     1      45.387   7.010  11.720  0.00  0.00    +0.000 A 
ATOM      6  C   UNL     1      46.636   7.252  12.358  0.00  0.00    +0.000 A 
ATOM      7 CL   UNL     1      47.756   5.952  12.681  0.00  0.00    +0.000 Cl
ENDROOT
BRANCH   5   8
ATOM      8  C   UNL     1      44.848   5.649  11.383  0.00  0.00    +0.000 A 
ATOM      9  C   UNL     1      44.046   4.937  12.301  0.00  0.00    +0.000 A 
ATOM     10  C   UNL     1      43.582   3.641  12.046  0.00  0.00    +0.000 A 
ATOM     11  C   UNL     1      43.840   3.038  10.824  0.00  0.00    +0.000 A 
ATOM     12  C   UNL     1      44.563   3.731   9.860  0.00  0.00    +0.000 A 
ATOM     13  C   UNL     1      45.066   5.010  10.141  0.00  0.00    +0.000 A 
BRANCH  13  14
ATOM     14  O   UNL     1      45.793   5.632   9.158  0.00  0.00    +0.000 OA
ATOM     15  H   UNL     1      46.702   5.763   9.475  0.00  0.00    +0.000 HD
ENDBRANCH  13  14
ENDBRANCH   5   8
BRANCH   1  16
ATOM     16  C   UNL     1      48.315   8.846  13.489  0.00  0.00    +0.000 C 
BRANCH  16  17
ATOM     17  C   UNL     1      48.085   9.027  14.990  0.00  0.00    +0.000 C 
BRANCH  17  18
ATOM     18  O   UNL     1      49.176   8.391  15.669  0.00  0.00    +0.000 OA
BRANCH  18  22
ATOM     19  C   UNL     1      48.110   4.874  17.386  0.00  0.00    +0.000 A 
ATOM     20  C   UNL     1      48.138   6.037  18.144  0.00  0.00    +0.000 A 
ATOM     21  N   UNL     1      48.490   7.240  17.619  0.00  0.00    +0.000 NA
ATOM     22  C   UNL     1      48.814   7.224  16.310  0.00  0.00    +0.000 A 
ATOM     23  C   UNL     1      48.794   6.055  15.551  0.00  0.00    +0.000 A 
ATOM     24  N   UNL     1      48.444   4.849  16.062  0.00  0.00    +0.000 NA
BRANCH  19  26
ATOM     25  N   UNL     1      48.400   3.228  19.138  0.00  0.00    +0.000 N 
ATOM     26  C   UNL     1      47.696   3.592  18.023  0.00  0.00    +0.000 C 
ATOM     27  O   UNL     1      46.782   2.905  17.580  0.00  0.00    +0.000 OA
ATOM     28  H   UNL     1      48.160   2.372  19.618  0.00  0.00    +0.000 HD
ATOM     29  H   UNL     1      49.137   3.827  19.495  0.00  0.00    +0.000 HD
ENDBRANCH  19  26
ENDBRANCH  18  22
ENDBRANCH  17  18
ENDBRANCH  16  17
ENDBRANCH   1  16
TORSDOF 7
ENDMDL
MODEL 5
REMARK VINA RESULT:    -6.082      5.364      6.537
REMARK INTER + INTRA:          -9.589
REMARK INTER:                  -8.815
REMARK INTRA:                  -0.774
REMARK UNBOUND:                -1.196
REMARK  Name = 
REMARK  7 active torsions:
REMARK  status: ('A' for Active; 'I' for Inactive)
REMARK    1  A    between atoms: C_2  and  C_4
REMARK    2  A    between atoms: C_7  and  O_8
REMARK    3  A    between atoms: O_8  and  C_9
REMARK    4  A    between atoms: C_9  and  C_10
REMARK    5  A    between atoms: C_10  and  C_11
REMARK    6  A    between atoms: C_15  and  C_16
REMARK    7  A    between atoms: C_21  and  O_22
REMARK                            x       y       z     vdW  Elec       q    Type
REMARK                         _______ _______ _______ _____ _____    ______ ____
ROOT
ATOM      1  C   UNL     1      48.768   3.561  16.871  0.00  0.00    +0.000 A 
ATOM      2  C   UNL     1      49.118   2.237  16.576  0.00  0.00    +0.000 A 
ATOM      3  C   UNL     1      50.362   1.744  16.942  0.00  0.00    +0.000 A 
ATOM      4  C   UNL     1      51.259   2.561  17.632  0.00  0.00    +0.000 A 
ATOM      5  C   UNL     1      50.988   3.917  17.919  0.00  0.00    +0.000 A 
ATOM      6  C   UNL     1      49.723   4.408  17.492  0.00  0.00    +0.000 A 
ATOM      7 CL   UNL     1      49.305   6.097  17.649  0.00  0.00    +0.000 Cl
ENDROOT
BRANCH   5   8
ATOM      8  C   UNL     1      52.021   4.730  18.646  0.00  0.00    +0.000 A 
ATOM      9  C   UNL     1      53.076   5.357  17.948  0.00  0.00    +0.000 A 
ATOM     10  C   UNL     1      54.091   6.067  18.600  0.00  0.00    +0.000 A 
ATOM     11  C   UNL     1      54.044   6.242  19.975  0.00  0.00    +0.000 A 
ATOM     12  C   UNL     1      52.985   5.705  20.696  0.00  0.00    +0.000 A 
ATOM     13  C   UNL     1      51.997   4.954  20.042  0.00  0.00    +0.000 A 
BRANCH  13  14
ATOM     14  O   UNL     1      50.990   4.429  20.813  0.00  0.00    +0.000 OA
ATOM     15  H   UNL     1      51.087   4.758  21.722  0.00  0.00    +0.000 HD
ENDBRANCH  13  14
ENDBRANCH   5   8
BRANCH   1  16
ATOM     16  C   UNL     1      47.372   4.021  16.510  0.00  0.00    +0.000 C 
BRANCH  16  17
ATOM     17  C   UNL     1      47.249   4.556  15.083  0.00  0.00    +0.000 C 
BRANCH  17  18
ATOM     18  O   UNL     1      45.878   4.416  14.691  0.00  0.00    +0.000 OA
BRANCH  18  22
ATOM     19  C   UNL     1      45.385   4.606  10.668  0.00  0.00    +0.000 A 
ATOM     20  C   UNL     1      45.078   3.437  11.352  0.00  0.00    +0.000 A 
ATOM     21  N   UNL     1      45.227   3.320  12.698  0.00  0.00    +0.000 NA
ATOM     22  C   UNL     1      45.699   4.418  13.323  0.00  0.00    +0.000 A 
ATOM     23  C   UNL     1      46.015   5.589  12.635  0.00  0.00    +0.000 A 
ATOM     24  N   UNL     1      45.870   5.719  11.294  0.00  0.00    +0.000 NA
BRANCH  19  26
ATOM     25  N   UNL     1      43.963   4.237   8.744  0.00  0.00    +0.000 N 
ATOM     26  C   UNL     1      45.180   4.670   9.195  0.00  0.00    +0.000 C 
ATOM     27  O   UNL     1      46.044   5.085   8.430  0.00  0.00    +0.000 OA
ATOM     28  H   UNL     1      43.762   4.264   7.755  0.00  0.00    +0.000 HD
ATOM     29  H   UNL     1      43.259   3.918   9.401  0.00  0.00    +0.000 HD
ENDBRANCH  19  26
ENDBRANCH  18  22
ENDBRANCH  17  18
ENDBRANCH  16  17
ENDBRANCH   1  16
TORSDOF 7
ENDMDL
MODEL 6
REMARK VINA RESULT:    -5.947      3.302      5.910
REMARK INTER + INTRA:          -9.403
REMARK INTER:                  -8.256
REMARK INTRA:                  -1.146
REMARK UNBOUND:                -1.196
REMARK  Name = 
REMARK  7 active torsions:
REMARK  status: ('A' for Active; 'I' for Inactive)
REMARK    1  A    between atoms: C_2  and  C_4
REMARK    2  A    between atoms: C_7  and  O_8
REMARK    3  A    between atoms: O_8  and  C_9
REMARK    4  A    between atoms: C_9  and  C_10
REMARK    5  A    between atoms: C_10  and  C_11
REMARK    6  A    between atoms: C_15  and  C_16
REMARK    7  A    between atoms: C_21  and  O_22
REMARK                            x       y       z     vdW  Elec       q    Type
REMARK                         _______ _______ _______ _____ _____    ______ ____
ROOT
ATOM      1  C   UNL     1      48.305   8.431  14.852  0.00  0.00    +0.000 A 
ATOM      2  C   UNL     1      48.284   9.341  15.917  0.00  0.00    +0.000 A 
ATOM      3  C   UNL     1      48.514   8.906  17.214  0.00  0.00    +0.000 A 
ATOM      4  C   UNL     1      48.794   7.561  17.458  0.00  0.00    +0.000 A 
ATOM      5  C   UNL     1      48.785   6.584  16.438  0.00  0.00    +0.000 A 
ATOM      6  C   UNL     1      48.502   7.051  15.124  0.00  0.00    +0.000 A 
ATOM      7 CL   UNL     1      48.315   5.943  13.787  0.00  0.00    +0.000 Cl
ENDROOT
BRANCH   5   8
ATOM      8  C   UNL     1      49.075   5.153  16.793  0.00  0.00    +0.000 A 
ATOM      9  C   UNL     1      50.362   4.757  17.216  0.00  0.00    +0.000 A 
ATOM     10  C   UNL     1      50.684   3.422  17.491  0.00  0.00    +0.000 A 
ATOM     11  C   UNL     1      49.704   2.443  17.428  0.00  0.00    +0.000 A 
ATOM     12  C   UNL     1      48.405   2.799  17.088  0.00  0.00    +0.000 A 
ATOM     13  C   UNL     1      48.100   4.130  16.766  0.00  0.00    +0.000 A 
BRANCH  13  14
ATOM     14  O   UNL     1      46.805   4.413  16.414  0.00  0.00    +0.000 OA
ATOM     15  H   UNL     1      46.526   3.795  15.719  0.00  0.00    +0.000 HD
ENDBRANCH  13  14
ENDBRANCH   5   8
BRANCH   1  16
ATOM     16  C   UNL     1      48.119   8.974  13.452  0.00  0.00    +0.000 C 
BRANCH  16  17
ATOM     17  C   UNL     1      46.654   9.097  13.029  0.00  0.00    +0.000 C 
BRANCH  17  18
ATOM     18  O   UNL     1      46.519   8.437  11.764  0.00  0.00    +0.000 OA
BRANCH  18  22
ATOM     19  C   UNL     1      44.658   4.833  11.839  0.00  0.00    +0.000 A 
ATOM     20  C   UNL     1      44.392   5.773  12.825  0.00  0.00    +0.000 A 
ATOM     21  N   UNL     1      44.990   6.994  12.848  0.00  0.00    +0.000 NA
ATOM     22  C   UNL     1      45.863   7.226  11.847  0.00  0.00    +0.000 A 
ATOM     23  C   UNL     1      46.136   6.279  10.861  0.00  0.00    +0.000 A 
ATOM     24  N   UNL     1      45.547   5.059  10.826  0.00  0.00    +0.000 NA
BRANCH  19  26
ATOM     25  N   UNL     1      44.582   2.521  12.554  0.00  0.00    +0.000 N 
ATOM     26  C   UNL     1      43.952   3.522  11.866  0.00  0.00    +0.000 C 
ATOM     27  O   UNL     1      42.874   3.346  11.309  0.00  0.00    +0.000 OA
ATOM     28  H   UNL     1      44.149   1.611  12.614  0.00  0.00    +0.000 HD
ATOM     29  H   UNL     1      45.464   2.701  13.023  0.00  0.00    +0.000 HD
ENDBRANCH  19  26
ENDBRANCH  18  22
ENDBRANCH  17  18
ENDBRANCH  16  17
ENDBRANCH   1  16
TORSDOF 7
ENDMDL
MODEL 7
REMARK VINA RESULT:    -5.913      5.238      7.524
REMARK INTER + INTRA:          -9.356
REMARK INTER:                  -8.264
REMARK INTRA:                  -1.092
REMARK UNBOUND:                -1.196
REMARK  Name = 
REMARK  7 active torsions:
REMARK  status: ('A' for Active; 'I' for Inactive)
REMARK    1  A    between atoms: C_2  and  C_4
REMARK    2  A    between atoms: C_7  and  O_8
REMARK    3  A    between atoms: O_8  and  C_9
REMARK    4  A    between atoms: C_9  and  C_10
REMARK    5  A    between atoms: C_10  and  C_11
REMARK    6  A    between atoms: C_15  and  C_16
REMARK    7  A    between atoms: C_21  and  O_22
REMARK                            x       y       z     vdW  Elec       q    Type
REMARK                         _______ _______ _______ _____ _____    ______ ____
ROOT
ATOM      1  C   UNL     1      49.262   6.580  17.375  0.00  0.00    +0.000 A 
ATOM      2  C   UNL     1      48.053   6.232  17.992  0.00  0.00    +0.000 A 
ATOM      3  C   UNL     1      47.909   4.995  18.602  0.00  0.00    +0.000 A 
ATOM      4  C   UNL     1      48.981   4.101  18.627  0.00  0.00    +0.000 A 
ATOM      5  C   UNL     1      50.210   4.369  17.986  0.00  0.00    +0.000 A 
ATOM      6  C   UNL     1      50.314   5.628  17.329  0.00  0.00    +0.000 A 
ATOM      7 CL   UNL     1      51.717   6.039  16.373  0.00  0.00    +0.000 Cl
ENDROOT
BRANCH   5   8
ATOM      8  C   UNL     1      51.304   3.341  18.043  0.00  0.00    +0.000 A 
ATOM      9  C   UNL     1      52.439   3.532  18.860  0.00  0.00    +0.000 A 
ATOM     10  C   UNL     1      53.506   2.627  18.887  0.00  0.00    +0.000 A 
ATOM     11  C   UNL     1      53.440   1.452  18.153  0.00  0.00    +0.000 A 
ATOM     12  C   UNL     1      52.309   1.186  17.390  0.00  0.00    +0.000 A 
ATOM     13  C   UNL     1      51.265   2.120  17.330  0.00  0.00    +0.000 A 
BRANCH  13  14
ATOM     14  O   UNL     1      50.186   1.811  16.540  0.00  0.00    +0.000 OA
ATOM     15  H   UNL     1      50.197   0.858  16.353  0.00  0.00    +0.000 HD
ENDBRANCH  13  14
ENDBRANCH   5   8
BRANCH   1  16
ATOM     16  C   UNL     1      49.384   7.969  16.788  0.00  0.00    +0.000 C 
BRANCH  16  17
ATOM     17  C   UNL     1      48.533   8.185  15.536  0.00  0.00    +0.000 C 
BRANCH  17  18
ATOM     18  O   UNL     1      49.050   7.324  14.514  0.00  0.00    +0.000 OA
BRANCH  18  22
ATOM     19  C   UNL     1      46.189   5.021  12.790  0.00  0.00    +0.000 A 
ATOM     20  C   UNL     1      46.875   4.559  13.906  0.00  0.00    +0.000 A 
ATOM     21  N   UNL     1      47.843   5.289  14.520  0.00  0.00    +0.000 NA
ATOM     22  C   UNL     1      48.095   6.493  13.966  0.00  0.00    +0.000 A 
ATOM     23  C   UNL     1      47.412   6.953  12.840  0.00  0.00    +0.000 A 
ATOM     24  N   UNL     1      46.445   6.236  12.220  0.00  0.00    +0.000 NA
BRANCH  19  26
ATOM     25  N   UNL     1      45.117   2.862  12.563  0.00  0.00    +0.000 N 
ATOM     26  C   UNL     1      45.126   4.175  12.179  0.00  0.00    +0.000 C 
ATOM     27  O   UNL     1      44.308   4.624  11.384  0.00  0.00    +0.000 OA
ATOM     28  H   UNL     1      44.415   2.241  12.187  0.00  0.00    +0.000 HD
ATOM     29  H   UNL     1      45.793   2.523  13.238  0.00  0.00    +0.000 HD
ENDBRANCH  19  26
ENDBRANCH  18  22
ENDBRANCH  17  18
ENDBRANCH  16  17
ENDBRANCH   1  16
TORSDOF 7
ENDMDL
MODEL 8
REMARK VINA RESULT:    -5.904      1.534      2.133
REMARK INTER + INTRA:          -9.343
REMARK INTER:                  -8.936
REMARK INTRA:                  -0.407
REMARK UNBOUND:                -1.196
REMARK  Name = 
REMARK  7 active torsions:
REMARK  status: ('A' for Active; 'I' for Inactive)
REMARK    1  A    between atoms: C_2  and  C_4
REMARK    2  A    between atoms: C_7  and  O_8
REMARK    3  A    between atoms: O_8  and  C_9
REMARK    4  A    between atoms: C_9  and  C_10
REMARK    5  A    between atoms: C_10  and  C_11
REMARK    6  A    between atoms: C_15  and  C_16
REMARK    7  A    between atoms: C_21  and  O_22
REMARK                            x       y       z     vdW  Elec       q    Type
REMARK                         _______ _______ _______ _____ _____    ______ ____
ROOT
ATOM      1  C   UNL     1      46.571   4.823  13.450  0.00  0.00    +0.000 A 
ATOM      2  C   UNL     1      46.854   4.287  14.713  0.00  0.00    +0.000 A 
ATOM      3  C   UNL     1      47.702   4.956  15.583  0.00  0.00    +0.000 A 
ATOM      4  C   UNL     1      48.256   6.182  15.211  0.00  0.00    +0.000 A 
ATOM      5  C   UNL     1      48.049   6.756  13.936  0.00  0.00    +0.000 A 
ATOM      6  C   UNL     1      47.210   6.025  13.048  0.00  0.00    +0.000 A 
ATOM      7 CL   UNL     1      46.979   6.535  11.394  0.00  0.00    +0.000 Cl
ENDROOT
BRANCH   5   8
ATOM      8  C   UNL     1      48.702   8.069  13.611  0.00  0.00    +0.000 A 
ATOM      9  C   UNL     1      48.256   9.269  14.205  0.00  0.00    +0.000 A 
ATOM     10  C   UNL     1      48.798  10.517  13.876  0.00  0.00    +0.000 A 
ATOM     11  C   UNL     1      49.864  10.601  12.992  0.00  0.00    +0.000 A 
ATOM     12  C   UNL     1      50.384   9.437  12.438  0.00  0.00    +0.000 A 
ATOM     13  C   UNL     1      49.806   8.195  12.736  0.00  0.00    +0.000 A 
BRANCH  13  14
ATOM     14  O   UNL     1      50.348   7.086  12.138  0.00  0.00    +0.000 OA
ATOM     15  H   UNL     1      50.740   6.520  12.824  0.00  0.00    +0.000 HD
ENDBRANCH  13  14
ENDBRANCH   5   8
BRANCH   1  16
ATOM     16  C   UNL     1      45.583   4.085  12.573  0.00  0.00    +0.000 C 
BRANCH  16  17
ATOM     17  C   UNL     1      44.412   4.948  12.102  0.00  0.00    +0.000 C 
BRANCH  17  18
ATOM     18  O   UNL     1      43.660   4.172  11.160  0.00  0.00    +0.000 OA
BRANCH  18  22
ATOM     19  C   UNL     1      45.896   3.014   7.979  0.00  0.00    +0.000 A 
ATOM     20  C   UNL     1      45.309   2.061   8.800  0.00  0.00    +0.000 A 
ATOM     21  N   UNL     1      44.553   2.395   9.879  0.00  0.00    +0.000 NA
ATOM     22  C   UNL     1      44.417   3.718  10.099  0.00  0.00    +0.000 A 
ATOM     23  C   UNL     1      45.013   4.675   9.280  0.00  0.00    +0.000 A 
ATOM     24  N   UNL     1      45.768   4.356   8.201  0.00  0.00    +0.000 NA
BRANCH  19  26
ATOM     25  N   UNL     1      46.992   3.551   5.888  0.00  0.00    +0.000 N 
ATOM     26  C   UNL     1      46.697   2.576   6.802  0.00  0.00    +0.000 C 
ATOM     27  O   UNL     1      47.072   1.418   6.659  0.00  0.00    +0.000 OA
ATOM     28  H   UNL     1      47.539   3.316   5.072  0.00  0.00    +0.000 HD
ATOM     29  H   UNL     1      46.686   4.505   6.043  0.00  0.00    +0.000 HD
ENDBRANCH  19  26
ENDBRANCH  18  22
ENDBRANCH  17  18
ENDBRANCH  16  17
ENDBRANCH   1  16
TORSDOF 7
ENDMDL
MODEL 9
REMARK VINA RESULT:    -5.881      4.932      7.898
REMARK INTER + INTRA:          -9.312
REMARK INTER:                  -8.274
REMARK INTRA:                  -1.039
REMARK UNBOUND:                -1.196
REMARK  Name = 
REMARK  7 active torsions:
REMARK  status: ('A' for Active; 'I' for Inactive)
REMARK    1  A    between atoms: C_2  and  C_4
REMARK    2  A    between atoms: C_7  and  O_8
REMARK    3  A    between atoms: O_8  and  C_9
REMARK    4  A    between atoms: C_9  and  C_10
REMARK    5  A    between atoms: C_10  and  C_11
REMARK    6  A    between atoms: C_15  and  C_16
REMARK    7  A    between atoms: C_21  and  O_22
REMARK                            x       y       z     vdW  Elec       q    Type
REMARK                         _______ _______ _______ _____ _____    ______ ____
ROOT
ATOM      1  C   UNL     1      48.001   7.532  13.812  0.00  0.00    +0.000 A 
ATOM      2  C   UNL     1      47.649   8.866  13.565  0.00  0.00    +0.000 A 
ATOM      3  C   UNL     1      46.463   9.168  12.912  0.00  0.00    +0.000 A 
ATOM      4  C   UNL     1      45.601   8.142  12.524  0.00  0.00    +0.000 A 
ATOM      5  C   UNL     1      45.915   6.776  12.701  0.00  0.00    +0.000 A 
ATOM      6  C   UNL     1      47.159   6.495  13.333  0.00  0.00    +0.000 A 
ATOM      7 CL   UNL     1      47.747   4.858  13.489  0.00  0.00    +0.000 Cl
ENDROOT
BRANCH   5   8
ATOM      8  C   UNL     1      44.938   5.735  12.232  0.00  0.00    +0.000 A 
ATOM      9  C   UNL     1      44.047   5.116  13.134  0.00  0.00    +0.000 A 
ATOM     10  C   UNL     1      43.170   4.097  12.744  0.00  0.00    +0.000 A 
ATOM     11  C   UNL     1      43.099   3.712  11.414  0.00  0.00    +0.000 A 
ATOM     12  C   UNL     1      43.906   4.345  10.476  0.00  0.00    +0.000 A 
ATOM     13  C   UNL     1      44.816   5.332  10.882  0.00  0.00    +0.000 A 
BRANCH  13  14
ATOM     14  O   UNL     1      45.603   5.902   9.913  0.00  0.00    +0.000 OA
ATOM     15  H   UNL     1      46.536   5.742  10.132  0.00  0.00    +0.000 HD
ENDBRANCH  13  14
ENDBRANCH   5   8
BRANCH   1  16
ATOM     16  C   UNL     1      49.271   7.267  14.590  0.00  0.00    +0.000 C 
BRANCH  16  17
ATOM     17  C   UNL     1      49.162   7.598  16.079  0.00  0.00    +0.000 C 
BRANCH  17  18
ATOM     18  O   UNL     1      48.471   6.511  16.709  0.00  0.00    +0.000 OA
BRANCH  18  22
ATOM     19  C   UNL     1      50.713   3.214  17.462  0.00  0.00    +0.000 A 
ATOM     20  C   UNL     1      51.250   4.480  17.655  0.00  0.00    +0.000 A 
ATOM     21  N   UNL     1      50.544   5.616  17.416  0.00  0.00    +0.000 NA
ATOM     22  C   UNL     1      49.284   5.428  16.973  0.00  0.00    +0.000 A 
ATOM     23  C   UNL     1      48.747   4.157  16.770  0.00  0.00    +0.000 A 
ATOM     24  N   UNL     1      49.440   3.017  17.006  0.00  0.00    +0.000 NA
BRANCH  19  26
ATOM     25  N   UNL     1      52.629   2.223  18.562  0.00  0.00    +0.000 N 
ATOM     26  C   UNL     1      51.539   2.012  17.762  0.00  0.00    +0.000 C 
ATOM     27  O   UNL     1      51.262   0.901  17.324  0.00  0.00    +0.000 OA
ATOM     28  H   UNL     1      53.223   1.444  18.806  0.00  0.00    +0.000 HD
ATOM     29  H   UNL     1      52.821   3.150  18.927  0.00  0.00    +0.000 HD
ENDBRANCH  19  26
ENDBRANCH  18  22
ENDBRANCH  17  18
ENDBRANCH  16  17
ENDBRANCH   1  16
TORSDOF 7
ENDMDL
