MODEL 1
REMARK VINA RESULT:    -8.242      0.000      0.000
REMARK INTER + INTRA:         -11.584
REMARK INTER:                 -10.651
REMARK INTRA:                  -0.933
REMARK UNBOUND:                -0.933
REMARK  Name = 
REMARK  5 active torsions:
REMARK  status: ('A' for Active; 'I' for Inactive)
REMARK    1  A    between atoms: C_2  and  C_18
REMARK    2  A    between atoms: N_3  and  C_4
REMARK    3  A    between atoms: C_4  and  C_5
REMARK    4  A    between atoms: C_8  and  C_9
REMARK    5  A    between atoms: C_9  and  C_10
REMARK                            x       y       z     vdW  Elec       q    Type
REMARK                         _______ _______ _______ _____ _____    ______ ____
ROOT
ATOM      1  N   UNL     1      46.196   3.024  13.287  0.00  0.00    +0.000 NA
ATOM      2  C   UNL     1      45.874   4.272  13.322  0.00  0.00    +0.000 C 
ATOM      3  N   UNL     1      44.622   4.788  13.120  0.00  0.00    +0.000 N 
ATOM      4  H   UNL     1      45.375   2.453  13.103  0.00  0.00    +0.000 HD
ATOM      5  H   UNL     1      44.581   5.801  13.002  0.00  0.00    +0.000 HD
ENDROOT
BRANCH   2   6
ATOM      6  C   UNL     1      46.971   5.207  13.605  0.00  0.00    +0.000 A 
ATOM      7  C   UNL     1      47.342   6.169  12.670  0.00  0.00    +0.000 A 
ATOM      8  S   UNL     1      48.534   7.255  13.229  0.00  0.00    +0.000 S 
ATOM      9  C   UNL     1      48.575   6.504  14.753  0.00  0.00    +0.000 A 
ATOM     10  N   UNL     1      49.341   7.005  15.760  0.00  0.00    +0.000 NA
ATOM     11  C   UNL     1      49.242   6.361  16.873  0.00  0.00    +0.000 A 
ATOM     12  N   UNL     1      48.472   5.242  17.064  0.00  0.00    +0.000 N 
ATOM     13  C   UNL     1      47.727   4.670  16.059  0.00  0.00    +0.000 A 
ATOM     14  O   UNL     1      47.127   3.614  16.235  0.00  0.00    +0.000 OA
ATOM     15  C   UNL     1      47.745   5.396  14.808  0.00  0.00    +0.000 A 
ATOM     16  H   UNL     1      48.472   4.762  17.949  0.00  0.00    +0.000 HD
ENDBRANCH   2   6
BRANCH   3  17
ATOM     17  C   UNL     1      43.666   4.124  12.241  0.00  0.00    +0.000 C 
BRANCH  17  18
ATOM     18  C   UNL     1      44.200   3.878  10.842  0.00  0.00    +0.000 A 
ATOM     19  C   UNL     1      44.855   4.910  10.158  0.00  0.00    +0.000 A 
ATOM     20  C   UNL     1      45.400   4.704   8.882  0.00  0.00    +0.000 A 
ATOM     21  C   UNL     1      45.308   3.464   8.244  0.00  0.00    +0.000 A 
ATOM     22  C   UNL     1      44.659   2.421   8.927  0.00  0.00    +0.000 A 
ATOM     23  C   UNL     1      44.107   2.629  10.210  0.00  0.00    +0.000 A 
BRANCH  21  24
ATOM     24  C   UNL     1      45.791   3.326   6.807  0.00  0.00    +0.000 C 
BRANCH  24  25
ATOM     25  C   UNL     1      47.256   2.886   6.547  0.00  0.00    +0.000 C 
ATOM     26  C   UNL     1      47.641   2.669   5.074  0.00  0.00    +0.000 C 
ATOM     27  C   UNL     1      47.112   1.369   4.462  0.00  0.00    +0.000 C 
ATOM     28  N   UNL     1      47.354   0.170   5.262  0.00  0.00    +0.000 NA
ATOM     29  C   UNL     1      46.983   0.331   6.665  0.00  0.00    +0.000 C 
ATOM     30  C   UNL     1      47.584   1.583   7.310  0.00  0.00    +0.000 C 
ATOM     31  H   UNL     1      48.333  -0.104   5.194  0.00  0.00    +0.000 HD
ENDBRANCH  24  25
ENDBRANCH  21  24
ENDBRANCH  17  18
ENDBRANCH   3  17
TORSDOF 5
ENDMDL
MODEL 2
REMARK VINA RESULT:    -7.758      1.804      2.439
REMARK INTER + INTRA:         -10.959
REMARK INTER:                 -10.186
REMARK INTRA:                  -0.773
REMARK UNBOUND:                -0.933
REMARK  Name = 
REMARK  5 active torsions:
REMARK  status: ('A' for Active; 'I' for Inactive)
REMARK    1  A    between atoms: C_2  and  C_18
REMARK    2  A    between atoms: N_3  and  C_4
REMARK    3  A    between atoms: C_4  and  C_5
REMARK    4  A    between atoms: C_8  and  C_9
REMARK    5  A    between atoms: C_9  and  C_10
REMARK                            x       y       z     vdW  Elec       q    Type
REMARK                         _______ _______ _______ _____ _____    ______ ____
ROOT
ATOM      1  N   UNL     1      47.766   5.405  13.287  0.00  0.00    +0.000 NA
ATOM      2  C   UNL     1      46.968   4.892  14.160  0.00  0.00    +0.000 C 
ATOM      3  N   UNL     1      45.667   4.523  13.947  0.00  0.00    +0.000 N 
ATOM      4  H   UNL     1      47.298   5.487  12.388  0.00  0.00    +0.000 HD
ATOM      5  H   UNL     1      45.130   4.307  14.788  0.00  0.00    +0.000 HD
ENDROOT
BRANCH   2   6
ATOM      6  C   UNL     1      47.531   4.697  15.503  0.00  0.00    +0.000 A 
ATOM      7  C   UNL     1      47.354   3.495  16.180  0.00  0.00    +0.000 A 
ATOM      8  S   UNL     1      48.199   3.401  17.659  0.00  0.00    +0.000 S 
ATOM      9  C   UNL     1      48.862   4.950  17.436  0.00  0.00    +0.000 A 
ATOM     10  N   UNL     1      49.767   5.457  18.317  0.00  0.00    +0.000 NA
ATOM     11  C   UNL     1      50.219   6.623  18.000  0.00  0.00    +0.000 A 
ATOM     12  N   UNL     1      49.826   7.343  16.901  0.00  0.00    +0.000 N 
ATOM     13  C   UNL     1      48.873   6.892  16.017  0.00  0.00    +0.000 A 
ATOM     14  O   UNL     1      48.472   7.601  15.099  0.00  0.00    +0.000 OA
ATOM     15  C   UNL     1      48.386   5.557  16.286  0.00  0.00    +0.000 A 
ATOM     16  H   UNL     1      50.189   8.267  16.735  0.00  0.00    +0.000 HD
ENDBRANCH   2   6
BRANCH   3  17
ATOM     17  C   UNL     1      44.839   5.216  12.965  0.00  0.00    +0.000 C 
BRANCH  17  18
ATOM     18  C   UNL     1      45.018   4.697  11.550  0.00  0.00    +0.000 A 
ATOM     19  C   UNL     1      44.674   3.373  11.247  0.00  0.00    +0.000 A 
ATOM     20  C   UNL     1      44.784   2.875   9.941  0.00  0.00    +0.000 A 
ATOM     21  C   UNL     1      45.244   3.678   8.893  0.00  0.00    +0.000 A 
ATOM     22  C   UNL     1      45.584   5.010   9.187  0.00  0.00    +0.000 A 
ATOM     23  C   UNL     1      45.476   5.510  10.504  0.00  0.00    +0.000 A 
BRANCH  21  24
ATOM     24  C   UNL     1      45.477   3.056   7.523  0.00  0.00    +0.000 C 
BRANCH  24  25
ATOM     25  C   UNL     1      46.902   3.100   6.912  0.00  0.00    +0.000 C 
ATOM     26  C   UNL     1      46.973   3.259   5.385  0.00  0.00    +0.000 C 
ATOM     27  C   UNL     1      46.644   1.989   4.596  0.00  0.00    +0.000 C 
ATOM     28  N   UNL     1      47.347   0.788   5.043  0.00  0.00    +0.000 NA
ATOM     29  C   UNL     1      47.286   0.592   6.488  0.00  0.00    +0.000 C 
ATOM     30  C   UNL     1      47.703   1.832   7.285  0.00  0.00    +0.000 C 
ATOM     31  H   UNL     1      48.319   0.819   4.740  0.00  0.00    +0.000 HD
ENDBRANCH  24  25
ENDBRANCH  21  24
ENDBRANCH  17  18
ENDBRANCH   3  17
TORSDOF 5
ENDMDL
MODEL 3
REMARK VINA RESULT:    -7.749      1.512      2.199
REMARK INTER + INTRA:         -10.947
REMARK INTER:                 -10.209
REMARK INTRA:                  -0.738
REMARK UNBOUND:                -0.933
REMARK  Name = 
REMARK  5 active torsions:
REMARK  status: ('A' for Active; 'I' for Inactive)
REMARK    1  A    between atoms: C_2  and  C_18
REMARK    2  A    between atoms: N_3  and  C_4
REMARK    3  A    between atoms: C_4  and  C_5
REMARK    4  A    between atoms: C_8  and  C_9
REMARK    5  A    between atoms: C_9  and  C_10
REMARK                            x       y       z     vdW  Elec       q    Type
REMARK                         _______ _______ _______ _____ _____    ______ ____
ROOT
ATOM      1  N   UNL     1      47.832   6.608  12.776  0.00  0.00    +0.000 NA
ATOM      2  C   UNL     1      47.288   5.940  13.735  0.00  0.00    +0.000 C 
ATOM      3  N   UNL     1      46.129   5.214  13.656  0.00  0.00    +0.000 N 
ATOM      4  H   UNL     1      47.286   6.510  11.924  0.00  0.00    +0.000 HD
ATOM      5  H   UNL     1      45.748   4.902  14.550  0.00  0.00    +0.000 HD
ENDROOT
BRANCH   2   6
ATOM      6  C   UNL     1      47.994   5.979  15.022  0.00  0.00    +0.000 A 
ATOM      7  C   UNL     1      48.481   7.180  15.528  0.00  0.00    +0.000 A 
ATOM      8  S   UNL     1      49.141   7.055  17.097  0.00  0.00    +0.000 S 
ATOM      9  C   UNL     1      48.770   5.398  17.174  0.00  0.00    +0.000 A 
ATOM     10  N   UNL     1      48.997   4.682  18.310  0.00  0.00    +0.000 NA
ATOM     11  C   UNL     1      48.627   3.448  18.242  0.00  0.00    +0.000 A 
ATOM     12  N   UNL     1      48.082   2.855  17.132  0.00  0.00    +0.000 N 
ATOM     13  C   UNL     1      47.888   3.526  15.947  0.00  0.00    +0.000 A 
ATOM     14  O   UNL     1      47.490   2.943  14.943  0.00  0.00    +0.000 OA
ATOM     15  C   UNL     1      48.218   4.934  15.992  0.00  0.00    +0.000 A 
ATOM     16  H   UNL     1      47.854   1.874  17.132  0.00  0.00    +0.000 HD
ENDBRANCH   2   6
BRANCH   3  17
ATOM     17  C   UNL     1      45.060   5.597  12.741  0.00  0.00    +0.000 C 
BRANCH  17  18
ATOM     18  C   UNL     1      45.208   4.999  11.354  0.00  0.00    +0.000 A 
ATOM     19  C   UNL     1      44.707   3.717  11.094  0.00  0.00    +0.000 A 
ATOM     20  C   UNL     1      44.787   3.152   9.813  0.00  0.00    +0.000 A 
ATOM     21  C   UNL     1      45.372   3.843   8.749  0.00  0.00    +0.000 A 
ATOM     22  C   UNL     1      45.871   5.134   8.999  0.00  0.00    +0.000 A 
ATOM     23  C   UNL     1      45.794   5.701  10.290  0.00  0.00    +0.000 A 
BRANCH  21  24
ATOM     24  C   UNL     1      45.560   3.137   7.413  0.00  0.00    +0.000 C 
BRANCH  24  25
ATOM     25  C   UNL     1      46.986   3.040   6.809  0.00  0.00    +0.000 C 
ATOM     26  C   UNL     1      47.074   3.120   5.277  0.00  0.00    +0.000 C 
ATOM     27  C   UNL     1      46.647   1.844   4.546  0.00  0.00    +0.000 C 
ATOM     28  N   UNL     1      47.252   0.614   5.055  0.00  0.00    +0.000 NA
ATOM     29  C   UNL     1      47.171   0.493   6.507  0.00  0.00    +0.000 C 
ATOM     30  C   UNL     1      47.683   1.732   7.247  0.00  0.00    +0.000 C 
ATOM     31  H   UNL     1      48.224   0.553   4.757  0.00  0.00    +0.000 HD
ENDBRANCH  24  25
ENDBRANCH  21  24
ENDBRANCH  17  18
ENDBRANCH   3  17
TORSDOF 5
ENDMDL
MODEL 4
REMARK VINA RESULT:    -7.076      4.549      7.596
REMARK INTER + INTRA:         -10.078
REMARK INTER:                  -9.003
REMARK INTRA:                  -1.075
REMARK UNBOUND:                -0.933
REMARK  Name = 
REMARK  5 active torsions:
REMARK  status: ('A' for Active; 'I' for Inactive)
REMARK    1  A    between atoms: C_2  and  C_18
REMARK    2  A    between atoms: N_3  and  C_4
REMARK    3  A    between atoms: C_4  and  C_5
REMARK    4  A    between atoms: C_8  and  C_9
REMARK    5  A    between atoms: C_9  and  C_10
REMARK                            x       y       z     vdW  Elec       q    Type
REMARK                         _______ _______ _______ _____ _____    ______ ____
ROOT
ATOM      1  N   UNL     1      43.585   7.418  10.971  0.00  0.00    +0.000 NA
ATOM      2  C   UNL     1      44.323   6.713  11.759  0.00  0.00    +0.000 C 
ATOM      3  N   UNL     1      45.150   7.196  12.737  0.00  0.00    +0.000 N 
ATOM      4  H   UNL     1      43.684   8.407  11.188  0.00  0.00    +0.000 HD
ATOM      5  H   UNL     1      45.795   6.515  13.139  0.00  0.00    +0.000 HD
ENDROOT
BRANCH   2   6
ATOM      6  C   UNL     1      44.254   5.258  11.566  0.00  0.00    +0.000 A 
ATOM      7  C   UNL     1      43.565   4.454  12.467  0.00  0.00    +0.000 A 
ATOM      8  S   UNL     1      43.471   2.815  12.003  0.00  0.00    +0.000 S 
ATOM      9  C   UNL     1      44.319   3.122  10.563  0.00  0.00    +0.000 A 
ATOM     10  N   UNL     1      44.511   2.140   9.640  0.00  0.00    +0.000 NA
ATOM     11  C   UNL     1      45.131   2.525   8.576  0.00  0.00    +0.000 A 
ATOM     12  N   UNL     1      45.605   3.795   8.364  0.00  0.00    +0.000 N 
ATOM     13  C   UNL     1      45.482   4.802   9.293  0.00  0.00    +0.000 A 
ATOM     14  O   UNL     1      46.003   5.898   9.114  0.00  0.00    +0.000 OA
ATOM     15  C   UNL     1      44.730   4.442  10.475  0.00  0.00    +0.000 A 
ATOM     16  H   UNL     1      46.118   4.018   7.527  0.00  0.00    +0.000 HD
ENDBRANCH   2   6
BRANCH   3  17
ATOM     17  C   UNL     1      45.787   8.502  12.608  0.00  0.00    +0.000 C 
BRANCH  17  18
ATOM     18  C   UNL     1      47.268   8.423  12.286  0.00  0.00    +0.000 A 
ATOM     19  C   UNL     1      47.916   7.181  12.296  0.00  0.00    +0.000 A 
ATOM     20  C   UNL     1      49.272   7.067  11.959  0.00  0.00    +0.000 A 
ATOM     21  C   UNL     1      50.030   8.186  11.606  0.00  0.00    +0.000 A 
ATOM     22  C   UNL     1      49.386   9.436  11.586  0.00  0.00    +0.000 A 
ATOM     23  C   UNL     1      48.020   9.551  11.928  0.00  0.00    +0.000 A 
BRANCH  21  24
ATOM     24  C   UNL     1      51.529   8.034  11.383  0.00  0.00    +0.000 C 
BRANCH  24  25
ATOM     25  C   UNL     1      52.036   7.551   9.999  0.00  0.00    +0.000 C 
ATOM     26  C   UNL     1      53.015   6.367  10.018  0.00  0.00    +0.000 C 
ATOM     27  C   UNL     1      54.441   6.725  10.447  0.00  0.00    +0.000 C 
ATOM     28  N   UNL     1      55.015   7.884   9.765  0.00  0.00    +0.000 NA
ATOM     29  C   UNL     1      54.120   9.037   9.743  0.00  0.00    +0.000 C 
ATOM     30  C   UNL     1      52.717   8.705   9.227  0.00  0.00    +0.000 C 
ATOM     31  H   UNL     1      55.280   7.634   8.814  0.00  0.00    +0.000 HD
ENDBRANCH  24  25
ENDBRANCH  21  24
ENDBRANCH  17  18
ENDBRANCH   3  17
TORSDOF 5
ENDMDL
MODEL 5
REMARK VINA RESULT:    -7.007      3.491      5.822
REMARK INTER + INTRA:          -9.988
REMARK INTER:                  -8.465
REMARK INTRA:                  -1.524
REMARK UNBOUND:                -0.933
REMARK  Name = 
REMARK  5 active torsions:
REMARK  status: ('A' for Active; 'I' for Inactive)
REMARK    1  A    between atoms: C_2  and  C_18
REMARK    2  A    between atoms: N_3  and  C_4
REMARK    3  A    between atoms: C_4  and  C_5
REMARK    4  A    between atoms: C_8  and  C_9
REMARK    5  A    between atoms: C_9  and  C_10
REMARK                            x       y       z     vdW  Elec       q    Type
REMARK                         _______ _______ _______ _____ _____    ______ ____
ROOT
ATOM      1  N   UNL     1      48.007   8.578  17.130  0.00  0.00    +0.000 NA
ATOM      2  C   UNL     1      48.988   7.882  16.666  0.00  0.00    +0.000 C 
ATOM      3  N   UNL     1      49.806   8.234  15.625  0.00  0.00    +0.000 N 
ATOM      4  H   UNL     1      47.927   9.456  16.624  0.00  0.00    +0.000 HD
ATOM      5  H   UNL     1      50.409   7.490  15.272  0.00  0.00    +0.000 HD
ENDROOT
BRANCH   2   6
ATOM      6  C   UNL     1      49.227   6.593  17.328  0.00  0.00    +0.000 A 
ATOM      7  C   UNL     1      50.065   6.508  18.435  0.00  0.00    +0.000 A 
ATOM      8  S   UNL     1      50.107   4.963  19.157  0.00  0.00    +0.000 S 
ATOM      9  C   UNL     1      48.980   4.355  18.039  0.00  0.00    +0.000 A 
ATOM     10  N   UNL     1      48.501   3.086  18.148  0.00  0.00    +0.000 NA
ATOM     11  C   UNL     1      47.620   2.774  17.259  0.00  0.00    +0.000 A 
ATOM     12  N   UNL     1      47.197   3.603  16.251  0.00  0.00    +0.000 N 
ATOM     13  C   UNL     1      47.696   4.872  16.072  0.00  0.00    +0.000 A 
ATOM     14  O   UNL     1      47.370   5.553  15.104  0.00  0.00    +0.000 OA
ATOM     15  C   UNL     1      48.635   5.299  17.086  0.00  0.00    +0.000 A 
ATOM     16  H   UNL     1      46.536   3.281  15.564  0.00  0.00    +0.000 HD
ENDBRANCH   2   6
BRANCH   3  17
ATOM     17  C   UNL     1      49.320   9.071  14.534  0.00  0.00    +0.000 C 
BRANCH  17  18
ATOM     18  C   UNL     1      48.362   8.353  13.602  0.00  0.00    +0.000 A 
ATOM     19  C   UNL     1      46.998   8.675  13.625  0.00  0.00    +0.000 A 
ATOM     20  C   UNL     1      46.093   8.063  12.746  0.00  0.00    +0.000 A 
ATOM     21  C   UNL     1      46.514   7.106  11.818  0.00  0.00    +0.000 A 
ATOM     22  C   UNL     1      47.881   6.782  11.784  0.00  0.00    +0.000 A 
ATOM     23  C   UNL     1      48.793   7.396  12.672  0.00  0.00    +0.000 A 
BRANCH  21  24
ATOM     24  C   UNL     1      45.476   6.370  10.982  0.00  0.00    +0.000 C 
BRANCH  24  25
ATOM     25  C   UNL     1      44.344   5.594  11.703  0.00  0.00    +0.000 C 
ATOM     26  C   UNL     1      44.775   4.739  12.906  0.00  0.00    +0.000 C 
ATOM     27  C   UNL     1      45.477   3.429  12.537  0.00  0.00    +0.000 C 
ATOM     28  N   UNL     1      44.788   2.626  11.528  0.00  0.00    +0.000 NA
ATOM     29  C   UNL     1      44.379   3.400  10.361  0.00  0.00    +0.000 C 
ATOM     30  C   UNL     1      43.596   4.667  10.718  0.00  0.00    +0.000 C 
ATOM     31  H   UNL     1      43.977   2.168  11.940  0.00  0.00    +0.000 HD
ENDBRANCH  24  25
ENDBRANCH  21  24
ENDBRANCH  17  18
ENDBRANCH   3  17
TORSDOF 5
ENDMDL
MODEL 6
REMARK VINA RESULT:    -6.807      3.508      8.085
REMARK INTER + INTRA:          -9.730
REMARK INTER:                  -8.874
REMARK INTRA:                  -0.856
REMARK UNBOUND:                -0.933
REMARK  Name = 
REMARK  5 active torsions:
REMARK  status: ('A' for Active; 'I' for Inactive)
REMARK    1  A    between atoms: C_2  and  C_18
REMARK    2  A    between atoms: N_3  and  C_4
REMARK    3  A    between atoms: C_4  and  C_5
REMARK    4  A    between atoms: C_8  and  C_9
REMARK    5  A    between atoms: C_9  and  C_10
REMARK                            x       y       z     vdW  Elec       q    Type
REMARK                         _______ _______ _______ _____ _____    ______ ____
ROOT
ATOM      1  N   UNL     1      44.044   3.688   8.558  0.00  0.00    +0.000 NA
ATOM      2  C   UNL     1      44.595   2.724   9.213  0.00  0.00    +0.000 C 
ATOM      3  N   UNL     1      44.366   2.404  10.525  0.00  0.00    +0.000 N 
ATOM      4  H   UNL     1      43.384   4.184   9.152  0.00  0.00    +0.000 HD
ATOM      5  H   UNL     1      45.019   1.733  10.931  0.00  0.00    +0.000 HD
ENDROOT
BRANCH   2   6
ATOM      6  C   UNL     1      45.558   1.909   8.460  0.00  0.00    +0.000 A 
ATOM      7  C   UNL     1      45.593   0.527   8.615  0.00  0.00    +0.000 A 
ATOM      8  S   UNL     1      46.673  -0.263   7.556  0.00  0.00    +0.000 S 
ATOM      9  C   UNL     1      47.111   1.208   6.825  0.00  0.00    +0.000 A 
ATOM     10  N   UNL     1      47.954   1.236   5.758  0.00  0.00    +0.000 NA
ATOM     11  C   UNL     1      48.163   2.415   5.277  0.00  0.00    +0.000 A 
ATOM     12  N   UNL     1      47.633   3.573   5.786  0.00  0.00    +0.000 N 
ATOM     13  C   UNL     1      46.821   3.596   6.897  0.00  0.00    +0.000 A 
ATOM     14  O   UNL     1      46.443   4.655   7.386  0.00  0.00    +0.000 OA
ATOM     15  C   UNL     1      46.496   2.292   7.432  0.00  0.00    +0.000 A 
ATOM     16  H   UNL     1      47.871   4.466   5.388  0.00  0.00    +0.000 HD
ENDBRANCH   2   6
BRANCH   3  17
ATOM     17  C   UNL     1      44.000   3.428  11.497  0.00  0.00    +0.000 C 
BRANCH  17  18
ATOM     18  C   UNL     1      45.143   4.362  11.850  0.00  0.00    +0.000 A 
ATOM     19  C   UNL     1      45.329   5.540  11.115  0.00  0.00    +0.000 A 
ATOM     20  C   UNL     1      46.347   6.447  11.442  0.00  0.00    +0.000 A 
ATOM     21  C   UNL     1      47.217   6.210  12.510  0.00  0.00    +0.000 A 
ATOM     22  C   UNL     1      47.033   5.033  13.257  0.00  0.00    +0.000 A 
ATOM     23  C   UNL     1      46.009   4.118  12.925  0.00  0.00    +0.000 A 
BRANCH  21  24
ATOM     24  C   UNL     1      48.390   7.152  12.742  0.00  0.00    +0.000 C 
BRANCH  24  25
ATOM     25  C   UNL     1      49.007   7.895  11.528  0.00  0.00    +0.000 C 
ATOM     26  C   UNL     1      50.512   7.680  11.303  0.00  0.00    +0.000 C 
ATOM     27  C   UNL     1      51.417   8.449  12.269  0.00  0.00    +0.000 C 
ATOM     28  N   UNL     1      51.094   9.867  12.417  0.00  0.00    +0.000 NA
ATOM     29  C   UNL     1      49.674  10.111  12.650  0.00  0.00    +0.000 C 
ATOM     30  C   UNL     1      48.765   9.418  11.631  0.00  0.00    +0.000 C 
ATOM     31  H   UNL     1      51.401  10.383  11.594  0.00  0.00    +0.000 HD
ENDBRANCH  24  25
ENDBRANCH  21  24
ENDBRANCH  17  18
ENDBRANCH   3  17
TORSDOF 5
ENDMDL
MODEL 7
REMARK VINA RESULT:    -6.494      3.428      5.887
REMARK INTER + INTRA:          -9.326
REMARK INTER:                  -8.287
REMARK INTRA:                  -1.039
REMARK UNBOUND:                -0.933
REMARK  Name = 
REMARK  5 active torsions:
REMARK  status: ('A' for Active; 'I' for Inactive)
REMARK    1  A    between atoms: C_2  and  C_18
REMARK    2  A    between atoms: N_3  and  C_4
REMARK    3  A    between atoms: C_4  and  C_5
REMARK    4  A    between atoms: C_8  and  C_9
REMARK    5  A    between atoms: C_9  and  C_10
REMARK                            x       y       z     vdW  Elec       q    Type
REMARK                         _______ _______ _______ _____ _____    ______ ____
ROOT
ATOM      1  N   UNL     1      48.112   7.234  17.553  0.00  0.00    +0.000 NA
ATOM      2  C   UNL     1      48.948   6.625  16.784  0.00  0.00    +0.000 C 
ATOM      3  N   UNL     1      49.646   7.184  15.746  0.00  0.00    +0.000 N 
ATOM      4  H   UNL     1      48.048   8.217  17.297  0.00  0.00    +0.000 HD
ATOM      5  H   UNL     1      50.119   6.522  15.131  0.00  0.00    +0.000 HD
ENDROOT
BRANCH   2   6
ATOM      6  C   UNL     1      49.150   5.198  17.064  0.00  0.00    +0.000 A 
ATOM      7  C   UNL     1      48.112   4.286  16.894  0.00  0.00    +0.000 A 
ATOM      8  S   UNL     1      48.573   2.660  17.126  0.00  0.00    +0.000 S 
ATOM      9  C   UNL     1      50.184   3.107  17.429  0.00  0.00    +0.000 A 
ATOM     10  N   UNL     1      51.148   2.165  17.621  0.00  0.00    +0.000 NA
ATOM     11  C   UNL     1      52.332   2.646  17.797  0.00  0.00    +0.000 A 
ATOM     12  N   UNL     1      52.637   3.983  17.830  0.00  0.00    +0.000 N 
ATOM     13  C   UNL     1      51.685   4.968  17.698  0.00  0.00    +0.000 A 
ATOM     14  O   UNL     1      51.974   6.153  17.830  0.00  0.00    +0.000 OA
ATOM     15  C   UNL     1      50.350   4.482  17.425  0.00  0.00    +0.000 A 
ATOM     16  H   UNL     1      53.577   4.291  18.014  0.00  0.00    +0.000 HD
ENDBRANCH   2   6
BRANCH   3  17
ATOM     17  C   UNL     1      49.097   8.301  14.985  0.00  0.00    +0.000 C 
BRANCH  17  18
ATOM     18  C   UNL     1      48.075   7.879  13.945  0.00  0.00    +0.000 A 
ATOM     19  C   UNL     1      48.230   6.659  13.274  0.00  0.00    +0.000 A 
ATOM     20  C   UNL     1      47.282   6.218  12.340  0.00  0.00    +0.000 A 
ATOM     21  C   UNL     1      46.149   6.979  12.039  0.00  0.00    +0.000 A 
ATOM     22  C   UNL     1      45.981   8.201  12.714  0.00  0.00    +0.000 A 
ATOM     23  C   UNL     1      46.939   8.646  13.652  0.00  0.00    +0.000 A 
BRANCH  21  24
ATOM     24  C   UNL     1      45.220   6.526  10.921  0.00  0.00    +0.000 C 
BRANCH  24  25
ATOM     25  C   UNL     1      44.017   5.611  11.269  0.00  0.00    +0.000 C 
ATOM     26  C   UNL     1      44.117   4.846  12.598  0.00  0.00    +0.000 C 
ATOM     27  C   UNL     1      45.061   3.640  12.570  0.00  0.00    +0.000 C 
ATOM     28  N   UNL     1      44.865   2.732  11.441  0.00  0.00    +0.000 NA
ATOM     29  C   UNL     1      44.783   3.422  10.158  0.00  0.00    +0.000 C 
ATOM     30  C   UNL     1      43.772   4.572  10.151  0.00  0.00    +0.000 C 
ATOM     31  H   UNL     1      44.026   2.172  11.586  0.00  0.00    +0.000 HD
ENDBRANCH  24  25
ENDBRANCH  21  24
ENDBRANCH  17  18
ENDBRANCH   3  17
TORSDOF 5
ENDMDL
MODEL 8
REMARK VINA RESULT:    -6.416      4.240      6.193
REMARK INTER + INTRA:          -9.225
REMARK INTER:                  -7.910
REMARK INTRA:                  -1.315
REMARK UNBOUND:                -0.933
REMARK  Name = 
REMARK  5 active torsions:
REMARK  status: ('A' for Active; 'I' for Inactive)
REMARK    1  A    between atoms: C_2  and  C_18
REMARK    2  A    between atoms: N_3  and  C_4
REMARK    3  A    between atoms: C_4  and  C_5
REMARK    4  A    between atoms: C_8  and  C_9
REMARK    5  A    between atoms: C_9  and  C_10
REMARK                            x       y       z     vdW  Elec       q    Type
REMARK                         _______ _______ _______ _____ _____    ______ ____
ROOT
ATOM      1  N   UNL     1      49.996  10.153  15.146  0.00  0.00    +0.000 NA
ATOM      2  C   UNL     1      50.589   9.286  14.399  0.00  0.00    +0.000 C 
ATOM      3  N   UNL     1      50.646   9.303  13.030  0.00  0.00    +0.000 N 
ATOM      4  H   UNL     1      49.580  10.885  14.575  0.00  0.00    +0.000 HD
ATOM      5  H   UNL     1      50.994   8.448  12.597  0.00  0.00    +0.000 HD
ENDROOT
BRANCH   2   6
ATOM      6  C   UNL     1      51.254   8.183  15.105  0.00  0.00    +0.000 A 
ATOM      7  C   UNL     1      52.634   8.180  15.278  0.00  0.00    +0.000 A 
ATOM      8  S   UNL     1      53.209   6.897  16.244  0.00  0.00    +0.000 S 
ATOM      9  C   UNL     1      51.633   6.314  16.497  0.00  0.00    +0.000 A 
ATOM     10  N   UNL     1      51.401   5.261  17.328  0.00  0.00    +0.000 NA
ATOM     11  C   UNL     1      50.155   4.955  17.460  0.00  0.00    +0.000 A 
ATOM     12  N   UNL     1      49.121   5.584  16.814  0.00  0.00    +0.000 N 
ATOM     13  C   UNL     1      49.316   6.615  15.924  0.00  0.00    +0.000 A 
ATOM     14  O   UNL     1      48.381   7.091  15.288  0.00  0.00    +0.000 OA
ATOM     15  C   UNL     1      50.690   7.046  15.794  0.00  0.00    +0.000 A 
ATOM     16  H   UNL     1      48.173   5.267  16.930  0.00  0.00    +0.000 HD
ENDBRANCH   2   6
BRANCH   3  17
ATOM     17  C   UNL     1      49.568   9.886  12.239  0.00  0.00    +0.000 C 
BRANCH  17  18
ATOM     18  C   UNL     1      48.357   8.981  12.107  0.00  0.00    +0.000 A 
ATOM     19  C   UNL     1      47.071   9.513  12.271  0.00  0.00    +0.000 A 
ATOM     20  C   UNL     1      45.929   8.714  12.112  0.00  0.00    +0.000 A 
ATOM     21  C   UNL     1      46.030   7.358  11.789  0.00  0.00    +0.000 A 
ATOM     22  C   UNL     1      47.316   6.818  11.616  0.00  0.00    +0.000 A 
ATOM     23  C   UNL     1      48.466   7.622  11.779  0.00  0.00    +0.000 A 
BRANCH  21  24
ATOM     24  C   UNL     1      44.771   6.501  11.762  0.00  0.00    +0.000 C 
BRANCH  24  25
ATOM     25  C   UNL     1      44.408   5.662  13.015  0.00  0.00    +0.000 C 
ATOM     26  C   UNL     1      45.492   4.692  13.512  0.00  0.00    +0.000 C 
ATOM     27  C   UNL     1      45.644   3.422  12.671  0.00  0.00    +0.000 C 
ATOM     28  N   UNL     1      44.393   2.724  12.380  0.00  0.00    +0.000 NA
ATOM     29  C   UNL     1      43.343   3.611  11.887  0.00  0.00    +0.000 C 
ATOM     30  C   UNL     1      43.122   4.839  12.775  0.00  0.00    +0.000 C 
ATOM     31  H   UNL     1      44.066   2.231  13.209  0.00  0.00    +0.000 HD
ENDBRANCH  24  25
ENDBRANCH  21  24
ENDBRANCH  17  18
ENDBRANCH   3  17
TORSDOF 5
ENDMDL
MODEL 9
REMARK VINA RESULT:    -6.056      4.914      9.202
REMARK INTER + INTRA:          -8.760
REMARK INTER:                  -7.454
REMARK INTRA:                  -1.306
REMARK UNBOUND:                -0.933
REMARK  Name = 
REMARK  5 active torsions:
REMARK  status: ('A' for Active; 'I' for Inactive)
REMARK    1  A    between atoms: C_2  and  C_18
REMARK    2  A    between atoms: N_3  and  C_4
REMARK    3  A    between atoms: C_4  and  C_5
REMARK    4  A    between atoms: C_8  and  C_9
REMARK    5  A    between atoms: C_9  and  C_10
REMARK                            x       y       z     vdW  Elec       q    Type
REMARK                         _______ _______ _______ _____ _____    ______ ____
ROOT
ATOM      1  N   UNL     1      49.653   6.924  12.452  0.00  0.00    +0.000 NA
ATOM      2  C   UNL     1      48.926   7.882  12.916  0.00  0.00    +0.000 C 
ATOM      3  N   UNL     1      49.383   9.026  13.515  0.00  0.00    +0.000 N 
ATOM      4  H   UNL     1      50.639   7.140  12.574  0.00  0.00    +0.000 HD
ATOM      5  H   UNL     1      48.672   9.587  13.985  0.00  0.00    +0.000 HD
ENDROOT
BRANCH   2   6
ATOM      6  C   UNL     1      47.474   7.705  12.781  0.00  0.00    +0.000 A 
ATOM      7  C   UNL     1      46.698   8.662  12.135  0.00  0.00    +0.000 A 
ATOM      8  S   UNL     1      45.062   8.218  11.947  0.00  0.00    +0.000 S 
ATOM      9  C   UNL     1      45.333   6.714  12.692  0.00  0.00    +0.000 A 
ATOM     10  N   UNL     1      44.341   5.786  12.777  0.00  0.00    +0.000 NA
ATOM     11  C   UNL     1      44.699   4.675  13.326  0.00  0.00    +0.000 A 
ATOM     12  N   UNL     1      45.949   4.418  13.827  0.00  0.00    +0.000 N 
ATOM     13  C   UNL     1      46.964   5.347  13.813  0.00  0.00    +0.000 A 
ATOM     14  O   UNL     1      48.040   5.121  14.357  0.00  0.00    +0.000 OA
ATOM     15  C   UNL     1      46.636   6.586  13.142  0.00  0.00    +0.000 A 
ATOM     16  H   UNL     1      46.151   3.543  14.282  0.00  0.00    +0.000 HD
ENDBRANCH   2   6
BRANCH   3  17
ATOM     17  C   UNL     1      50.634   9.034  14.266  0.00  0.00    +0.000 C 
BRANCH  17  18
ATOM     18  C   UNL     1      50.561   8.261  15.570  0.00  0.00    +0.000 A 
ATOM     19  C   UNL     1      49.668   8.669  16.570  0.00  0.00    +0.000 A 
ATOM     20  C   UNL     1      49.543   7.953  17.768  0.00  0.00    +0.000 A 
ATOM     21  C   UNL     1      50.306   6.808  18.014  0.00  0.00    +0.000 A 
ATOM     22  C   UNL     1      51.200   6.387  17.013  0.00  0.00    +0.000 A 
ATOM     23  C   UNL     1      51.328   7.112  15.807  0.00  0.00    +0.000 A 
BRANCH  21  24
ATOM     24  C   UNL     1      50.237   6.143  19.382  0.00  0.00    +0.000 C 
BRANCH  24  25
ATOM     25  C   UNL     1      49.377   4.864  19.552  0.00  0.00    +0.000 C 
ATOM     26  C   UNL     1      48.740   4.307  18.269  0.00  0.00    +0.000 C 
ATOM     27  C   UNL     1      47.523   5.091  17.769  0.00  0.00    +0.000 C 
ATOM     28  N   UNL     1      46.515   5.377  18.789  0.00  0.00    +0.000 NA
ATOM     29  C   UNL     1      47.081   5.925  20.017  0.00  0.00    +0.000 C 
ATOM     30  C   UNL     1      48.241   5.094  20.574  0.00  0.00    +0.000 C 
ATOM     31  H   UNL     1      45.983   4.534  19.000  0.00  0.00    +0.000 HD
ENDBRANCH  24  25
ENDBRANCH  21  24
ENDBRANCH  17  18
ENDBRANCH   3  17
TORSDOF 5
ENDMDL
