MODEL 1
REMARK VINA RESULT:    -8.255      0.000      0.000
REMARK INTER + INTRA:         -11.274
REMARK INTER:                 -10.668
REMARK INTRA:                  -0.607
REMARK UNBOUND:                -0.607
REMARK  Name = 
REMARK  6 active torsions:
REMARK  status: ('A' for Active; 'I' for Inactive)
REMARK    1  A    between atoms: C_1  and  C_2
REMARK    2  A    between atoms: C_2  and  N_3
REMARK    3  A    between atoms: C_2  and  C_16
REMARK    4  A    between atoms: C_4  and  C_6
REMARK    5  A    between atoms: C_19  and  O_20
REMARK    6  A    between atoms: O_20  and  C_21
REMARK                            x       y       z     vdW  Elec       q    Type
REMARK                         _______ _______ _______ _____ _____    ______ ____
ROOT
ATOM      1  C   UNL     1      45.474   8.887  12.905  0.00  0.00    +0.000 C 
ATOM      2  C   UNL     1      46.529   7.791  12.715  0.00  0.00    +0.000 C 
ENDROOT
BRANCH   2   3
ATOM      3  C   UNL     1      45.942   6.650  11.893  0.00  0.00    +0.000 A 
ATOM      4  C   UNL     1      46.320   6.472  10.556  0.00  0.00    +0.000 A 
ATOM      5  C   UNL     1      45.818   5.398   9.817  0.00  0.00    +0.000 A 
ATOM      6  C   UNL     1      44.977   4.455  10.414  0.00  0.00    +0.000 A 
ATOM      7  C   UNL     1      44.552   4.651  11.726  0.00  0.00    +0.000 A 
ATOM      8  C   UNL     1      45.032   5.739  12.460  0.00  0.00    +0.000 A 
BRANCH   6   9
ATOM      9  O   UNL     1      44.482   3.350   9.754  0.00  0.00    +0.000 OA
BRANCH   9  10
ATOM     10  C   UNL     1      45.259   2.793   8.740  0.00  0.00    +0.000 A 
ATOM     11  C   UNL     1      45.480   3.581   7.621  0.00  0.00    +0.000 A 
ATOM     12  C   UNL     1      46.293   3.072   6.609  0.00  0.00    +0.000 A 
ATOM     13  C   UNL     1      46.850   1.805   6.752  0.00  0.00    +0.000 A 
ATOM     14  C   UNL     1      46.550   1.082   7.893  0.00  0.00    +0.000 A 
ATOM     15  N   UNL     1      45.749   1.540   8.876  0.00  0.00    +0.000 NA
ENDBRANCH   9  10
ENDBRANCH   6   9
ENDBRANCH   2   3
BRANCH   2  16
ATOM     16  N   UNL     1      47.028   7.262  13.973  0.00  0.00    +0.000 N 
ATOM     17  C   UNL     1      48.294   6.751  14.137  0.00  0.00    +0.000 C 
ATOM     18  O   UNL     1      49.129   6.740  13.239  0.00  0.00    +0.000 OA
ATOM     19  H   UNL     1      46.314   6.943  14.621  0.00  0.00    +0.000 HD
BRANCH  17  20
ATOM     20  C   UNL     1      48.626   6.280  15.487  0.00  0.00    +0.000 A 
ATOM     21  C   UNL     1      49.540   6.989  16.257  0.00  0.00    +0.000 A 
ATOM     22  S   UNL     1      49.800   6.316  17.803  0.00  0.00    +0.000 S 
ATOM     23  C   UNL     1      48.736   5.028  17.481  0.00  0.00    +0.000 A 
ATOM     24  N   UNL     1      48.531   4.044  18.397  0.00  0.00    +0.000 NA
ATOM     25  C   UNL     1      47.720   3.116  18.010  0.00  0.00    +0.000 A 
ATOM     26  N   UNL     1      47.085   3.091  16.797  0.00  0.00    +0.000 N 
ATOM     27  C   UNL     1      47.234   4.081  15.856  0.00  0.00    +0.000 A 
ATOM     28  O   UNL     1      46.609   4.065  14.801  0.00  0.00    +0.000 OA
ATOM     29  C   UNL     1      48.161   5.131  16.228  0.00  0.00    +0.000 A 
ATOM     30  H   UNL     1      46.445   2.347  16.559  0.00  0.00    +0.000 HD
ENDBRANCH  17  20
ENDBRANCH   2  16
TORSDOF 5
ENDMDL
MODEL 2
REMARK VINA RESULT:    -7.735      2.837      4.152
REMARK INTER + INTRA:         -10.603
REMARK INTER:                  -9.524
REMARK INTRA:                  -1.079
REMARK UNBOUND:                -0.607
REMARK  Name = 
REMARK  6 active torsions:
REMARK  status: ('A' for Active; 'I' for Inactive)
REMARK    1  A    between atoms: C_1  and  C_2
REMARK    2  A    between atoms: C_2  and  N_3
REMARK    3  A    between atoms: C_2  and  C_16
REMARK    4  A    between atoms: C_4  and  C_6
REMARK    5  A    between atoms: C_19  and  O_20
REMARK    6  A    between atoms: O_20  and  C_21
REMARK                            x       y       z     vdW  Elec       q    Type
REMARK                         _______ _______ _______ _____ _____    ______ ____
ROOT
ATOM      1  C   UNL     1      46.345   4.688  14.313  0.00  0.00    +0.000 C 
ATOM      2  C   UNL     1      46.000   5.762  13.275  0.00  0.00    +0.000 C 
ENDROOT
BRANCH   2   3
ATOM      3  C   UNL     1      45.576   5.098  11.971  0.00  0.00    +0.000 A 
ATOM      4  C   UNL     1      45.820   5.727  10.743  0.00  0.00    +0.000 A 
ATOM      5  C   UNL     1      45.475   5.097   9.545  0.00  0.00    +0.000 A 
ATOM      6  C   UNL     1      44.933   3.809   9.550  0.00  0.00    +0.000 A 
ATOM      7  C   UNL     1      44.636   3.196  10.765  0.00  0.00    +0.000 A 
ATOM      8  C   UNL     1      44.957   3.835  11.966  0.00  0.00    +0.000 A 
BRANCH   6   9
ATOM      9  O   UNL     1      44.610   3.114   8.403  0.00  0.00    +0.000 OA
BRANCH   9  10
ATOM     10  C   UNL     1      45.654   2.638   7.613  0.00  0.00    +0.000 A 
ATOM     11  C   UNL     1      46.305   1.500   8.062  0.00  0.00    +0.000 A 
ATOM     12  C   UNL     1      47.323   0.970   7.270  0.00  0.00    +0.000 A 
ATOM     13  C   UNL     1      47.649   1.592   6.069  0.00  0.00    +0.000 A 
ATOM     14  C   UNL     1      46.961   2.739   5.718  0.00  0.00    +0.000 A 
ATOM     15  N   UNL     1      45.989   3.287   6.474  0.00  0.00    +0.000 NA
ENDBRANCH   9  10
ENDBRANCH   6   9
ENDBRANCH   2   3
BRANCH   2  16
ATOM     16  N   UNL     1      47.106   6.668  13.010  0.00  0.00    +0.000 N 
ATOM     17  C   UNL     1      46.991   8.037  13.030  0.00  0.00    +0.000 C 
ATOM     18  O   UNL     1      45.948   8.614  13.320  0.00  0.00    +0.000 OA
ATOM     19  H   UNL     1      47.861   6.275  12.457  0.00  0.00    +0.000 HD
BRANCH  17  20
ATOM     20  C   UNL     1      48.222   8.788  12.757  0.00  0.00    +0.000 A 
ATOM     21  C   UNL     1      48.187   9.874  11.890  0.00  0.00    +0.000 A 
ATOM     22  S   UNL     1      49.697  10.643  11.694  0.00  0.00    +0.000 S 
ATOM     23  C   UNL     1      50.461   9.525  12.724  0.00  0.00    +0.000 A 
ATOM     24  N   UNL     1      51.799   9.590  12.959  0.00  0.00    +0.000 NA
ATOM     25  C   UNL     1      52.249   8.664  13.737  0.00  0.00    +0.000 A 
ATOM     26  N   UNL     1      51.481   7.687  14.314  0.00  0.00    +0.000 N 
ATOM     27  C   UNL     1      50.121   7.603  14.133  0.00  0.00    +0.000 A 
ATOM     28  O   UNL     1      49.448   6.754  14.707  0.00  0.00    +0.000 OA
ATOM     29  C   UNL     1      49.569   8.602  13.240  0.00  0.00    +0.000 A 
ATOM     30  H   UNL     1      51.889   7.000  14.931  0.00  0.00    +0.000 HD
ENDBRANCH  17  20
ENDBRANCH   2  16
TORSDOF 5
ENDMDL
MODEL 3
REMARK VINA RESULT:    -7.594      3.198      7.812
REMARK INTER + INTRA:         -10.420
REMARK INTER:                  -9.278
REMARK INTRA:                  -1.143
REMARK UNBOUND:                -0.607
REMARK  Name = 
REMARK  6 active torsions:
REMARK  status: ('A' for Active; 'I' for Inactive)
REMARK    1  A    between atoms: C_1  and  C_2
REMARK    2  A    between atoms: C_2  and  N_3
REMARK    3  A    between atoms: C_2  and  C_16
REMARK    4  A    between atoms: C_4  and  C_6
REMARK    5  A    between atoms: C_19  and  O_20
REMARK    6  A    between atoms: O_20  and  C_21
REMARK                            x       y       z     vdW  Elec       q    Type
REMARK                         _______ _______ _______ _____ _____    ______ ____
ROOT
ATOM      1  C   UNL     1      49.551   7.771  12.568  0.00  0.00    +0.000 C 
ATOM      2  C   UNL     1      48.264   7.319  13.267  0.00  0.00    +0.000 C 
ENDROOT
BRANCH   2   3
ATOM      3  C   UNL     1      48.606   6.679  14.607  0.00  0.00    +0.000 A 
ATOM      4  C   UNL     1      47.790   5.674  15.142  0.00  0.00    +0.000 A 
ATOM      5  C   UNL     1      48.129   5.054  16.347  0.00  0.00    +0.000 A 
ATOM      6  C   UNL     1      49.314   5.387  17.009  0.00  0.00    +0.000 A 
ATOM      7  C   UNL     1      50.106   6.422  16.515  0.00  0.00    +0.000 A 
ATOM      8  C   UNL     1      49.755   7.062  15.323  0.00  0.00    +0.000 A 
BRANCH   6   9
ATOM      9  O   UNL     1      49.730   4.785  18.177  0.00  0.00    +0.000 OA
BRANCH   9  10
ATOM     10  C   UNL     1      50.690   3.779  18.088  0.00  0.00    +0.000 A 
ATOM     11  C   UNL     1      50.310   2.610  17.448  0.00  0.00    +0.000 A 
ATOM     12  C   UNL     1      51.262   1.603  17.299  0.00  0.00    +0.000 A 
ATOM     13  C   UNL     1      52.549   1.800  17.791  0.00  0.00    +0.000 A 
ATOM     14  C   UNL     1      52.827   2.990  18.439  0.00  0.00    +0.000 A 
ATOM     15  N   UNL     1      51.920   3.971  18.618  0.00  0.00    +0.000 NA
ENDBRANCH   9  10
ENDBRANCH   6   9
ENDBRANCH   2   3
BRANCH   2  16
ATOM     16  N   UNL     1      47.491   6.377  12.475  0.00  0.00    +0.000 N 
ATOM     17  C   UNL     1      46.385   6.728  11.738  0.00  0.00    +0.000 C 
ATOM     18  O   UNL     1      45.981   7.883  11.653  0.00  0.00    +0.000 OA
ATOM     19  H   UNL     1      47.564   5.407  12.766  0.00  0.00    +0.000 HD
BRANCH  17  20
ATOM     20  C   UNL     1      45.744   5.642  10.986  0.00  0.00    +0.000 A 
ATOM     21  C   UNL     1      45.855   5.608   9.601  0.00  0.00    +0.000 A 
ATOM     22  S   UNL     1      45.067   4.275   8.884  0.00  0.00    +0.000 S 
ATOM     23  C   UNL     1      44.511   3.723  10.394  0.00  0.00    +0.000 A 
ATOM     24  N   UNL     1      43.722   2.619  10.488  0.00  0.00    +0.000 NA
ATOM     25  C   UNL     1      43.352   2.330  11.691  0.00  0.00    +0.000 A 
ATOM     26  N   UNL     1      43.711   3.035  12.809  0.00  0.00    +0.000 N 
ATOM     27  C   UNL     1      44.535   4.134  12.766  0.00  0.00    +0.000 A 
ATOM     28  O   UNL     1      44.889   4.713  13.787  0.00  0.00    +0.000 OA
ATOM     29  C   UNL     1      44.953   4.521  11.433  0.00  0.00    +0.000 A 
ATOM     30  H   UNL     1      43.405   2.747  13.727  0.00  0.00    +0.000 HD
ENDBRANCH  17  20
ENDBRANCH   2  16
TORSDOF 5
ENDMDL
MODEL 4
REMARK VINA RESULT:    -7.536      1.744      2.241
REMARK INTER + INTRA:         -10.345
REMARK INTER:                  -9.349
REMARK INTRA:                  -0.995
REMARK UNBOUND:                -0.607
REMARK  Name = 
REMARK  6 active torsions:
REMARK  status: ('A' for Active; 'I' for Inactive)
REMARK    1  A    between atoms: C_1  and  C_2
REMARK    2  A    between atoms: C_2  and  N_3
REMARK    3  A    between atoms: C_2  and  C_16
REMARK    4  A    between atoms: C_4  and  C_6
REMARK    5  A    between atoms: C_19  and  O_20
REMARK    6  A    between atoms: O_20  and  C_21
REMARK                            x       y       z     vdW  Elec       q    Type
REMARK                         _______ _______ _______ _____ _____    ______ ____
ROOT
ATOM      1  C   UNL     1      48.028   9.485  13.293  0.00  0.00    +0.000 C 
ATOM      2  C   UNL     1      48.113   8.001  13.667  0.00  0.00    +0.000 C 
ENDROOT
BRANCH   2   3
ATOM      3  C   UNL     1      46.990   7.233  12.979  0.00  0.00    +0.000 A 
ATOM      4  C   UNL     1      46.058   7.906  12.178  0.00  0.00    +0.000 A 
ATOM      5  C   UNL     1      45.058   7.196  11.510  0.00  0.00    +0.000 A 
ATOM      6  C   UNL     1      45.005   5.802  11.583  0.00  0.00    +0.000 A 
ATOM      7  C   UNL     1      45.893   5.127  12.418  0.00  0.00    +0.000 A 
ATOM      8  C   UNL     1      46.879   5.837  13.110  0.00  0.00    +0.000 A 
BRANCH   6   9
ATOM      9  O   UNL     1      44.072   5.039  10.915  0.00  0.00    +0.000 OA
BRANCH   9  10
ATOM     10  C   UNL     1      44.532   4.128   9.967  0.00  0.00    +0.000 A 
ATOM     11  C   UNL     1      45.321   4.636   8.947  0.00  0.00    +0.000 A 
ATOM     12  C   UNL     1      45.838   3.743   8.009  0.00  0.00    +0.000 A 
ATOM     13  C   UNL     1      45.549   2.386   8.125  0.00  0.00    +0.000 A 
ATOM     14  C   UNL     1      44.730   1.977   9.161  0.00  0.00    +0.000 A 
ATOM     15  N   UNL     1      44.198   2.820  10.068  0.00  0.00    +0.000 NA
ENDBRANCH   9  10
ENDBRANCH   6   9
ENDBRANCH   2   3
BRANCH   2  16
ATOM     16  N   UNL     1      48.036   7.773  15.100  0.00  0.00    +0.000 N 
ATOM     17  C   UNL     1      49.022   7.151  15.827  0.00  0.00    +0.000 C 
ATOM     18  O   UNL     1      50.078   6.774  15.331  0.00  0.00    +0.000 OA
ATOM     19  H   UNL     1      47.095   7.751  15.482  0.00  0.00    +0.000 HD
BRANCH  17  20
ATOM     20  C   UNL     1      48.775   7.028  17.269  0.00  0.00    +0.000 A 
ATOM     21  C   UNL     1      48.504   8.166  18.020  0.00  0.00    +0.000 A 
ATOM     22  S   UNL     1      48.226   7.845  19.672  0.00  0.00    +0.000 S 
ATOM     23  C   UNL     1      48.504   6.181  19.452  0.00  0.00    +0.000 A 
ATOM     24  N   UNL     1      48.462   5.319  20.503  0.00  0.00    +0.000 NA
ATOM     25  C   UNL     1      48.718   4.092  20.196  0.00  0.00    +0.000 A 
ATOM     26  N   UNL     1      48.997   3.645  18.932  0.00  0.00    +0.000 N 
ATOM     27  C   UNL     1      49.015   4.473  17.835  0.00  0.00    +0.000 A 
ATOM     28  O   UNL     1      49.210   4.039  16.705  0.00  0.00    +0.000 OA
ATOM     29  C   UNL     1      48.766   5.870  18.130  0.00  0.00    +0.000 A 
ATOM     30  H   UNL     1      49.171   2.667  18.751  0.00  0.00    +0.000 HD
ENDBRANCH  17  20
ENDBRANCH   2  16
TORSDOF 5
ENDMDL
MODEL 5
REMARK VINA RESULT:    -7.527      4.043      9.390
REMARK INTER + INTRA:         -10.334
REMARK INTER:                  -9.116
REMARK INTRA:                  -1.218
REMARK UNBOUND:                -0.607
REMARK  Name = 
REMARK  6 active torsions:
REMARK  status: ('A' for Active; 'I' for Inactive)
REMARK    1  A    between atoms: C_1  and  C_2
REMARK    2  A    between atoms: C_2  and  N_3
REMARK    3  A    between atoms: C_2  and  C_16
REMARK    4  A    between atoms: C_4  and  C_6
REMARK    5  A    between atoms: C_19  and  O_20
REMARK    6  A    between atoms: O_20  and  C_21
REMARK                            x       y       z     vdW  Elec       q    Type
REMARK                         _______ _______ _______ _____ _____    ______ ____
ROOT
ATOM      1  C   UNL     1      47.685   3.151  16.757  0.00  0.00    +0.000 C 
ATOM      2  C   UNL     1      48.047   4.529  16.192  0.00  0.00    +0.000 C 
ENDROOT
BRANCH   2   3
ATOM      3  C   UNL     1      48.126   5.544  17.326  0.00  0.00    +0.000 A 
ATOM      4  C   UNL     1      47.326   5.397  18.466  0.00  0.00    +0.000 A 
ATOM      5  C   UNL     1      47.432   6.301  19.526  0.00  0.00    +0.000 A 
ATOM      6  C   UNL     1      48.375   7.331  19.489  0.00  0.00    +0.000 A 
ATOM      7  C   UNL     1      49.138   7.520  18.339  0.00  0.00    +0.000 A 
ATOM      8  C   UNL     1      49.016   6.633  17.266  0.00  0.00    +0.000 A 
BRANCH   6   9
ATOM      9  O   UNL     1      48.562   8.230  20.518  0.00  0.00    +0.000 OA
BRANCH   9  10
ATOM     10  C   UNL     1      47.513   9.094  20.827  0.00  0.00    +0.000 A 
ATOM     11  C   UNL     1      47.083   9.939  19.815  0.00  0.00    +0.000 A 
ATOM     12  C   UNL     1      46.004  10.782  20.077  0.00  0.00    +0.000 A 
ATOM     13  C   UNL     1      45.400  10.750  21.330  0.00  0.00    +0.000 A 
ATOM     14  C   UNL     1      45.917   9.893  22.285  0.00  0.00    +0.000 A 
ATOM     15  N   UNL     1      46.973   9.084  22.068  0.00  0.00    +0.000 NA
ENDBRANCH   9  10
ENDBRANCH   6   9
ENDBRANCH   2   3
BRANCH   2  16
ATOM     16  N   UNL     1      47.098   5.000  15.198  0.00  0.00    +0.000 N 
ATOM     17  C   UNL     1      47.461   5.668  14.053  0.00  0.00    +0.000 C 
ATOM     18  O   UNL     1      48.630   5.885  13.751  0.00  0.00    +0.000 OA
ATOM     19  H   UNL     1      46.153   5.149  15.540  0.00  0.00    +0.000 HD
BRANCH  17  20
ATOM     20  C   UNL     1      46.362   6.049  13.156  0.00  0.00    +0.000 A 
ATOM     21  C   UNL     1      46.164   7.388  12.843  0.00  0.00    +0.000 A 
ATOM     22  S   UNL     1      44.858   7.655  11.779  0.00  0.00    +0.000 S 
ATOM     23  C   UNL     1      44.482   5.997  11.737  0.00  0.00    +0.000 A 
ATOM     24  N   UNL     1      43.417   5.538  11.026  0.00  0.00    +0.000 NA
ATOM     25  C   UNL     1      43.233   4.262  11.104  0.00  0.00    +0.000 A 
ATOM     26  N   UNL     1      44.026   3.402  11.817  0.00  0.00    +0.000 N 
ATOM     27  C   UNL     1      45.132   3.816  12.520  0.00  0.00    +0.000 A 
ATOM     28  O   UNL     1      45.859   3.018  13.103  0.00  0.00    +0.000 OA
ATOM     29  C   UNL     1      45.364   5.246  12.492  0.00  0.00    +0.000 A 
ATOM     30  H   UNL     1      43.843   2.409  11.824  0.00  0.00    +0.000 HD
ENDBRANCH  17  20
ENDBRANCH   2  16
TORSDOF 5
ENDMDL
MODEL 6
REMARK VINA RESULT:    -7.526      2.294      2.949
REMARK INTER + INTRA:         -10.332
REMARK INTER:                  -9.079
REMARK INTRA:                  -1.253
REMARK UNBOUND:                -0.607
REMARK  Name = 
REMARK  6 active torsions:
REMARK  status: ('A' for Active; 'I' for Inactive)
REMARK    1  A    between atoms: C_1  and  C_2
REMARK    2  A    between atoms: C_2  and  N_3
REMARK    3  A    between atoms: C_2  and  C_16
REMARK    4  A    between atoms: C_4  and  C_6
REMARK    5  A    between atoms: C_19  and  O_20
REMARK    6  A    between atoms: O_20  and  C_21
REMARK                            x       y       z     vdW  Elec       q    Type
REMARK                         _______ _______ _______ _____ _____    ______ ____
ROOT
ATOM      1  C   UNL     1      48.036   9.099  14.006  0.00  0.00    +0.000 C 
ATOM      2  C   UNL     1      48.156   7.571  14.022  0.00  0.00    +0.000 C 
ENDROOT
BRANCH   2   3
ATOM      3  C   UNL     1      47.049   6.960  13.170  0.00  0.00    +0.000 A 
ATOM      4  C   UNL     1      46.308   7.760  12.291  0.00  0.00    +0.000 A 
ATOM      5  C   UNL     1      45.326   7.192  11.476  0.00  0.00    +0.000 A 
ATOM      6  C   UNL     1      45.107   5.812  11.483  0.00  0.00    +0.000 A 
ATOM      7  C   UNL     1      45.801   5.014  12.390  0.00  0.00    +0.000 A 
ATOM      8  C   UNL     1      46.765   5.583  13.227  0.00  0.00    +0.000 A 
BRANCH   6   9
ATOM      9  O   UNL     1      44.186   5.182  10.673  0.00  0.00    +0.000 OA
BRANCH   9  10
ATOM     10  C   UNL     1      44.648   4.202   9.798  0.00  0.00    +0.000 A 
ATOM     11  C   UNL     1      45.483   4.623   8.775  0.00  0.00    +0.000 A 
ATOM     12  C   UNL     1      46.002   3.660   7.911  0.00  0.00    +0.000 A 
ATOM     13  C   UNL     1      45.670   2.322   8.100  0.00  0.00    +0.000 A 
ATOM     14  C   UNL     1      44.807   2.001   9.132  0.00  0.00    +0.000 A 
ATOM     15  N   UNL     1      44.273   2.913   9.968  0.00  0.00    +0.000 NA
ENDBRANCH   9  10
ENDBRANCH   6   9
ENDBRANCH   2   3
BRANCH   2  16
ATOM     16  N   UNL     1      48.086   7.012  15.362  0.00  0.00    +0.000 N 
ATOM     17  C   UNL     1      49.174   6.514  16.038  0.00  0.00    +0.000 C 
ATOM     18  O   UNL     1      50.311   6.540  15.580  0.00  0.00    +0.000 OA
ATOM     19  H   UNL     1      47.172   6.666  15.638  0.00  0.00    +0.000 HD
BRANCH  17  20
ATOM     20  C   UNL     1      48.912   6.009  17.392  0.00  0.00    +0.000 A 
ATOM     21  C   UNL     1      49.170   4.677  17.690  0.00  0.00    +0.000 A 
ATOM     22  S   UNL     1      48.826   4.259  19.307  0.00  0.00    +0.000 S 
ATOM     23  C   UNL     1      48.276   5.831  19.654  0.00  0.00    +0.000 A 
ATOM     24  N   UNL     1      47.788   6.147  20.884  0.00  0.00    +0.000 NA
ATOM     25  C   UNL     1      47.382   7.367  20.998  0.00  0.00    +0.000 A 
ATOM     26  N   UNL     1      47.433   8.304  20.000  0.00  0.00    +0.000 N 
ATOM     27  C   UNL     1      47.949   8.039  18.754  0.00  0.00    +0.000 A 
ATOM     28  O   UNL     1      48.037   8.911  17.897  0.00  0.00    +0.000 OA
ATOM     29  C   UNL     1      48.390   6.672  18.562  0.00  0.00    +0.000 A 
ATOM     30  H   UNL     1      47.116   9.250  20.157  0.00  0.00    +0.000 HD
ENDBRANCH  17  20
ENDBRANCH   2  16
TORSDOF 5
ENDMDL
MODEL 7
REMARK VINA RESULT:    -7.419      2.589      4.621
REMARK INTER + INTRA:         -10.194
REMARK INTER:                 -10.242
REMARK INTRA:                   0.048
REMARK UNBOUND:                -0.607
REMARK  Name = 
REMARK  6 active torsions:
REMARK  status: ('A' for Active; 'I' for Inactive)
REMARK    1  A    between atoms: C_1  and  C_2
REMARK    2  A    between atoms: C_2  and  N_3
REMARK    3  A    between atoms: C_2  and  C_16
REMARK    4  A    between atoms: C_4  and  C_6
REMARK    5  A    between atoms: C_19  and  O_20
REMARK    6  A    between atoms: O_20  and  C_21
REMARK                            x       y       z     vdW  Elec       q    Type
REMARK                         _______ _______ _______ _____ _____    ______ ____
ROOT
ATOM      1  C   UNL     1      46.984   4.540  14.427  0.00  0.00    +0.000 C 
ATOM      2  C   UNL     1      45.996   5.493  13.745  0.00  0.00    +0.000 C 
ENDROOT
BRANCH   2   3
ATOM      3  C   UNL     1      45.537   4.894  12.420  0.00  0.00    +0.000 A 
ATOM      4  C   UNL     1      45.605   5.647  11.241  0.00  0.00    +0.000 A 
ATOM      5  C   UNL     1      45.230   5.082  10.019  0.00  0.00    +0.000 A 
ATOM      6  C   UNL     1      44.835   3.744   9.946  0.00  0.00    +0.000 A 
ATOM      7  C   UNL     1      44.712   3.002  11.119  0.00  0.00    +0.000 A 
ATOM      8  C   UNL     1      45.062   3.572  12.346  0.00  0.00    +0.000 A 
BRANCH   6   9
ATOM      9  O   UNL     1      44.493   3.113   8.768  0.00  0.00    +0.000 OA
BRANCH   9  10
ATOM     10  C   UNL     1      45.513   2.523   8.025  0.00  0.00    +0.000 A 
ATOM     11  C   UNL     1      46.037   3.271   6.982  0.00  0.00    +0.000 A 
ATOM     12  C   UNL     1      47.092   2.728   6.249  0.00  0.00    +0.000 A 
ATOM     13  C   UNL     1      47.580   1.468   6.583  0.00  0.00    +0.000 A 
ATOM     14  C   UNL     1      46.974   0.786   7.623  0.00  0.00    +0.000 A 
ATOM     15  N   UNL     1      45.939   1.276   8.333  0.00  0.00    +0.000 NA
ENDBRANCH   9  10
ENDBRANCH   6   9
ENDBRANCH   2   3
BRANCH   2  16
ATOM     16  N   UNL     1      46.557   6.811  13.501  0.00  0.00    +0.000 N 
ATOM     17  C   UNL     1      47.856   7.026  13.108  0.00  0.00    +0.000 C 
ATOM     18  O   UNL     1      48.644   6.113  12.885  0.00  0.00    +0.000 OA
ATOM     19  H   UNL     1      46.085   7.574  13.975  0.00  0.00    +0.000 HD
BRANCH  17  20
ATOM     20  C   UNL     1      48.237   8.427  12.890  0.00  0.00    +0.000 A 
ATOM     21  C   UNL     1      49.558   8.816  13.076  0.00  0.00    +0.000 A 
ATOM     22  S   UNL     1      49.833  10.471  12.768  0.00  0.00    +0.000 S 
ATOM     23  C   UNL     1      48.189  10.736  12.420  0.00  0.00    +0.000 A 
ATOM     24  N   UNL     1      47.729  11.979  12.114  0.00  0.00    +0.000 NA
ATOM     25  C   UNL     1      46.457  12.038  11.900  0.00  0.00    +0.000 A 
ATOM     26  N   UNL     1      45.606  10.966  11.949  0.00  0.00    +0.000 N 
ATOM     27  C   UNL     1      46.031   9.687  12.220  0.00  0.00    +0.000 A 
ATOM     28  O   UNL     1      45.259   8.736  12.201  0.00  0.00    +0.000 OA
ATOM     29  C   UNL     1      47.448   9.571  12.501  0.00  0.00    +0.000 A 
ATOM     30  H   UNL     1      44.621  11.073  11.753  0.00  0.00    +0.000 HD
ENDBRANCH  17  20
ENDBRANCH   2  16
TORSDOF 5
ENDMDL
MODEL 8
REMARK VINA RESULT:    -7.200      2.549      4.330
REMARK INTER + INTRA:          -9.911
REMARK INTER:                  -8.797
REMARK INTRA:                  -1.114
REMARK UNBOUND:                -0.607
REMARK  Name = 
REMARK  6 active torsions:
REMARK  status: ('A' for Active; 'I' for Inactive)
REMARK    1  A    between atoms: C_1  and  C_2
REMARK    2  A    between atoms: C_2  and  N_3
REMARK    3  A    between atoms: C_2  and  C_16
REMARK    4  A    between atoms: C_4  and  C_6
REMARK    5  A    between atoms: C_19  and  O_20
REMARK    6  A    between atoms: O_20  and  C_21
REMARK                            x       y       z     vdW  Elec       q    Type
REMARK                         _______ _______ _______ _____ _____    ______ ____
ROOT
ATOM      1  C   UNL     1      47.064   4.304  15.088  0.00  0.00    +0.000 C 
ATOM      2  C   UNL     1      46.777   5.491  14.161  0.00  0.00    +0.000 C 
ENDROOT
BRANCH   2   3
ATOM      3  C   UNL     1      46.119   4.993  12.879  0.00  0.00    +0.000 A 
ATOM      4  C   UNL     1      46.029   5.827  11.758  0.00  0.00    +0.000 A 
ATOM      5  C   UNL     1      45.469   5.355  10.568  0.00  0.00    +0.000 A 
ATOM      6  C   UNL     1      45.040   4.029  10.461  0.00  0.00    +0.000 A 
ATOM      7  C   UNL     1      45.075   3.207  11.585  0.00  0.00    +0.000 A 
ATOM      8  C   UNL     1      45.611   3.684  12.784  0.00  0.00    +0.000 A 
BRANCH   6   9
ATOM      9  O   UNL     1      44.518   3.488   9.306  0.00  0.00    +0.000 OA
BRANCH   9  10
ATOM     10  C   UNL     1      45.392   2.838   8.437  0.00  0.00    +0.000 A 
ATOM     11  C   UNL     1      45.903   3.588   7.390  0.00  0.00    +0.000 A 
ATOM     12  C   UNL     1      46.818   2.980   6.531  0.00  0.00    +0.000 A 
ATOM     13  C   UNL     1      47.185   1.656   6.749  0.00  0.00    +0.000 A 
ATOM     14  C   UNL     1      46.601   0.980   7.805  0.00  0.00    +0.000 A 
ATOM     15  N   UNL     1      45.697   1.534   8.637  0.00  0.00    +0.000 NA
ENDBRANCH   9  10
ENDBRANCH   6   9
ENDBRANCH   2   3
BRANCH   2  16
ATOM     16  N   UNL     1      47.972   6.243  13.818  0.00  0.00    +0.000 N 
ATOM     17  C   UNL     1      48.567   7.154  14.659  0.00  0.00    +0.000 C 
ATOM     18  O   UNL     1      48.160   7.376  15.795  0.00  0.00    +0.000 OA
ATOM     19  H   UNL     1      48.142   6.353  12.824  0.00  0.00    +0.000 HD
BRANCH  17  20
ATOM     20  C   UNL     1      49.780   7.803  14.148  0.00  0.00    +0.000 A 
ATOM     21  C   UNL     1      50.980   7.656  14.833  0.00  0.00    +0.000 A 
ATOM     22  S   UNL     1      52.291   8.460  14.097  0.00  0.00    +0.000 S 
ATOM     23  C   UNL     1      51.294   9.072  12.862  0.00  0.00    +0.000 A 
ATOM     24  N   UNL     1      51.795   9.894  11.901  0.00  0.00    +0.000 NA
ATOM     25  C   UNL     1      50.921  10.304  11.043  0.00  0.00    +0.000 A 
ATOM     26  N   UNL     1      49.596   9.955  11.051  0.00  0.00    +0.000 N 
ATOM     27  C   UNL     1      49.054   9.101  11.981  0.00  0.00    +0.000 A 
ATOM     28  O   UNL     1      47.878   8.759  11.932  0.00  0.00    +0.000 OA
ATOM     29  C   UNL     1      49.988   8.637  12.988  0.00  0.00    +0.000 A 
ATOM     30  H   UNL     1      48.964  10.294  10.340  0.00  0.00    +0.000 HD
ENDBRANCH  17  20
ENDBRANCH   2  16
TORSDOF 5
ENDMDL
MODEL 9
REMARK VINA RESULT:    -6.977      4.057      9.639
REMARK INTER + INTRA:          -9.623
REMARK INTER:                  -8.457
REMARK INTRA:                  -1.165
REMARK UNBOUND:                -0.607
REMARK  Name = 
REMARK  6 active torsions:
REMARK  status: ('A' for Active; 'I' for Inactive)
REMARK    1  A    between atoms: C_1  and  C_2
REMARK    2  A    between atoms: C_2  and  N_3
REMARK    3  A    between atoms: C_2  and  C_16
REMARK    4  A    between atoms: C_4  and  C_6
REMARK    5  A    between atoms: C_19  and  O_20
REMARK    6  A    between atoms: O_20  and  C_21
REMARK                            x       y       z     vdW  Elec       q    Type
REMARK                         _______ _______ _______ _____ _____    ______ ____
ROOT
ATOM      1  C   UNL     1      47.314   3.062  17.387  0.00  0.00    +0.000 C 
ATOM      2  C   UNL     1      47.833   4.305  16.655  0.00  0.00    +0.000 C 
ENDROOT
BRANCH   2   3
ATOM      3  C   UNL     1      48.009   5.448  17.648  0.00  0.00    +0.000 A 
ATOM      4  C   UNL     1      47.168   5.556  18.763  0.00  0.00    +0.000 A 
ATOM      5  C   UNL     1      47.361   6.576  19.698  0.00  0.00    +0.000 A 
ATOM      6  C   UNL     1      48.427   7.470  19.566  0.00  0.00    +0.000 A 
ATOM      7  C   UNL     1      49.236   7.406  18.434  0.00  0.00    +0.000 A 
ATOM      8  C   UNL     1      49.031   6.402  17.483  0.00  0.00    +0.000 A 
BRANCH   6   9
ATOM      9  O   UNL     1      48.698   8.471  20.474  0.00  0.00    +0.000 OA
BRANCH   9  10
ATOM     10  C   UNL     1      47.657   9.323  20.836  0.00  0.00    +0.000 A 
ATOM     11  C   UNL     1      47.329  10.324  19.935  0.00  0.00    +0.000 A 
ATOM     12  C   UNL     1      46.260  11.163  20.246  0.00  0.00    +0.000 A 
ATOM     13  C   UNL     1      45.564  10.972  21.436  0.00  0.00    +0.000 A 
ATOM     14  C   UNL     1      45.983   9.963  22.285  0.00  0.00    +0.000 A 
ATOM     15  N   UNL     1      47.027   9.152  22.021  0.00  0.00    +0.000 NA
ENDBRANCH   9  10
ENDBRANCH   6   9
ENDBRANCH   2   3
BRANCH   2  16
ATOM     16  N   UNL     1      46.953   4.739  15.583  0.00  0.00    +0.000 N 
ATOM     17  C   UNL     1      46.908   4.143  14.346  0.00  0.00    +0.000 C 
ATOM     18  O   UNL     1      47.581   3.160  14.055  0.00  0.00    +0.000 OA
ATOM     19  H   UNL     1      46.644   5.704  15.643  0.00  0.00    +0.000 HD
BRANCH  17  20
ATOM     20  C   UNL     1      45.941   4.708  13.397  0.00  0.00    +0.000 A 
ATOM     21  C   UNL     1      44.992   3.880  12.808  0.00  0.00    +0.000 A 
ATOM     22  S   UNL     1      43.938   4.697  11.744  0.00  0.00    +0.000 S 
ATOM     23  C   UNL     1      44.740   6.175  11.996  0.00  0.00    +0.000 A 
ATOM     24  N   UNL     1      44.358   7.301  11.335  0.00  0.00    +0.000 NA
ATOM     25  C   UNL     1      45.071   8.344  11.602  0.00  0.00    +0.000 A 
ATOM     26  N   UNL     1      46.122   8.366  12.481  0.00  0.00    +0.000 N 
ATOM     27  C   UNL     1      46.521   7.263  13.196  0.00  0.00    +0.000 A 
ATOM     28  O   UNL     1      47.428   7.324  14.019  0.00  0.00    +0.000 OA
ATOM     29  C   UNL     1      45.773   6.056  12.908  0.00  0.00    +0.000 A 
ATOM     30  H   UNL     1      46.631   9.220  12.662  0.00  0.00    +0.000 HD
ENDBRANCH  17  20
ENDBRANCH   2  16
TORSDOF 5
ENDMDL
