MODEL 1
REMARK VINA RESULT:    -7.043      0.000      0.000
REMARK INTER + INTRA:          -9.465
REMARK INTER:                  -8.896
REMARK INTRA:                  -0.569
REMARK UNBOUND:                -0.569
REMARK  Name = 
REMARK  5 active torsions:
REMARK  status: ('A' for Active; 'I' for Inactive)
REMARK    1  A    between atoms: O_1  and  C_2
REMARK    2  A    between atoms: C_5  and  O_6
REMARK    3  A    between atoms: O_6  and  C_7
REMARK    4  A    between atoms: C_7  and  C_8
REMARK    5  A    between atoms: C_12  and  C_13
REMARK                            x       y       z     vdW  Elec       q    Type
REMARK                         _______ _______ _______ _____ _____    ______ ____
ROOT
ATOM      1  C   UNL     1      43.768   4.802  11.418  0.00  0.00    +0.000 C 
ATOM      2  C   UNL     1      42.481   5.161  12.156  0.00  0.00    +0.000 C 
ATOM      3  C   UNL     1      42.950   6.013  11.019  0.00  0.00    +0.000 C 
ENDROOT
BRANCH   1   4
ATOM      4  C   UNL     1      45.111   5.039  12.115  0.00  0.00    +0.000 A 
ATOM      5  C   UNL     1      45.637   4.105  13.023  0.00  0.00    +0.000 A 
ATOM      6  C   UNL     1      46.864   4.295  13.652  0.00  0.00    +0.000 A 
ATOM      7  C   UNL     1      47.620   5.426  13.366  0.00  0.00    +0.000 A 
ATOM      8  C   UNL     1      47.163   6.393  12.454  0.00  0.00    +0.000 A 
ATOM      9  C   UNL     1      45.901   6.177  11.857  0.00  0.00    +0.000 A 
BRANCH   8  10
ATOM     10  C   UNL     1      47.976   7.586  12.129  0.00  0.00    +0.000 A 
ATOM     11  C   UNL     1      49.328   7.492  11.762  0.00  0.00    +0.000 A 
ATOM     12  C   UNL     1      50.070   8.632  11.466  0.00  0.00    +0.000 A 
ATOM     13  C   UNL     1      49.440   9.861  11.531  0.00  0.00    +0.000 A 
ATOM     14  N   UNL     1      48.147  10.016  11.877  0.00  0.00    +0.000 NA
ATOM     15  C   UNL     1      47.457   8.884  12.168  0.00  0.00    +0.000 A 
ENDBRANCH   8  10
ENDBRANCH   1   4
BRANCH   1  16
ATOM     16  O   UNL     1      43.591   3.579  10.646  0.00  0.00    +0.000 OA
BRANCH  16  20
ATOM     17  C   UNL     1      46.081   2.959   7.526  0.00  0.00    +0.000 A 
ATOM     18  C   UNL     1      45.863   1.947   8.447  0.00  0.00    +0.000 A 
ATOM     19  N   UNL     1      45.091   2.114   9.548  0.00  0.00    +0.000 NA
ATOM     20  C   UNL     1      44.534   3.338   9.668  0.00  0.00    +0.000 A 
ATOM     21  C   UNL     1      44.832   4.378   8.795  0.00  0.00    +0.000 A 
ATOM     22  N   UNL     1      45.612   4.210   7.700  0.00  0.00    +0.000 NA
BRANCH  17  23
ATOM     23  O   UNL     1      46.735   2.738   6.351  0.00  0.00    +0.000 OA
ATOM     24  H   UNL     1      46.062   2.588   5.671  0.00  0.00    +0.000 HD
ENDBRANCH  17  23
ENDBRANCH  16  20
ENDBRANCH   1  16
TORSDOF 5
ENDMDL
MODEL 2
REMARK VINA RESULT:    -7.033      2.811      6.570
REMARK INTER + INTRA:          -9.452
REMARK INTER:                  -9.225
REMARK INTRA:                  -0.227
REMARK UNBOUND:                -0.569
REMARK  Name = 
REMARK  5 active torsions:
REMARK  status: ('A' for Active; 'I' for Inactive)
REMARK    1  A    between atoms: O_1  and  C_2
REMARK    2  A    between atoms: C_5  and  O_6
REMARK    3  A    between atoms: O_6  and  C_7
REMARK    4  A    between atoms: C_7  and  C_8
REMARK    5  A    between atoms: C_12  and  C_13
REMARK                            x       y       z     vdW  Elec       q    Type
REMARK                         _______ _______ _______ _____ _____    ______ ____
ROOT
ATOM      1  C   UNL     1      46.507   7.257  12.446  0.00  0.00    +0.000 C 
ATOM      2  C   UNL     1      46.713   8.701  11.997  0.00  0.00    +0.000 C 
ATOM      3  C   UNL     1      45.944   8.413  13.247  0.00  0.00    +0.000 C 
ENDROOT
BRANCH   1   4
ATOM      4  C   UNL     1      45.526   6.374  11.670  0.00  0.00    +0.000 A 
ATOM      5  C   UNL     1      44.138   6.490  11.853  0.00  0.00    +0.000 A 
ATOM      6  C   UNL     1      43.230   5.709  11.143  0.00  0.00    +0.000 A 
ATOM      7  C   UNL     1      43.692   4.798  10.200  0.00  0.00    +0.000 A 
ATOM      8  C   UNL     1      45.066   4.643   9.953  0.00  0.00    +0.000 A 
ATOM      9  C   UNL     1      45.956   5.434  10.712  0.00  0.00    +0.000 A 
BRANCH   8  10
ATOM     10  C   UNL     1      45.559   3.691   8.933  0.00  0.00    +0.000 A 
ATOM     11  C   UNL     1      46.137   4.120   7.727  0.00  0.00    +0.000 A 
ATOM     12  C   UNL     1      46.588   3.201   6.783  0.00  0.00    +0.000 A 
ATOM     13  C   UNL     1      46.464   1.853   7.066  0.00  0.00    +0.000 A 
ATOM     14  N   UNL     1      45.919   1.380   8.204  0.00  0.00    +0.000 NA
ATOM     15  C   UNL     1      45.481   2.304   9.097  0.00  0.00    +0.000 A 
ENDBRANCH   8  10
ENDBRANCH   1   4
BRANCH   1  16
ATOM     16  O   UNL     1      47.767   6.675  12.889  0.00  0.00    +0.000 OA
BRANCH  16  20
ATOM     17  C   UNL     1      47.178   4.280  16.089  0.00  0.00    +0.000 A 
ATOM     18  C   UNL     1      48.081   5.328  16.168  0.00  0.00    +0.000 A 
ATOM     19  N   UNL     1      48.370   6.125  15.112  0.00  0.00    +0.000 NA
ATOM     20  C   UNL     1      47.695   5.833  13.980  0.00  0.00    +0.000 A 
ATOM     21  C   UNL     1      46.863   4.723  13.878  0.00  0.00    +0.000 A 
ATOM     22  N   UNL     1      46.584   3.921  14.935  0.00  0.00    +0.000 NA
BRANCH  17  23
ATOM     23  O   UNL     1      46.786   3.580  17.190  0.00  0.00    +0.000 OA
ATOM     24  H   UNL     1      46.145   4.128  17.667  0.00  0.00    +0.000 HD
ENDBRANCH  17  23
ENDBRANCH  16  20
ENDBRANCH   1  16
TORSDOF 5
ENDMDL
MODEL 3
REMARK VINA RESULT:    -6.726      2.296      3.814
REMARK INTER + INTRA:          -9.064
REMARK INTER:                  -8.824
REMARK INTRA:                  -0.240
REMARK UNBOUND:                -0.569
REMARK  Name = 
REMARK  5 active torsions:
REMARK  status: ('A' for Active; 'I' for Inactive)
REMARK    1  A    between atoms: O_1  and  C_2
REMARK    2  A    between atoms: C_5  and  O_6
REMARK    3  A    between atoms: O_6  and  C_7
REMARK    4  A    between atoms: C_7  and  C_8
REMARK    5  A    between atoms: C_12  and  C_13
REMARK                            x       y       z     vdW  Elec       q    Type
REMARK                         _______ _______ _______ _____ _____    ______ ____
ROOT
ATOM      1  C   UNL     1      44.077   4.828  11.757  0.00  0.00    +0.000 C 
ATOM      2  C   UNL     1      42.797   5.120  12.535  0.00  0.00    +0.000 C 
ATOM      3  C   UNL     1      43.092   5.873  11.276  0.00  0.00    +0.000 C 
ENDROOT
BRANCH   1   4
ATOM      4  C   UNL     1      45.415   5.308  12.327  0.00  0.00    +0.000 A 
ATOM      5  C   UNL     1      46.167   6.303  11.681  0.00  0.00    +0.000 A 
ATOM      6  C   UNL     1      47.377   6.766  12.193  0.00  0.00    +0.000 A 
ATOM      7  C   UNL     1      47.858   6.257  13.394  0.00  0.00    +0.000 A 
ATOM      8  C   UNL     1      47.148   5.273  14.102  0.00  0.00    +0.000 A 
ATOM      9  C   UNL     1      45.939   4.811  13.536  0.00  0.00    +0.000 A 
BRANCH   8  10
ATOM     10  C   UNL     1      47.646   4.748  15.393  0.00  0.00    +0.000 A 
ATOM     11  C   UNL     1      47.375   3.439  15.821  0.00  0.00    +0.000 A 
ATOM     12  C   UNL     1      47.853   2.972  17.043  0.00  0.00    +0.000 A 
ATOM     13  C   UNL     1      48.613   3.827  17.821  0.00  0.00    +0.000 A 
ATOM     14  N   UNL     1      48.907   5.092  17.464  0.00  0.00    +0.000 NA
ATOM     15  C   UNL     1      48.416   5.516  16.271  0.00  0.00    +0.000 A 
ENDBRANCH   8  10
ENDBRANCH   1   4
BRANCH   1  16
ATOM     16  O   UNL     1      44.014   3.506  11.148  0.00  0.00    +0.000 OA
BRANCH  16  20
ATOM     17  C   UNL     1      46.078   2.990   7.714  0.00  0.00    +0.000 A 
ATOM     18  C   UNL     1      45.598   4.246   8.049  0.00  0.00    +0.000 A 
ATOM     19  N   UNL     1      44.846   4.470   9.152  0.00  0.00    +0.000 NA
ATOM     20  C   UNL     1      44.615   3.378   9.912  0.00  0.00    +0.000 A 
ATOM     21  C   UNL     1      45.015   2.105   9.523  0.00  0.00    +0.000 A 
ATOM     22  N   UNL     1      45.760   1.883   8.413  0.00  0.00    +0.000 NA
BRANCH  17  23
ATOM     23  O   UNL     1      46.953   2.800   6.687  0.00  0.00    +0.000 OA
ATOM     24  H   UNL     1      47.177   3.674   6.335  0.00  0.00    +0.000 HD
ENDBRANCH  17  23
ENDBRANCH  16  20
ENDBRANCH   1  16
TORSDOF 5
ENDMDL
MODEL 4
REMARK VINA RESULT:    -6.597      3.407      6.988
REMARK INTER + INTRA:          -8.901
REMARK INTER:                  -8.385
REMARK INTRA:                  -0.515
REMARK UNBOUND:                -0.569
REMARK  Name = 
REMARK  5 active torsions:
REMARK  status: ('A' for Active; 'I' for Inactive)
REMARK    1  A    between atoms: O_1  and  C_2
REMARK    2  A    between atoms: C_5  and  O_6
REMARK    3  A    between atoms: O_6  and  C_7
REMARK    4  A    between atoms: C_7  and  C_8
REMARK    5  A    between atoms: C_12  and  C_13
REMARK                            x       y       z     vdW  Elec       q    Type
REMARK                         _______ _______ _______ _____ _____    ______ ____
ROOT
ATOM      1  C   UNL     1      48.628   7.691  13.398  0.00  0.00    +0.000 C 
ATOM      2  C   UNL     1      49.708   8.537  12.731  0.00  0.00    +0.000 C 
ATOM      3  C   UNL     1      49.042   9.029  13.976  0.00  0.00    +0.000 C 
ENDROOT
BRANCH   1   4
ATOM      4  C   UNL     1      47.252   7.590  12.733  0.00  0.00    +0.000 A 
ATOM      5  C   UNL     1      46.302   8.617  12.862  0.00  0.00    +0.000 A 
ATOM      6  C   UNL     1      45.053   8.551  12.250  0.00  0.00    +0.000 A 
ATOM      7  C   UNL     1      44.727   7.453  11.462  0.00  0.00    +0.000 A 
ATOM      8  C   UNL     1      45.637   6.398  11.275  0.00  0.00    +0.000 A 
ATOM      9  C   UNL     1      46.883   6.490  11.934  0.00  0.00    +0.000 A 
BRANCH   8  10
ATOM     10  C   UNL     1      45.302   5.240  10.417  0.00  0.00    +0.000 A 
ATOM     11  C   UNL     1      45.772   5.125   9.099  0.00  0.00    +0.000 A 
ATOM     12  C   UNL     1      45.437   4.026   8.313  0.00  0.00    +0.000 A 
ATOM     13  C   UNL     1      44.637   3.042   8.865  0.00  0.00    +0.000 A 
ATOM     14  N   UNL     1      44.155   3.095  10.122  0.00  0.00    +0.000 NA
ATOM     15  C   UNL     1      44.494   4.185  10.857  0.00  0.00    +0.000 A 
ENDBRANCH   8  10
ENDBRANCH   1   4
BRANCH   1  16
ATOM     16  O   UNL     1      49.208   6.490  13.984  0.00  0.00    +0.000 OA
BRANCH  16  20
ATOM     17  C   UNL     1      47.432   4.674  17.125  0.00  0.00    +0.000 A 
ATOM     18  C   UNL     1      47.123   4.278  15.834  0.00  0.00    +0.000 A 
ATOM     19  N   UNL     1      47.636   4.890  14.740  0.00  0.00    +0.000 NA
ATOM     20  C   UNL     1      48.486   5.904  15.004  0.00  0.00    +0.000 A 
ATOM     21  C   UNL     1      48.718   6.360  16.297  0.00  0.00    +0.000 A 
ATOM     22  N   UNL     1      48.196   5.751  17.389  0.00  0.00    +0.000 NA
BRANCH  17  23
ATOM     23  O   UNL     1      47.029   3.962  18.215  0.00  0.00    +0.000 OA
ATOM     24  H   UNL     1      46.244   4.402  18.572  0.00  0.00    +0.000 HD
ENDBRANCH  17  23
ENDBRANCH  16  20
ENDBRANCH   1  16
TORSDOF 5
ENDMDL
MODEL 5
REMARK VINA RESULT:    -6.295      1.648      2.393
REMARK INTER + INTRA:          -8.520
REMARK INTER:                  -8.094
REMARK INTRA:                  -0.426
REMARK UNBOUND:                -0.569
REMARK  Name = 
REMARK  5 active torsions:
REMARK  status: ('A' for Active; 'I' for Inactive)
REMARK    1  A    between atoms: O_1  and  C_2
REMARK    2  A    between atoms: C_5  and  O_6
REMARK    3  A    between atoms: O_6  and  C_7
REMARK    4  A    between atoms: C_7  and  C_8
REMARK    5  A    between atoms: C_12  and  C_13
REMARK                            x       y       z     vdW  Elec       q    Type
REMARK                         _______ _______ _______ _____ _____    ______ ____
ROOT
ATOM      1  C   UNL     1      44.112   4.899  12.101  0.00  0.00    +0.000 C 
ATOM      2  C   UNL     1      42.869   4.774  12.977  0.00  0.00    +0.000 C 
ATOM      3  C   UNL     1      42.796   5.521  11.683  0.00  0.00    +0.000 C 
ENDROOT
BRANCH   1   4
ATOM      4  C   UNL     1      45.240   5.835  12.548  0.00  0.00    +0.000 A 
ATOM      5  C   UNL     1      46.367   5.346  13.228  0.00  0.00    +0.000 A 
ATOM      6  C   UNL     1      47.411   6.178  13.625  0.00  0.00    +0.000 A 
ATOM      7  C   UNL     1      47.365   7.535  13.325  0.00  0.00    +0.000 A 
ATOM      8  C   UNL     1      46.275   8.088  12.631  0.00  0.00    +0.000 A 
ATOM      9  C   UNL     1      45.225   7.216  12.269  0.00  0.00    +0.000 A 
BRANCH   8  10
ATOM     10  C   UNL     1      46.236   9.528  12.290  0.00  0.00    +0.000 A 
ATOM     11  C   UNL     1      45.053  10.167  11.885  0.00  0.00    +0.000 A 
ATOM     12  C   UNL     1      45.046  11.523  11.566  0.00  0.00    +0.000 A 
ATOM     13  C   UNL     1      46.231  12.228  11.667  0.00  0.00    +0.000 A 
ATOM     14  N   UNL     1      47.397  11.671  12.050  0.00  0.00    +0.000 NA
ATOM     15  C   UNL     1      47.369  10.346  12.344  0.00  0.00    +0.000 A 
ENDBRANCH   8  10
ENDBRANCH   1   4
BRANCH   1  16
ATOM     16  O   UNL     1      44.466   3.608  11.526  0.00  0.00    +0.000 OA
BRANCH  16  20
ATOM     17  C   UNL     1      45.879   3.393   7.748  0.00  0.00    +0.000 A 
ATOM     18  C   UNL     1      45.806   4.620   8.388  0.00  0.00    +0.000 A 
ATOM     19  N   UNL     1      45.282   4.766   9.629  0.00  0.00    +0.000 NA
ATOM     20  C   UNL     1      44.855   3.621  10.202  0.00  0.00    +0.000 A 
ATOM     21  C   UNL     1      44.841   2.409   9.519  0.00  0.00    +0.000 A 
ATOM     22  N   UNL     1      45.357   2.269   8.274  0.00  0.00    +0.000 NA
BRANCH  17  23
ATOM     23  O   UNL     1      46.538   3.233   6.566  0.00  0.00    +0.000 OA
ATOM     24  H   UNL     1      45.919   2.822   5.945  0.00  0.00    +0.000 HD
ENDBRANCH  17  23
ENDBRANCH  16  20
ENDBRANCH   1  16
TORSDOF 5
ENDMDL
MODEL 6
REMARK VINA RESULT:    -6.111      4.576      7.834
REMARK INTER + INTRA:          -8.287
REMARK INTER:                  -7.941
REMARK INTRA:                  -0.347
REMARK UNBOUND:                -0.569
REMARK  Name = 
REMARK  5 active torsions:
REMARK  status: ('A' for Active; 'I' for Inactive)
REMARK    1  A    between atoms: O_1  and  C_2
REMARK    2  A    between atoms: C_5  and  O_6
REMARK    3  A    between atoms: O_6  and  C_7
REMARK    4  A    between atoms: C_7  and  C_8
REMARK    5  A    between atoms: C_12  and  C_13
REMARK                            x       y       z     vdW  Elec       q    Type
REMARK                         _______ _______ _______ _____ _____    ______ ____
ROOT
ATOM      1  C   UNL     1      49.241   7.263  15.359  0.00  0.00    +0.000 C 
ATOM      2  C   UNL     1      49.891   8.583  15.760  0.00  0.00    +0.000 C 
ATOM      3  C   UNL     1      48.585   8.182  16.369  0.00  0.00    +0.000 C 
ENDROOT
BRANCH   1   4
ATOM      4  C   UNL     1      48.600   7.145  13.973  0.00  0.00    +0.000 A 
ATOM      5  C   UNL     1      49.170   7.769  12.850  0.00  0.00    +0.000 A 
ATOM      6  C   UNL     1      48.612   7.657  11.579  0.00  0.00    +0.000 A 
ATOM      7  C   UNL     1      47.469   6.888  11.391  0.00  0.00    +0.000 A 
ATOM      8  C   UNL     1      46.857   6.222  12.466  0.00  0.00    +0.000 A 
ATOM      9  C   UNL     1      47.438   6.381  13.744  0.00  0.00    +0.000 A 
BRANCH   8  10
ATOM     10  C   UNL     1      45.655   5.384  12.265  0.00  0.00    +0.000 A 
ATOM     11  C   UNL     1      44.947   5.371  11.052  0.00  0.00    +0.000 A 
ATOM     12  C   UNL     1      43.816   4.575  10.892  0.00  0.00    +0.000 A 
ATOM     13  C   UNL     1      43.412   3.787  11.954  0.00  0.00    +0.000 A 
ATOM     14  N   UNL     1      44.048   3.756  13.141  0.00  0.00    +0.000 NA
ATOM     15  C   UNL     1      45.141   4.551  13.264  0.00  0.00    +0.000 A 
ENDBRANCH   8  10
ENDBRANCH   1   4
BRANCH   1  16
ATOM     16  O   UNL     1      50.013   6.137  15.867  0.00  0.00    +0.000 OA
BRANCH  16  20
ATOM     17  C   UNL     1      48.600   3.787  18.833  0.00  0.00    +0.000 A 
ATOM     18  C   UNL     1      48.029   3.725  17.572  0.00  0.00    +0.000 A 
ATOM     19  N   UNL     1      48.415   4.532  16.555  0.00  0.00    +0.000 NA
ATOM     20  C   UNL     1      49.413   5.389  16.859  0.00  0.00    +0.000 A 
ATOM     21  C   UNL     1      49.916   5.514  18.149  0.00  0.00    +0.000 A 
ATOM     22  N   UNL     1      49.521   4.711  19.167  0.00  0.00    +0.000 NA
BRANCH  17  23
ATOM     23  O   UNL     1      48.309   2.876  19.803  0.00  0.00    +0.000 OA
ATOM     24  H   UNL     1      47.784   3.331  20.478  0.00  0.00    +0.000 HD
ENDBRANCH  17  23
ENDBRANCH  16  20
ENDBRANCH   1  16
TORSDOF 5
ENDMDL
MODEL 7
REMARK VINA RESULT:    -5.696      5.211      7.782
REMARK INTER + INTRA:          -7.763
REMARK INTER:                  -8.006
REMARK INTRA:                   0.243
REMARK UNBOUND:                -0.569
REMARK  Name = 
REMARK  5 active torsions:
REMARK  status: ('A' for Active; 'I' for Inactive)
REMARK    1  A    between atoms: O_1  and  C_2
REMARK    2  A    between atoms: C_5  and  O_6
REMARK    3  A    between atoms: O_6  and  C_7
REMARK    4  A    between atoms: C_7  and  C_8
REMARK    5  A    between atoms: C_12  and  C_13
REMARK                            x       y       z     vdW  Elec       q    Type
REMARK                         _______ _______ _______ _____ _____    ______ ____
ROOT
ATOM      1  C   UNL     1      48.212   4.801  17.179  0.00  0.00    +0.000 C 
ATOM      2  C   UNL     1      47.069   5.003  18.169  0.00  0.00    +0.000 C 
ATOM      3  C   UNL     1      47.248   3.677  17.499  0.00  0.00    +0.000 C 
ENDROOT
BRANCH   1   4
ATOM      4  C   UNL     1      48.119   5.456  15.798  0.00  0.00    +0.000 A 
ATOM      5  C   UNL     1      48.966   6.517  15.435  0.00  0.00    +0.000 A 
ATOM      6  C   UNL     1      48.908   7.113  14.177  0.00  0.00    +0.000 A 
ATOM      7  C   UNL     1      48.008   6.640  13.229  0.00  0.00    +0.000 A 
ATOM      8  C   UNL     1      47.143   5.570  13.519  0.00  0.00    +0.000 A 
ATOM      9  C   UNL     1      47.214   5.010  14.814  0.00  0.00    +0.000 A 
BRANCH   8  10
ATOM     10  C   UNL     1      46.201   5.050  12.504  0.00  0.00    +0.000 A 
ATOM     11  C   UNL     1      45.898   5.760  11.331  0.00  0.00    +0.000 A 
ATOM     12  C   UNL     1      45.005   5.247  10.394  0.00  0.00    +0.000 A 
ATOM     13  C   UNL     1      44.429   4.015  10.642  0.00  0.00    +0.000 A 
ATOM     14  N   UNL     1      44.679   3.286  11.747  0.00  0.00    +0.000 NA
ATOM     15  C   UNL     1      45.548   3.821  12.643  0.00  0.00    +0.000 A 
ENDBRANCH   8  10
ENDBRANCH   1   4
BRANCH   1  16
ATOM     16  O   UNL     1      49.494   4.812  17.869  0.00  0.00    +0.000 OA
BRANCH  16  20
ATOM     17  C   UNL     1      51.691   1.458  17.376  0.00  0.00    +0.000 A 
ATOM     18  C   UNL     1      52.287   2.606  17.872  0.00  0.00    +0.000 A 
ATOM     19  N   UNL     1      51.621   3.778  18.000  0.00  0.00    +0.000 NA
ATOM     20  C   UNL     1      50.324   3.737  17.624  0.00  0.00    +0.000 A 
ATOM     21  C   UNL     1      49.758   2.611  17.038  0.00  0.00    +0.000 A 
ATOM     22  N   UNL     1      50.430   1.442  16.903  0.00  0.00    +0.000 NA
BRANCH  17  23
ATOM     23  O   UNL     1      52.325   0.251  17.390  0.00  0.00    +0.000 OA
ATOM     24  H   UNL     1      53.119   0.337  16.843  0.00  0.00    +0.000 HD
ENDBRANCH  17  23
ENDBRANCH  16  20
ENDBRANCH   1  16
TORSDOF 5
ENDMDL
MODEL 8
REMARK VINA RESULT:    -5.494      3.695      5.838
REMARK INTER + INTRA:          -7.508
REMARK INTER:                  -7.050
REMARK INTRA:                  -0.458
REMARK UNBOUND:                -0.569
REMARK  Name = 
REMARK  5 active torsions:
REMARK  status: ('A' for Active; 'I' for Inactive)
REMARK    1  A    between atoms: O_1  and  C_2
REMARK    2  A    between atoms: C_5  and  O_6
REMARK    3  A    between atoms: O_6  and  C_7
REMARK    4  A    between atoms: C_7  and  C_8
REMARK    5  A    between atoms: C_12  and  C_13
REMARK                            x       y       z     vdW  Elec       q    Type
REMARK                         _______ _______ _______ _____ _____    ______ ____
ROOT
ATOM      1  C   UNL     1      47.584   8.012  12.758  0.00  0.00    +0.000 C 
ATOM      2  C   UNL     1      48.263   9.028  11.844  0.00  0.00    +0.000 C 
ATOM      3  C   UNL     1      48.550   7.569  11.678  0.00  0.00    +0.000 C 
ENDROOT
BRANCH   1   4
ATOM      4  C   UNL     1      48.041   7.909  14.216  0.00  0.00    +0.000 A 
ATOM      5  C   UNL     1      48.084   9.040  15.049  0.00  0.00    +0.000 A 
ATOM      6  C   UNL     1      48.478   8.962  16.382  0.00  0.00    +0.000 A 
ATOM      7  C   UNL     1      48.819   7.731  16.931  0.00  0.00    +0.000 A 
ATOM      8  C   UNL     1      48.780   6.556  16.161  0.00  0.00    +0.000 A 
ATOM      9  C   UNL     1      48.400   6.681  14.806  0.00  0.00    +0.000 A 
BRANCH   8  10
ATOM     10  C   UNL     1      49.119   5.242  16.749  0.00  0.00    +0.000 A 
ATOM     11  C   UNL     1      48.216   4.166  16.745  0.00  0.00    +0.000 A 
ATOM     12  C   UNL     1      48.561   2.941  17.310  0.00  0.00    +0.000 A 
ATOM     13  C   UNL     1      49.819   2.805  17.868  0.00  0.00    +0.000 A 
ATOM     14  N   UNL     1      50.728   3.799  17.903  0.00  0.00    +0.000 NA
ATOM     15  C   UNL     1      50.354   4.982  17.351  0.00  0.00    +0.000 A 
ENDBRANCH   8  10
ENDBRANCH   1   4
BRANCH   1  16
ATOM     16  O   UNL     1      46.159   7.935  12.467  0.00  0.00    +0.000 OA
BRANCH  16  20
ATOM     17  C   UNL     1      45.052   4.137  11.647  0.00  0.00    +0.000 A 
ATOM     18  C   UNL     1      45.240   5.040  10.613  0.00  0.00    +0.000 A 
ATOM     19  N   UNL     1      45.547   6.341  10.826  0.00  0.00    +0.000 NA
ATOM     20  C   UNL     1      45.677   6.688  12.124  0.00  0.00    +0.000 A 
ATOM     21  C   UNL     1      45.394   5.804  13.160  0.00  0.00    +0.000 A 
ATOM     22  N   UNL     1      45.077   4.504  12.943  0.00  0.00    +0.000 NA
BRANCH  17  23
ATOM     23  O   UNL     1      44.889   2.803  11.422  0.00  0.00    +0.000 OA
ATOM     24  H   UNL     1      43.944   2.650  11.273  0.00  0.00    +0.000 HD
ENDBRANCH  17  23
ENDBRANCH  16  20
ENDBRANCH   1  16
TORSDOF 5
ENDMDL
MODEL 9
REMARK VINA RESULT:    -5.323      5.315      8.611
REMARK INTER + INTRA:          -7.292
REMARK INTER:                  -6.915
REMARK INTRA:                  -0.377
REMARK UNBOUND:                -0.569
REMARK  Name = 
REMARK  5 active torsions:
REMARK  status: ('A' for Active; 'I' for Inactive)
REMARK    1  A    between atoms: O_1  and  C_2
REMARK    2  A    between atoms: C_5  and  O_6
REMARK    3  A    between atoms: O_6  and  C_7
REMARK    4  A    between atoms: C_7  and  C_8
REMARK    5  A    between atoms: C_12  and  C_13
REMARK                            x       y       z     vdW  Elec       q    Type
REMARK                         _______ _______ _______ _____ _____    ______ ____
ROOT
ATOM      1  C   UNL     1      47.846   4.313  17.038  0.00  0.00    +0.000 C 
ATOM      2  C   UNL     1      48.032   2.799  17.033  0.00  0.00    +0.000 C 
ATOM      3  C   UNL     1      49.181   3.688  17.388  0.00  0.00    +0.000 C 
ENDROOT
BRANCH   1   4
ATOM      4  C   UNL     1      47.726   5.049  15.700  0.00  0.00    +0.000 A 
ATOM      5  C   UNL     1      48.553   6.141  15.391  0.00  0.00    +0.000 A 
ATOM      6  C   UNL     1      48.470   6.810  14.172  0.00  0.00    +0.000 A 
ATOM      7  C   UNL     1      47.564   6.382  13.208  0.00  0.00    +0.000 A 
ATOM      8  C   UNL     1      46.718   5.284  13.444  0.00  0.00    +0.000 A 
ATOM      9  C   UNL     1      46.814   4.649  14.702  0.00  0.00    +0.000 A 
BRANCH   8  10
ATOM     10  C   UNL     1      45.770   4.811  12.411  0.00  0.00    +0.000 A 
ATOM     11  C   UNL     1      45.554   5.516  11.217  0.00  0.00    +0.000 A 
ATOM     12  C   UNL     1      44.652   5.049  10.264  0.00  0.00    +0.000 A 
ATOM     13  C   UNL     1      43.981   3.867  10.518  0.00  0.00    +0.000 A 
ATOM     14  N   UNL     1      44.146   3.146  11.644  0.00  0.00    +0.000 NA
ATOM     15  C   UNL     1      45.026   3.636  12.555  0.00  0.00    +0.000 A 
ENDBRANCH   8  10
ENDBRANCH   1   4
BRANCH   1  16
ATOM     16  O   UNL     1      46.978   4.718  18.135  0.00  0.00    +0.000 OA
BRANCH  16  20
ATOM     17  C   UNL     1      48.819   7.372  20.562  0.00  0.00    +0.000 A 
ATOM     18  C   UNL     1      48.855   6.021  20.864  0.00  0.00    +0.000 A 
ATOM     19  N   UNL     1      48.204   5.090  20.127  0.00  0.00    +0.000 NA
ATOM     20  C   UNL     1      47.533   5.578  19.062  0.00  0.00    +0.000 A 
ATOM     21  C   UNL     1      47.420   6.942  18.818  0.00  0.00    +0.000 A 
ATOM     22  N   UNL     1      48.065   7.872  19.563  0.00  0.00    +0.000 NA
BRANCH  17  23
ATOM     23  O   UNL     1      49.593   8.281  21.219  0.00  0.00    +0.000 OA
ATOM     24  H   UNL     1      49.054   8.657  21.931  0.00  0.00    +0.000 HD
ENDBRANCH  17  23
ENDBRANCH  16  20
ENDBRANCH   1  16
TORSDOF 5
ENDMDL
