MODEL 1
REMARK VINA RESULT:    -8.560      0.000      0.000
REMARK INTER + INTRA:         -11.747
REMARK INTER:                 -11.562
REMARK INTRA:                  -0.185
REMARK UNBOUND:                -0.185
REMARK  Name = 
REMARK  7 active torsions:
REMARK  status: ('A' for Active; 'I' for Inactive)
REMARK    1  A    between atoms: C_1  and  C_2
REMARK    2  A    between atoms: C_2  and  N_3
REMARK    3  A    between atoms: C_2  and  C_16
REMARK    4  A    between atoms: C_4  and  C_6
REMARK    5  A    between atoms: C_19  and  C_20
REMARK    6  A    between atoms: C_20  and  N_21
REMARK    7  A    between atoms: C_22  and  C_24
REMARK                            x       y       z     vdW  Elec       q    Type
REMARK                         _______ _______ _______ _____ _____    ______ ____
ROOT
ATOM      1  C   UNL     1      46.102   7.017  12.336  0.00  0.00    +0.000 A 
ATOM      2  C   UNL     1      45.000   6.328  12.855  0.00  0.00    +0.000 A 
ATOM      3  C   UNL     1      44.347   5.371  12.081  0.00  0.00    +0.000 A 
ATOM      4  C   UNL     1      44.824   5.099  10.803  0.00  0.00    +0.000 A 
ATOM      5  N   UNL     1      45.893   5.745  10.274  0.00  0.00    +0.000 NA
ATOM      6  C   UNL     1      46.508   6.666  11.052  0.00  0.00    +0.000 A 
ENDROOT
BRANCH   1   8
ATOM      7  C   UNL     1      47.912   8.802  12.397  0.00  0.00    +0.000 C 
ATOM      8  C   UNL     1      46.810   8.066  13.167  0.00  0.00    +0.000 C 
BRANCH   8   9
ATOM      9  N   UNL     1      47.336   7.462  14.378  0.00  0.00    +0.000 N 
ATOM     10  C   UNL     1      48.531   6.791  14.421  0.00  0.00    +0.000 C 
ATOM     11  O   UNL     1      49.242   6.684  13.421  0.00  0.00    +0.000 OA
ATOM     12  H   UNL     1      46.757   7.519  15.210  0.00  0.00    +0.000 HD
BRANCH  10  13
ATOM     13  C   UNL     1      48.931   6.195  15.708  0.00  0.00    +0.000 A 
ATOM     14  C   UNL     1      49.998   6.748  16.408  0.00  0.00    +0.000 A 
ATOM     15  S   UNL     1      50.371   5.937  17.858  0.00  0.00    +0.000 S 
ATOM     16  C   UNL     1      49.120   4.812  17.612  0.00  0.00    +0.000 A 
ATOM     17  N   UNL     1      48.914   3.799  18.498  0.00  0.00    +0.000 NA
ATOM     18  C   UNL     1      47.939   3.012  18.192  0.00  0.00    +0.000 A 
ATOM     19  N   UNL     1      47.142   3.153  17.089  0.00  0.00    +0.000 N 
ATOM     20  C   UNL     1      47.305   4.166  16.173  0.00  0.00    +0.000 A 
ATOM     21  O   UNL     1      46.558   4.268  15.206  0.00  0.00    +0.000 OA
ATOM     22  C   UNL     1      48.408   5.067  16.452  0.00  0.00    +0.000 A 
ATOM     23  H   UNL     1      46.384   2.510  16.910  0.00  0.00    +0.000 HD
ENDBRANCH  10  13
ENDBRANCH   8   9
ENDBRANCH   1   8
BRANCH   4  24
ATOM     24  C   UNL     1      44.149   4.067   9.934  0.00  0.00    +0.000 C 
BRANCH  24  25
ATOM     25  N   UNL     1      44.936   3.741   8.760  0.00  0.00    +0.000 N 
ATOM     26  C   UNL     1      45.463   2.482   8.561  0.00  0.00    +0.000 C 
ATOM     27  O   UNL     1      45.310   1.562   9.349  0.00  0.00    +0.000 OA
ATOM     28  H   UNL     1      44.901   4.409   8.002  0.00  0.00    +0.000 HD
BRANCH  26  29
ATOM     29  C   UNL     1      46.283   2.330   7.334  0.00  0.00    +0.000 A 
ATOM     30  C   UNL     1      46.486   3.437   6.497  0.00  0.00    +0.000 A 
ATOM     31  C   UNL     1      47.258   3.307   5.345  0.00  0.00    +0.000 A 
ATOM     32  C   UNL     1      47.818   2.072   5.071  0.00  0.00    +0.000 A 
ATOM     33  N   UNL     1      47.658   0.989   5.860  0.00  0.00    +0.000 NA
ATOM     34  C   UNL     1      46.901   1.139   6.980  0.00  0.00    +0.000 A 
ATOM     35 CL   UNL     1      46.748  -0.339   7.846  0.00  0.00    +0.000 Cl
ENDBRANCH  26  29
ENDBRANCH  24  25
ENDBRANCH   4  24
TORSDOF 6
ENDMDL
MODEL 2
REMARK VINA RESULT:    -8.194      2.220      2.605
REMARK INTER + INTRA:         -11.253
REMARK INTER:                 -10.195
REMARK INTRA:                  -1.058
REMARK UNBOUND:                -0.185
REMARK  Name = 
REMARK  7 active torsions:
REMARK  status: ('A' for Active; 'I' for Inactive)
REMARK    1  A    between atoms: C_1  and  C_2
REMARK    2  A    between atoms: C_2  and  N_3
REMARK    3  A    between atoms: C_2  and  C_16
REMARK    4  A    between atoms: C_4  and  C_6
REMARK    5  A    between atoms: C_19  and  C_20
REMARK    6  A    between atoms: C_20  and  N_21
REMARK    7  A    between atoms: C_22  and  C_24
REMARK                            x       y       z     vdW  Elec       q    Type
REMARK                         _______ _______ _______ _____ _____    ______ ____
ROOT
ATOM      1  C   UNL     1      47.199   5.698  14.082  0.00  0.00    +0.000 A 
ATOM      2  C   UNL     1      46.790   6.211  12.846  0.00  0.00    +0.000 A 
ATOM      3  C   UNL     1      46.116   5.395  11.939  0.00  0.00    +0.000 A 
ATOM      4  C   UNL     1      45.840   4.079  12.295  0.00  0.00    +0.000 A 
ATOM      5  N   UNL     1      46.219   3.554  13.487  0.00  0.00    +0.000 NA
ATOM      6  C   UNL     1      46.867   4.373  14.347  0.00  0.00    +0.000 A 
ENDROOT
BRANCH   1   8
ATOM      7  C   UNL     1      48.438   7.888  14.451  0.00  0.00    +0.000 C 
ATOM      8  C   UNL     1      47.940   6.577  15.068  0.00  0.00    +0.000 C 
BRANCH   8   9
ATOM      9  N   UNL     1      49.035   5.833  15.663  0.00  0.00    +0.000 N 
ATOM     10  C   UNL     1      49.280   5.814  17.012  0.00  0.00    +0.000 C 
ATOM     11  O   UNL     1      48.557   6.421  17.804  0.00  0.00    +0.000 OA
ATOM     12  H   UNL     1      49.658   5.343  15.029  0.00  0.00    +0.000 HD
BRANCH  10  13
ATOM     13  C   UNL     1      50.448   5.047  17.482  0.00  0.00    +0.000 A 
ATOM     14  C   UNL     1      51.508   5.724  18.076  0.00  0.00    +0.000 A 
ATOM     15  S   UNL     1      52.801   4.717  18.538  0.00  0.00    +0.000 S 
ATOM     16  C   UNL     1      52.000   3.334  17.961  0.00  0.00    +0.000 A 
ATOM     17  N   UNL     1      52.594   2.111  18.026  0.00  0.00    +0.000 NA
ATOM     18  C   UNL     1      51.882   1.146  17.549  0.00  0.00    +0.000 A 
ATOM     19  N   UNL     1      50.625   1.289  17.028  0.00  0.00    +0.000 N 
ATOM     20  C   UNL     1      49.981   2.501  16.953  0.00  0.00    +0.000 A 
ATOM     21  O   UNL     1      48.847   2.586  16.494  0.00  0.00    +0.000 OA
ATOM     22  C   UNL     1      50.748   3.630  17.449  0.00  0.00    +0.000 A 
ATOM     23  H   UNL     1      50.112   0.491  16.682  0.00  0.00    +0.000 HD
ENDBRANCH  10  13
ENDBRANCH   8   9
ENDBRANCH   1   8
BRANCH   4  24
ATOM     24  C   UNL     1      45.110   3.163  11.345  0.00  0.00    +0.000 C 
BRANCH  24  25
ATOM     25  N   UNL     1      45.734   3.120  10.037  0.00  0.00    +0.000 N 
ATOM     26  C   UNL     1      45.280   2.286   9.037  0.00  0.00    +0.000 C 
ATOM     27  O   UNL     1      44.331   1.531   9.178  0.00  0.00    +0.000 OA
ATOM     28  H   UNL     1      46.374   3.873   9.826  0.00  0.00    +0.000 HD
BRANCH  26  29
ATOM     29  C   UNL     1      46.060   2.331   7.777  0.00  0.00    +0.000 A 
ATOM     30  C   UNL     1      46.151   3.535   7.063  0.00  0.00    +0.000 A 
ATOM     31  C   UNL     1      46.885   3.590   5.881  0.00  0.00    +0.000 A 
ATOM     32  C   UNL     1      47.520   2.438   5.453  0.00  0.00    +0.000 A 
ATOM     33  N   UNL     1      47.469   1.266   6.120  0.00  0.00    +0.000 NA
ATOM     34  C   UNL     1      46.747   1.235   7.272  0.00  0.00    +0.000 A 
ATOM     35 CL   UNL     1      46.733  -0.336   7.972  0.00  0.00    +0.000 Cl
ENDBRANCH  26  29
ENDBRANCH  24  25
ENDBRANCH   4  24
TORSDOF 6
ENDMDL
MODEL 3
REMARK VINA RESULT:    -8.038      3.429      8.611
REMARK INTER + INTRA:         -11.043
REMARK INTER:                 -10.705
REMARK INTRA:                  -0.338
REMARK UNBOUND:                -0.185
REMARK  Name = 
REMARK  7 active torsions:
REMARK  status: ('A' for Active; 'I' for Inactive)
REMARK    1  A    between atoms: C_1  and  C_2
REMARK    2  A    between atoms: C_2  and  N_3
REMARK    3  A    between atoms: C_2  and  C_16
REMARK    4  A    between atoms: C_4  and  C_6
REMARK    5  A    between atoms: C_19  and  C_20
REMARK    6  A    between atoms: C_20  and  N_21
REMARK    7  A    between atoms: C_22  and  C_24
REMARK                            x       y       z     vdW  Elec       q    Type
REMARK                         _______ _______ _______ _____ _____    ______ ____
ROOT
ATOM      1  C   UNL     1      47.604   7.704  13.393  0.00  0.00    +0.000 A 
ATOM      2  C   UNL     1      47.800   8.754  14.298  0.00  0.00    +0.000 A 
ATOM      3  C   UNL     1      48.506   8.535  15.479  0.00  0.00    +0.000 A 
ATOM      4  C   UNL     1      49.027   7.270  15.727  0.00  0.00    +0.000 A 
ATOM      5  N   UNL     1      48.860   6.234  14.868  0.00  0.00    +0.000 NA
ATOM      6  C   UNL     1      48.173   6.479  13.727  0.00  0.00    +0.000 A 
ENDROOT
BRANCH   1   8
ATOM      7  C   UNL     1      45.743   9.005  12.247  0.00  0.00    +0.000 C 
ATOM      8  C   UNL     1      46.829   7.932  12.112  0.00  0.00    +0.000 C 
BRANCH   8   9
ATOM      9  N   UNL     1      46.266   6.677  11.647  0.00  0.00    +0.000 N 
ATOM     10  C   UNL     1      45.086   6.166  12.123  0.00  0.00    +0.000 C 
ATOM     11  O   UNL     1      44.421   6.767  12.968  0.00  0.00    +0.000 OA
ATOM     12  H   UNL     1      46.808   6.153  10.967  0.00  0.00    +0.000 HD
BRANCH  10  13
ATOM     13  C   UNL     1      44.646   4.864  11.591  0.00  0.00    +0.000 A 
ATOM     14  C   UNL     1      43.877   4.029  12.396  0.00  0.00    +0.000 A 
ATOM     15  S   UNL     1      43.470   2.546  11.667  0.00  0.00    +0.000 S 
ATOM     16  C   UNL     1      44.304   2.956  10.243  0.00  0.00    +0.000 A 
ATOM     17  N   UNL     1      44.374   2.080   9.204  0.00  0.00    +0.000 NA
ATOM     18  C   UNL     1      45.042   2.511   8.187  0.00  0.00    +0.000 A 
ATOM     19  N   UNL     1      45.632   3.743   8.109  0.00  0.00    +0.000 N 
ATOM     20  C   UNL     1      45.578   4.664   9.128  0.00  0.00    +0.000 A 
ATOM     21  O   UNL     1      46.106   5.765   9.012  0.00  0.00    +0.000 OA
ATOM     22  C   UNL     1      44.863   4.221  10.312  0.00  0.00    +0.000 A 
ATOM     23  H   UNL     1      46.131   4.028   7.278  0.00  0.00    +0.000 HD
ENDBRANCH  10  13
ENDBRANCH   8   9
ENDBRANCH   1   8
BRANCH   4  24
ATOM     24  C   UNL     1      49.801   6.991  16.992  0.00  0.00    +0.000 C 
BRANCH  24  25
ATOM     25  N   UNL     1      50.437   5.689  16.969  0.00  0.00    +0.000 N 
ATOM     26  C   UNL     1      50.179   4.733  17.930  0.00  0.00    +0.000 C 
ATOM     27  O   UNL     1      49.408   4.912  18.859  0.00  0.00    +0.000 OA
ATOM     28  H   UNL     1      50.907   5.439  16.110  0.00  0.00    +0.000 HD
BRANCH  26  29
ATOM     29  C   UNL     1      50.949   3.473  17.787  0.00  0.00    +0.000 A 
ATOM     30  C   UNL     1      52.269   3.413  18.257  0.00  0.00    +0.000 A 
ATOM     31  C   UNL     1      52.999   2.233  18.133  0.00  0.00    +0.000 A 
ATOM     32  C   UNL     1      52.380   1.141  17.551  0.00  0.00    +0.000 A 
ATOM     33  N   UNL     1      51.108   1.156  17.102  0.00  0.00    +0.000 NA
ATOM     34  C   UNL     1      50.414   2.318  17.233  0.00  0.00    +0.000 A 
ATOM     35 CL   UNL     1      48.833   2.193  16.565  0.00  0.00    +0.000 Cl
ENDBRANCH  26  29
ENDBRANCH  24  25
ENDBRANCH   4  24
TORSDOF 6
ENDMDL
MODEL 4
REMARK VINA RESULT:    -7.900      3.947      8.356
REMARK INTER + INTRA:         -10.857
REMARK INTER:                  -9.662
REMARK INTRA:                  -1.195
REMARK UNBOUND:                -0.185
REMARK  Name = 
REMARK  7 active torsions:
REMARK  status: ('A' for Active; 'I' for Inactive)
REMARK    1  A    between atoms: C_1  and  C_2
REMARK    2  A    between atoms: C_2  and  N_3
REMARK    3  A    between atoms: C_2  and  C_16
REMARK    4  A    between atoms: C_4  and  C_6
REMARK    5  A    between atoms: C_19  and  C_20
REMARK    6  A    between atoms: C_20  and  N_21
REMARK    7  A    between atoms: C_22  and  C_24
REMARK                            x       y       z     vdW  Elec       q    Type
REMARK                         _______ _______ _______ _____ _____    ______ ____
ROOT
ATOM      1  C   UNL     1      47.822   8.156  13.899  0.00  0.00    +0.000 A 
ATOM      2  C   UNL     1      47.970   9.059  14.957  0.00  0.00    +0.000 A 
ATOM      3  C   UNL     1      48.652   8.677  16.111  0.00  0.00    +0.000 A 
ATOM      4  C   UNL     1      49.198   7.400  16.178  0.00  0.00    +0.000 A 
ATOM      5  N   UNL     1      49.076   6.503  15.168  0.00  0.00    +0.000 NA
ATOM      6  C   UNL     1      48.412   6.906  14.059  0.00  0.00    +0.000 A 
ENDROOT
BRANCH   1   8
ATOM      7  C   UNL     1      46.174   9.784  12.850  0.00  0.00    +0.000 C 
ATOM      8  C   UNL     1      47.074   8.561  12.646  0.00  0.00    +0.000 C 
BRANCH   8   9
ATOM      9  N   UNL     1      46.312   7.433  12.141  0.00  0.00    +0.000 N 
ATOM     10  C   UNL     1      46.750   6.633  11.117  0.00  0.00    +0.000 C 
ATOM     11  O   UNL     1      47.841   6.820  10.579  0.00  0.00    +0.000 OA
ATOM     12  H   UNL     1      45.399   7.272  12.555  0.00  0.00    +0.000 HD
BRANCH  10  13
ATOM     13  C   UNL     1      45.861   5.543  10.678  0.00  0.00    +0.000 A 
ATOM     14  C   UNL     1      45.699   5.309   9.316  0.00  0.00    +0.000 A 
ATOM     15  S   UNL     1      44.618   4.043   8.954  0.00  0.00    +0.000 S 
ATOM     16  C   UNL     1      44.321   3.754  10.603  0.00  0.00    +0.000 A 
ATOM     17  N   UNL     1      43.438   2.794  10.990  0.00  0.00    +0.000 NA
ATOM     18  C   UNL     1      43.299   2.681  12.268  0.00  0.00    +0.000 A 
ATOM     19  N   UNL     1      43.973   3.429  13.194  0.00  0.00    +0.000 N 
ATOM     20  C   UNL     1      44.883   4.401  12.850  0.00  0.00    +0.000 A 
ATOM     21  O   UNL     1      45.480   5.039  13.711  0.00  0.00    +0.000 OA
ATOM     22  C   UNL     1      45.058   4.593  11.422  0.00  0.00    +0.000 A 
ATOM     23  H   UNL     1      43.831   3.283  14.183  0.00  0.00    +0.000 HD
ENDBRANCH  10  13
ENDBRANCH   8   9
ENDBRANCH   1   8
BRANCH   4  24
ATOM     24  C   UNL     1      49.946   6.947  17.407  0.00  0.00    +0.000 C 
BRANCH  24  25
ATOM     25  N   UNL     1      50.490   5.612  17.256  0.00  0.00    +0.000 N 
ATOM     26  C   UNL     1      50.495   4.703  18.294  0.00  0.00    +0.000 C 
ATOM     27  O   UNL     1      50.049   4.954  19.403  0.00  0.00    +0.000 OA
ATOM     28  H   UNL     1      50.668   5.309  16.309  0.00  0.00    +0.000 HD
BRANCH  26  29
ATOM     29  C   UNL     1      51.131   3.399  17.987  0.00  0.00    +0.000 A 
ATOM     30  C   UNL     1      52.463   3.174  18.364  0.00  0.00    +0.000 A 
ATOM     31  C   UNL     1      53.069   1.952  18.085  0.00  0.00    +0.000 A 
ATOM     32  C   UNL     1      52.317   0.982  17.446  0.00  0.00    +0.000 A 
ATOM     33  N   UNL     1      51.029   1.155  17.082  0.00  0.00    +0.000 NA
ATOM     34  C   UNL     1      50.458   2.356  17.365  0.00  0.00    +0.000 A 
ATOM     35 CL   UNL     1      48.838   2.441  16.790  0.00  0.00    +0.000 Cl
ENDBRANCH  26  29
ENDBRANCH  24  25
ENDBRANCH   4  24
TORSDOF 6
ENDMDL
MODEL 5
REMARK VINA RESULT:    -7.585      3.470      5.168
REMARK INTER + INTRA:         -10.431
REMARK INTER:                  -9.385
REMARK INTRA:                  -1.046
REMARK UNBOUND:                -0.185
REMARK  Name = 
REMARK  7 active torsions:
REMARK  status: ('A' for Active; 'I' for Inactive)
REMARK    1  A    between atoms: C_1  and  C_2
REMARK    2  A    between atoms: C_2  and  N_3
REMARK    3  A    between atoms: C_2  and  C_16
REMARK    4  A    between atoms: C_4  and  C_6
REMARK    5  A    between atoms: C_19  and  C_20
REMARK    6  A    between atoms: C_20  and  N_21
REMARK    7  A    between atoms: C_22  and  C_24
REMARK                            x       y       z     vdW  Elec       q    Type
REMARK                         _______ _______ _______ _____ _____    ______ ____
ROOT
ATOM      1  C   UNL     1      49.132   7.923  15.952  0.00  0.00    +0.000 A 
ATOM      2  C   UNL     1      48.268   8.901  15.446  0.00  0.00    +0.000 A 
ATOM      3  C   UNL     1      47.806   8.813  14.134  0.00  0.00    +0.000 A 
ATOM      4  C   UNL     1      48.198   7.730  13.353  0.00  0.00    +0.000 A 
ATOM      5  N   UNL     1      49.030   6.764  13.816  0.00  0.00    +0.000 NA
ATOM      6  C   UNL     1      49.458   6.875  15.096  0.00  0.00    +0.000 A 
ENDROOT
BRANCH   1   8
ATOM      7  C   UNL     1      50.296   9.369  17.690  0.00  0.00    +0.000 C 
ATOM      8  C   UNL     1      49.646   8.017  17.373  0.00  0.00    +0.000 C 
BRANCH   8   9
ATOM      9  N   UNL     1      50.564   6.924  17.638  0.00  0.00    +0.000 N 
ATOM     10  C   UNL     1      50.247   5.862  18.446  0.00  0.00    +0.000 C 
ATOM     11  O   UNL     1      49.141   5.769  18.980  0.00  0.00    +0.000 OA
ATOM     12  H   UNL     1      51.489   6.989  17.227  0.00  0.00    +0.000 HD
BRANCH  10  13
ATOM     13  C   UNL     1      51.285   4.837  18.660  0.00  0.00    +0.000 A 
ATOM     14  C   UNL     1      52.387   5.145  19.451  0.00  0.00    +0.000 A 
ATOM     15  S   UNL     1      53.519   3.880  19.583  0.00  0.00    +0.000 S 
ATOM     16  C   UNL     1      52.584   2.868  18.588  0.00  0.00    +0.000 A 
ATOM     17  N   UNL     1      53.018   1.618  18.267  0.00  0.00    +0.000 NA
ATOM     18  C   UNL     1      52.220   0.956  17.500  0.00  0.00    +0.000 A 
ATOM     19  N   UNL     1      51.020   1.423  17.037  0.00  0.00    +0.000 N 
ATOM     20  C   UNL     1      50.535   2.673  17.344  0.00  0.00    +0.000 A 
ATOM     21  O   UNL     1      49.446   3.048  16.923  0.00  0.00    +0.000 OA
ATOM     22  C   UNL     1      51.408   3.475  18.182  0.00  0.00    +0.000 A 
ATOM     23  H   UNL     1      50.431   0.850  16.449  0.00  0.00    +0.000 HD
ENDBRANCH  10  13
ENDBRANCH   8   9
ENDBRANCH   1   8
BRANCH   4  24
ATOM     24  C   UNL     1      47.718   7.595  11.930  0.00  0.00    +0.000 C 
BRANCH  24  25
ATOM     25  N   UNL     1      46.904   6.411  11.737  0.00  0.00    +0.000 N 
ATOM     26  C   UNL     1      45.527   6.473  11.678  0.00  0.00    +0.000 C 
ATOM     27  O   UNL     1      44.901   7.515  11.785  0.00  0.00    +0.000 OA
ATOM     28  H   UNL     1      47.393   5.579  11.438  0.00  0.00    +0.000 HD
BRANCH  26  29
ATOM     29  C   UNL     1      44.845   5.165  11.525  0.00  0.00    +0.000 A 
ATOM     30  C   UNL     1      44.119   4.634  12.602  0.00  0.00    +0.000 A 
ATOM     31  C   UNL     1      43.470   3.409  12.468  0.00  0.00    +0.000 A 
ATOM     32  C   UNL     1      43.554   2.756  11.252  0.00  0.00    +0.000 A 
ATOM     33  N   UNL     1      44.229   3.242  10.189  0.00  0.00    +0.000 NA
ATOM     34  C   UNL     1      44.855   4.439  10.342  0.00  0.00    +0.000 A 
ATOM     35 CL   UNL     1      45.714   4.894   8.922  0.00  0.00    +0.000 Cl
ENDBRANCH  26  29
ENDBRANCH  24  25
ENDBRANCH   4  24
TORSDOF 6
ENDMDL
MODEL 6
REMARK VINA RESULT:    -7.400      1.279      2.029
REMARK INTER + INTRA:         -10.180
REMARK INTER:                 -10.073
REMARK INTRA:                  -0.107
REMARK UNBOUND:                -0.185
REMARK  Name = 
REMARK  7 active torsions:
REMARK  status: ('A' for Active; 'I' for Inactive)
REMARK    1  A    between atoms: C_1  and  C_2
REMARK    2  A    between atoms: C_2  and  N_3
REMARK    3  A    between atoms: C_2  and  C_16
REMARK    4  A    between atoms: C_4  and  C_6
REMARK    5  A    between atoms: C_19  and  C_20
REMARK    6  A    between atoms: C_20  and  N_21
REMARK    7  A    between atoms: C_22  and  C_24
REMARK                            x       y       z     vdW  Elec       q    Type
REMARK                         _______ _______ _______ _____ _____    ______ ____
ROOT
ATOM      1  C   UNL     1      45.974   6.848  12.197  0.00  0.00    +0.000 A 
ATOM      2  C   UNL     1      44.860   6.178  12.714  0.00  0.00    +0.000 A 
ATOM      3  C   UNL     1      44.190   5.234  11.938  0.00  0.00    +0.000 A 
ATOM      4  C   UNL     1      44.663   4.956  10.659  0.00  0.00    +0.000 A 
ATOM      5  N   UNL     1      45.743   5.584  10.132  0.00  0.00    +0.000 NA
ATOM      6  C   UNL     1      46.374   6.493  10.912  0.00  0.00    +0.000 A 
ENDROOT
BRANCH   1   8
ATOM      7  C   UNL     1      47.865   8.546  12.286  0.00  0.00    +0.000 C 
ATOM      8  C   UNL     1      46.701   7.883  13.030  0.00  0.00    +0.000 C 
BRANCH   8   9
ATOM      9  N   UNL     1      47.151   7.285  14.274  0.00  0.00    +0.000 N 
ATOM     10  C   UNL     1      48.055   6.256  14.324  0.00  0.00    +0.000 C 
ATOM     11  O   UNL     1      48.557   5.792  13.299  0.00  0.00    +0.000 OA
ATOM     12  H   UNL     1      46.735   7.636  15.131  0.00  0.00    +0.000 HD
BRANCH  10  13
ATOM     13  C   UNL     1      48.400   5.717  15.652  0.00  0.00    +0.000 A 
ATOM     14  C   UNL     1      47.656   4.661  16.168  0.00  0.00    +0.000 A 
ATOM     15  S   UNL     1      48.142   4.164  17.722  0.00  0.00    +0.000 S 
ATOM     16  C   UNL     1      49.369   5.340  17.772  0.00  0.00    +0.000 A 
ATOM     17  N   UNL     1      50.156   5.475  18.874  0.00  0.00    +0.000 NA
ATOM     18  C   UNL     1      51.043   6.408  18.785  0.00  0.00    +0.000 A 
ATOM     19  N   UNL     1      51.225   7.208  17.690  0.00  0.00    +0.000 N 
ATOM     20  C   UNL     1      50.462   7.101  16.551  0.00  0.00    +0.000 A 
ATOM     21  O   UNL     1      50.668   7.826  15.584  0.00  0.00    +0.000 OA
ATOM     22  C   UNL     1      49.426   6.085  16.606  0.00  0.00    +0.000 A 
ATOM     23  H   UNL     1      51.947   7.914  17.677  0.00  0.00    +0.000 HD
ENDBRANCH  10  13
ENDBRANCH   8   9
ENDBRANCH   1   8
BRANCH   4  24
ATOM     24  C   UNL     1      43.970   3.938   9.787  0.00  0.00    +0.000 C 
BRANCH  24  25
ATOM     25  N   UNL     1      44.750   3.603   8.613  0.00  0.00    +0.000 N 
ATOM     26  C   UNL     1      45.550   2.480   8.563  0.00  0.00    +0.000 C 
ATOM     27  O   UNL     1      45.659   1.696   9.493  0.00  0.00    +0.000 OA
ATOM     28  H   UNL     1      44.519   4.106   7.767  0.00  0.00    +0.000 HD
BRANCH  26  29
ATOM     29  C   UNL     1      46.318   2.309   7.305  0.00  0.00    +0.000 A 
ATOM     30  C   UNL     1      46.493   3.406   6.449  0.00  0.00    +0.000 A 
ATOM     31  C   UNL     1      47.217   3.258   5.268  0.00  0.00    +0.000 A 
ATOM     32  C   UNL     1      47.757   2.017   4.985  0.00  0.00    +0.000 A 
ATOM     33  N   UNL     1      47.623   0.943   5.792  0.00  0.00    +0.000 NA
ATOM     34  C   UNL     1      46.913   1.110   6.939  0.00  0.00    +0.000 A 
ATOM     35 CL   UNL     1      46.786  -0.358   7.827  0.00  0.00    +0.000 Cl
ENDBRANCH  26  29
ENDBRANCH  24  25
ENDBRANCH   4  24
TORSDOF 6
ENDMDL
MODEL 7
REMARK VINA RESULT:    -6.963      2.554      3.748
REMARK INTER + INTRA:          -9.590
REMARK INTER:                  -8.486
REMARK INTRA:                  -1.104
REMARK UNBOUND:                -0.185
REMARK  Name = 
REMARK  7 active torsions:
REMARK  status: ('A' for Active; 'I' for Inactive)
REMARK    1  A    between atoms: C_1  and  C_2
REMARK    2  A    between atoms: C_2  and  N_3
REMARK    3  A    between atoms: C_2  and  C_16
REMARK    4  A    between atoms: C_4  and  C_6
REMARK    5  A    between atoms: C_19  and  C_20
REMARK    6  A    between atoms: C_20  and  N_21
REMARK    7  A    between atoms: C_22  and  C_24
REMARK                            x       y       z     vdW  Elec       q    Type
REMARK                         _______ _______ _______ _____ _____    ______ ____
ROOT
ATOM      1  C   UNL     1      49.005   8.321  13.978  0.00  0.00    +0.000 A 
ATOM      2  C   UNL     1      49.056   7.394  12.931  0.00  0.00    +0.000 A 
ATOM      3  C   UNL     1      47.902   7.084  12.215  0.00  0.00    +0.000 A 
ATOM      4  C   UNL     1      46.713   7.728  12.543  0.00  0.00    +0.000 A 
ATOM      5  N   UNL     1      46.632   8.635  13.548  0.00  0.00    +0.000 NA
ATOM      6  C   UNL     1      47.771   8.918  14.222  0.00  0.00    +0.000 A 
ENDROOT
BRANCH   1   8
ATOM      7  C   UNL     1      51.547   8.312  14.020  0.00  0.00    +0.000 C 
ATOM      8  C   UNL     1      50.253   8.655  14.767  0.00  0.00    +0.000 C 
BRANCH   8   9
ATOM      9  N   UNL     1      50.209   7.998  16.060  0.00  0.00    +0.000 N 
ATOM     10  C   UNL     1      50.005   8.675  17.235  0.00  0.00    +0.000 C 
ATOM     11  O   UNL     1      49.825   9.893  17.252  0.00  0.00    +0.000 OA
ATOM     12  H   UNL     1      50.377   6.997  16.074  0.00  0.00    +0.000 HD
BRANCH  10  13
ATOM     13  C   UNL     1      50.019   7.890  18.483  0.00  0.00    +0.000 A 
ATOM     14  C   UNL     1      50.669   8.405  19.600  0.00  0.00    +0.000 A 
ATOM     15  S   UNL     1      50.634   7.378  20.957  0.00  0.00    +0.000 S 
ATOM     16  C   UNL     1      49.749   6.200  20.110  0.00  0.00    +0.000 A 
ATOM     17  N   UNL     1      49.411   5.024  20.706  0.00  0.00    +0.000 NA
ATOM     18  C   UNL     1      48.746   4.215  19.953  0.00  0.00    +0.000 A 
ATOM     19  N   UNL     1      48.374   4.481  18.663  0.00  0.00    +0.000 N 
ATOM     20  C   UNL     1      48.682   5.658  18.023  0.00  0.00    +0.000 A 
ATOM     21  O   UNL     1      48.316   5.865  16.871  0.00  0.00    +0.000 OA
ATOM     22  C   UNL     1      49.458   6.596  18.815  0.00  0.00    +0.000 A 
ATOM     23  H   UNL     1      47.841   3.810  18.127  0.00  0.00    +0.000 HD
ENDBRANCH  10  13
ENDBRANCH   8   9
ENDBRANCH   1   8
BRANCH   4  24
ATOM     24  C   UNL     1      45.441   7.425  11.791  0.00  0.00    +0.000 C 
BRANCH  24  25
ATOM     25  N   UNL     1      45.567   6.247  10.956  0.00  0.00    +0.000 N 
ATOM     26  C   UNL     1      44.479   5.465  10.627  0.00  0.00    +0.000 C 
ATOM     27  O   UNL     1      43.344   5.705  11.010  0.00  0.00    +0.000 OA
ATOM     28  H   UNL     1      46.440   6.146  10.458  0.00  0.00    +0.000 HD
BRANCH  26  29
ATOM     29  C   UNL     1      44.788   4.270   9.805  0.00  0.00    +0.000 A 
ATOM     30  C   UNL     1      45.567   4.410   8.647  0.00  0.00    +0.000 A 
ATOM     31  C   UNL     1      45.867   3.293   7.871  0.00  0.00    +0.000 A 
ATOM     32  C   UNL     1      45.390   2.063   8.285  0.00  0.00    +0.000 A 
ATOM     33  N   UNL     1      44.652   1.886   9.401  0.00  0.00    +0.000 NA
ATOM     34  C   UNL     1      44.370   2.990  10.144  0.00  0.00    +0.000 A 
ATOM     35 CL   UNL     1      43.379   2.609  11.498  0.00  0.00    +0.000 Cl
ENDBRANCH  26  29
ENDBRANCH  24  25
ENDBRANCH   4  24
TORSDOF 6
ENDMDL
MODEL 8
REMARK VINA RESULT:    -6.940      4.496      9.315
REMARK INTER + INTRA:          -9.560
REMARK INTER:                  -8.497
REMARK INTRA:                  -1.063
REMARK UNBOUND:                -0.185
REMARK  Name = 
REMARK  7 active torsions:
REMARK  status: ('A' for Active; 'I' for Inactive)
REMARK    1  A    between atoms: C_1  and  C_2
REMARK    2  A    between atoms: C_2  and  N_3
REMARK    3  A    between atoms: C_2  and  C_16
REMARK    4  A    between atoms: C_4  and  C_6
REMARK    5  A    between atoms: C_19  and  C_20
REMARK    6  A    between atoms: C_20  and  N_21
REMARK    7  A    between atoms: C_22  and  C_24
REMARK                            x       y       z     vdW  Elec       q    Type
REMARK                         _______ _______ _______ _____ _____    ______ ____
ROOT
ATOM      1  C   UNL     1      49.412   7.159  16.347  0.00  0.00    +0.000 A 
ATOM      2  C   UNL     1      48.901   5.958  16.850  0.00  0.00    +0.000 A 
ATOM      3  C   UNL     1      49.480   5.368  17.972  0.00  0.00    +0.000 A 
ATOM      4  C   UNL     1      50.551   6.005  18.589  0.00  0.00    +0.000 A 
ATOM      5  N   UNL     1      51.065   7.173  18.130  0.00  0.00    +0.000 NA
ATOM      6  C   UNL     1      50.478   7.722  17.041  0.00  0.00    +0.000 A 
ENDROOT
BRANCH   1   8
ATOM      7  C   UNL     1      48.282   9.223  15.380  0.00  0.00    +0.000 C 
ATOM      8  C   UNL     1      48.794   7.801  15.122  0.00  0.00    +0.000 C 
BRANCH   8   9
ATOM      9  N   UNL     1      47.736   6.954  14.603  0.00  0.00    +0.000 N 
ATOM     10  C   UNL     1      47.768   6.402  13.348  0.00  0.00    +0.000 C 
ATOM     11  O   UNL     1      48.723   6.583  12.592  0.00  0.00    +0.000 OA
ATOM     12  H   UNL     1      46.928   6.808  15.200  0.00  0.00    +0.000 HD
BRANCH  10  13
ATOM     13  C   UNL     1      46.610   5.590  12.932  0.00  0.00    +0.000 A 
ATOM     14  C   UNL     1      46.652   4.211  13.112  0.00  0.00    +0.000 A 
ATOM     15  S   UNL     1      45.263   3.398  12.555  0.00  0.00    +0.000 S 
ATOM     16  C   UNL     1      44.547   4.855  12.050  0.00  0.00    +0.000 A 
ATOM     17  N   UNL     1      43.329   4.855  11.442  0.00  0.00    +0.000 NA
ATOM     18  C   UNL     1      42.902   6.024  11.103  0.00  0.00    +0.000 A 
ATOM     19  N   UNL     1      43.574   7.194  11.329  0.00  0.00    +0.000 N 
ATOM     20  C   UNL     1      44.800   7.245  11.950  0.00  0.00    +0.000 A 
ATOM     21  O   UNL     1      45.363   8.316  12.150  0.00  0.00    +0.000 OA
ATOM     22  C   UNL     1      45.344   5.953  12.328  0.00  0.00    +0.000 A 
ATOM     23  H   UNL     1      43.180   8.082  11.051  0.00  0.00    +0.000 HD
ENDBRANCH  10  13
ENDBRANCH   8   9
ENDBRANCH   1   8
BRANCH   4  24
ATOM     24  C   UNL     1      51.205   5.403  19.808  0.00  0.00    +0.000 C 
BRANCH  24  25
ATOM     25  N   UNL     1      51.748   4.085  19.543  0.00  0.00    +0.000 N 
ATOM     26  C   UNL     1      52.901   3.904  18.809  0.00  0.00    +0.000 C 
ATOM     27  O   UNL     1      53.542   4.828  18.333  0.00  0.00    +0.000 OA
ATOM     28  H   UNL     1      51.366   3.328  20.093  0.00  0.00    +0.000 HD
BRANCH  26  29
ATOM     29  C   UNL     1      53.292   2.490  18.589  0.00  0.00    +0.000 A 
ATOM     30  C   UNL     1      54.489   2.011  19.142  0.00  0.00    +0.000 A 
ATOM     31  C   UNL     1      54.864   0.684  18.946  0.00  0.00    +0.000 A 
ATOM     32  C   UNL     1      54.021  -0.131  18.213  0.00  0.00    +0.000 A 
ATOM     33  N   UNL     1      52.854   0.289  17.680  0.00  0.00    +0.000 NA
ATOM     34  C   UNL     1      52.508   1.588  17.883  0.00  0.00    +0.000 A 
ATOM     35 CL   UNL     1      51.029   1.982  17.098  0.00  0.00    +0.000 Cl
ENDBRANCH  26  29
ENDBRANCH  24  25
ENDBRANCH   4  24
TORSDOF 6
ENDMDL
MODEL 9
REMARK VINA RESULT:    -6.786      5.036      7.248
REMARK INTER + INTRA:          -9.351
REMARK INTER:                  -8.122
REMARK INTRA:                  -1.230
REMARK UNBOUND:                -0.185
REMARK  Name = 
REMARK  7 active torsions:
REMARK  status: ('A' for Active; 'I' for Inactive)
REMARK    1  A    between atoms: C_1  and  C_2
REMARK    2  A    between atoms: C_2  and  N_3
REMARK    3  A    between atoms: C_2  and  C_16
REMARK    4  A    between atoms: C_4  and  C_6
REMARK    5  A    between atoms: C_19  and  C_20
REMARK    6  A    between atoms: C_20  and  N_21
REMARK    7  A    between atoms: C_22  and  C_24
REMARK                            x       y       z     vdW  Elec       q    Type
REMARK                         _______ _______ _______ _____ _____    ______ ____
ROOT
ATOM      1  C   UNL     1      49.209   9.716  11.914  0.00  0.00    +0.000 A 
ATOM      2  C   UNL     1      49.316   8.413  11.413  0.00  0.00    +0.000 A 
ATOM      3  C   UNL     1      48.421   7.429  11.827  0.00  0.00    +0.000 A 
ATOM      4  C   UNL     1      47.411   7.772  12.721  0.00  0.00    +0.000 A 
ATOM      5  N   UNL     1      47.277   9.025  13.220  0.00  0.00    +0.000 NA
ATOM      6  C   UNL     1      48.160   9.960  12.795  0.00  0.00    +0.000 A 
ENDROOT
BRANCH   1   8
ATOM      7  C   UNL     1      49.499  12.096  11.068  0.00  0.00    +0.000 C 
ATOM      8  C   UNL     1      50.185  10.787  11.476  0.00  0.00    +0.000 C 
BRANCH   8   9
ATOM      9  N   UNL     1      51.023  10.283  10.404  0.00  0.00    +0.000 N 
ATOM     10  C   UNL     1      52.393  10.299  10.455  0.00  0.00    +0.000 C 
ATOM     11  O   UNL     1      52.993  10.731  11.440  0.00  0.00    +0.000 OA
ATOM     12  H   UNL     1      50.551   9.942   9.572  0.00  0.00    +0.000 HD
BRANCH  10  13
ATOM     13  C   UNL     1      53.124   9.788   9.282  0.00  0.00    +0.000 A 
ATOM     14  C   UNL     1      53.858  10.676   8.502  0.00  0.00    +0.000 A 
ATOM     15  S   UNL     1      54.621   9.954   7.162  0.00  0.00    +0.000 S 
ATOM     16  C   UNL     1      54.002   8.423   7.567  0.00  0.00    +0.000 A 
ATOM     17  N   UNL     1      54.261   7.341   6.783  0.00  0.00    +0.000 NA
ATOM     18  C   UNL     1      53.728   6.242   7.198  0.00  0.00    +0.000 A 
ATOM     19  N   UNL     1      52.973   6.123   8.332  0.00  0.00    +0.000 N 
ATOM     20  C   UNL     1      52.695   7.184   9.161  0.00  0.00    +0.000 A 
ATOM     21  O   UNL     1      52.027   7.033  10.178  0.00  0.00    +0.000 OA
ATOM     22  C   UNL     1      53.246   8.455   8.726  0.00  0.00    +0.000 A 
ATOM     23  H   UNL     1      52.593   5.229   8.612  0.00  0.00    +0.000 HD
ENDBRANCH  10  13
ENDBRANCH   8   9
ENDBRANCH   1   8
BRANCH   4  24
ATOM     24  C   UNL     1      46.418   6.738  13.192  0.00  0.00    +0.000 C 
BRANCH  24  25
ATOM     25  N   UNL     1      46.151   5.735  12.180  0.00  0.00    +0.000 N 
ATOM     26  C   UNL     1      45.061   5.819  11.339  0.00  0.00    +0.000 C 
ATOM     27  O   UNL     1      44.251   6.731  11.385  0.00  0.00    +0.000 OA
ATOM     28  H   UNL     1      46.906   5.094  11.979  0.00  0.00    +0.000 HD
BRANCH  26  29
ATOM     29  C   UNL     1      44.907   4.687  10.393  0.00  0.00    +0.000 A 
ATOM     30  C   UNL     1      45.473   4.774   9.113  0.00  0.00    +0.000 A 
ATOM     31  C   UNL     1      45.339   3.715   8.219  0.00  0.00    +0.000 A 
ATOM     32  C   UNL     1      44.652   2.590   8.638  0.00  0.00    +0.000 A 
ATOM     33  N   UNL     1      44.108   2.463   9.866  0.00  0.00    +0.000 NA
ATOM     34  C   UNL     1      44.251   3.509  10.723  0.00  0.00    +0.000 A 
ATOM     35 CL   UNL     1      43.457   3.217  12.222  0.00  0.00    +0.000 Cl
ENDBRANCH  26  29
ENDBRANCH  24  25
ENDBRANCH   4  24
TORSDOF 6
ENDMDL
