MODEL 1
REMARK VINA RESULT:    -7.979      0.000      0.000
REMARK INTER + INTRA:         -12.281
REMARK INTER:                 -11.244
REMARK INTRA:                  -1.036
REMARK UNBOUND:                -1.036
REMARK  Name = 
REMARK  7 active torsions:
REMARK  status: ('A' for Active; 'I' for Inactive)
REMARK    1  A    between atoms: C_2  and  C_4
REMARK    2  A    between atoms: C_7  and  O_8
REMARK    3  A    between atoms: O_8  and  C_9
REMARK    4  A    between atoms: C_9  and  C_10
REMARK    5  A    between atoms: C_10  and  C_11
REMARK    6  A    between atoms: C_13  and  O_14
REMARK    7  A    between atoms: O_14  and  C_15
REMARK                            x       y       z     vdW  Elec       q    Type
REMARK                         _______ _______ _______ _____ _____    ______ ____
ROOT
ATOM      1  C   UNL     1      43.336   5.255  12.516  0.00  0.00    +0.000 C 
ENDROOT
BRANCH   1   2
ATOM      2  C   UNL     1      44.804   5.535  12.799  0.00  0.00    +0.000 A 
ATOM      3  C   UNL     1      45.534   4.656  13.633  0.00  0.00    +0.000 A 
ATOM      4  C   UNL     1      46.902   4.850  13.884  0.00  0.00    +0.000 A 
ATOM      5  C   UNL     1      47.566   5.888  13.229  0.00  0.00    +0.000 A 
ATOM      6  C   UNL     1      46.851   6.799  12.453  0.00  0.00    +0.000 A 
ATOM      7  C   UNL     1      45.475   6.646  12.265  0.00  0.00    +0.000 A 
ATOM      8 CL   UNL     1      44.656   7.882  11.382  0.00  0.00    +0.000 Cl
BRANCH   4   9
ATOM      9  O   UNL     1      47.485   3.996  14.797  0.00  0.00    +0.000 OA
BRANCH   9  10
ATOM     10  C   UNL     1      47.317   4.341  16.185  0.00  0.00    +0.000 C 
ATOM     11  C   UNL     1      48.481   5.177  16.681  0.00  0.00    +0.000 C 
ATOM     12  C   UNL     1      49.418   4.195  17.350  0.00  0.00    +0.000 C 
ATOM     13  O   UNL     1      48.697   2.993  17.617  0.00  0.00    +0.000 OA
ATOM     14  C   UNL     1      47.368   3.121  17.100  0.00  0.00    +0.000 C 
ENDBRANCH   9  10
ENDBRANCH   4   9
ENDBRANCH   1   2
BRANCH   1  15
ATOM     15  C   UNL     1      43.067   4.913  11.049  0.00  0.00    +0.000 C 
BRANCH  15  16
ATOM     16  O   UNL     1      43.422   3.549  10.754  0.00  0.00    +0.000 OA
BRANCH  16  20
ATOM     17  C   UNL     1      46.268   2.823   7.855  0.00  0.00    +0.000 A 
ATOM     18  C   UNL     1      45.898   4.146   8.065  0.00  0.00    +0.000 A 
ATOM     19  C   UNL     1      44.937   4.421   9.032  0.00  0.00    +0.000 A 
ATOM     20  C   UNL     1      44.370   3.385   9.775  0.00  0.00    +0.000 A 
ATOM     21  C   UNL     1      44.806   2.093   9.489  0.00  0.00    +0.000 A 
ATOM     22  N   UNL     1      45.739   1.770   8.544  0.00  0.00    +0.000 NA
BRANCH  17  24
ATOM     23  N   UNL     1      47.204   3.258   5.656  0.00  0.00    +0.000 N 
ATOM     24  C   UNL     1      47.300   2.531   6.812  0.00  0.00    +0.000 C 
ATOM     25  O   UNL     1      48.183   1.696   6.971  0.00  0.00    +0.000 OA
ATOM     26  H   UNL     1      47.879   3.107   4.919  0.00  0.00    +0.000 HD
ATOM     27  H   UNL     1      46.470   3.949   5.556  0.00  0.00    +0.000 HD
ENDBRANCH  17  24
ENDBRANCH  16  20
ENDBRANCH  15  16
ENDBRANCH   1  15
TORSDOF 7
ENDMDL
MODEL 2
REMARK VINA RESULT:    -7.427      3.154      4.950
REMARK INTER + INTRA:         -11.503
REMARK INTER:                 -10.622
REMARK INTRA:                  -0.881
REMARK UNBOUND:                -1.036
REMARK  Name = 
REMARK  7 active torsions:
REMARK  status: ('A' for Active; 'I' for Inactive)
REMARK    1  A    between atoms: C_2  and  C_4
REMARK    2  A    between atoms: C_7  and  O_8
REMARK    3  A    between atoms: O_8  and  C_9
REMARK    4  A    between atoms: C_9  and  C_10
REMARK    5  A    between atoms: C_10  and  C_11
REMARK    6  A    between atoms: C_13  and  O_14
REMARK    7  A    between atoms: O_14  and  C_15
REMARK                            x       y       z     vdW  Elec       q    Type
REMARK                         _______ _______ _______ _____ _____    ______ ____
ROOT
ATOM      1  C   UNL     1      43.599   4.149  12.682  0.00  0.00    +0.000 C 
ENDROOT
BRANCH   1   2
ATOM      2  C   UNL     1      44.651   5.229  12.483  0.00  0.00    +0.000 A 
ATOM      3  C   UNL     1      44.279   6.471  11.917  0.00  0.00    +0.000 A 
ATOM      4  C   UNL     1      45.207   7.513  11.758  0.00  0.00    +0.000 A 
ATOM      5  C   UNL     1      46.503   7.339  12.245  0.00  0.00    +0.000 A 
ATOM      6  C   UNL     1      46.904   6.102  12.749  0.00  0.00    +0.000 A 
ATOM      7  C   UNL     1      45.997   5.043  12.837  0.00  0.00    +0.000 A 
ATOM      8 CL   UNL     1      46.609   3.520  13.369  0.00  0.00    +0.000 Cl
BRANCH   4   9
ATOM      9  O   UNL     1      44.760   8.637  11.097  0.00  0.00    +0.000 OA
BRANCH   9  10
ATOM     10  C   UNL     1      44.728   9.855  11.867  0.00  0.00    +0.000 C 
ATOM     11  C   UNL     1      43.500  10.676  11.531  0.00  0.00    +0.000 C 
ATOM     12  C   UNL     1      43.968  11.691  10.510  0.00  0.00    +0.000 C 
ATOM     13  O   UNL     1      45.392  11.759  10.560  0.00  0.00    +0.000 OA
ATOM     14  C   UNL     1      45.872  10.801  11.510  0.00  0.00    +0.000 C 
ENDBRANCH   9  10
ENDBRANCH   4   9
ENDBRANCH   1   2
BRANCH   1  15
ATOM     15  C   UNL     1      43.625   3.083  11.586  0.00  0.00    +0.000 C 
BRANCH  15  16
ATOM     16  O   UNL     1      43.536   3.674  10.276  0.00  0.00    +0.000 OA
BRANCH  16  20
ATOM     17  C   UNL     1      46.454   2.320   7.691  0.00  0.00    +0.000 A 
ATOM     18  C   UNL     1      46.170   3.680   7.673  0.00  0.00    +0.000 A 
ATOM     19  C   UNL     1      45.187   4.165   8.529  0.00  0.00    +0.000 A 
ATOM     20  C   UNL     1      44.514   3.297   9.389  0.00  0.00    +0.000 A 
ATOM     21  C   UNL     1      44.870   1.952   9.332  0.00  0.00    +0.000 A 
ATOM     22  N   UNL     1      45.820   1.425   8.503  0.00  0.00    +0.000 NA
BRANCH  17  24
ATOM     23  N   UNL     1      48.555   2.651   6.517  0.00  0.00    +0.000 N 
ATOM     24  C   UNL     1      47.510   1.802   6.766  0.00  0.00    +0.000 C 
ATOM     25  O   UNL     1      47.456   0.688   6.258  0.00  0.00    +0.000 OA
ATOM     26  H   UNL     1      49.300   2.351   5.904  0.00  0.00    +0.000 HD
ATOM     27  H   UNL     1      48.579   3.563   6.959  0.00  0.00    +0.000 HD
ENDBRANCH  17  24
ENDBRANCH  16  20
ENDBRANCH  15  16
ENDBRANCH   1  15
TORSDOF 7
ENDMDL
MODEL 3
REMARK VINA RESULT:    -7.136      3.166      7.836
REMARK INTER + INTRA:         -11.093
REMARK INTER:                 -10.193
REMARK INTRA:                  -0.900
REMARK UNBOUND:                -1.036
REMARK  Name = 
REMARK  7 active torsions:
REMARK  status: ('A' for Active; 'I' for Inactive)
REMARK    1  A    between atoms: C_2  and  C_4
REMARK    2  A    between atoms: C_7  and  O_8
REMARK    3  A    between atoms: O_8  and  C_9
REMARK    4  A    between atoms: C_9  and  C_10
REMARK    5  A    between atoms: C_10  and  C_11
REMARK    6  A    between atoms: C_13  and  O_14
REMARK    7  A    between atoms: O_14  and  C_15
REMARK                            x       y       z     vdW  Elec       q    Type
REMARK                         _______ _______ _______ _____ _____    ______ ____
ROOT
ATOM      1  C   UNL     1      45.353   6.408  10.953  0.00  0.00    +0.000 C 
ENDROOT
BRANCH   1   2
ATOM      2  C   UNL     1      44.944   5.039  10.432  0.00  0.00    +0.000 A 
ATOM      3  C   UNL     1      45.367   4.627   9.146  0.00  0.00    +0.000 A 
ATOM      4  C   UNL     1      45.052   3.353   8.644  0.00  0.00    +0.000 A 
ATOM      5  C   UNL     1      44.376   2.453   9.468  0.00  0.00    +0.000 A 
ATOM      6  C   UNL     1      43.898   2.863  10.713  0.00  0.00    +0.000 A 
ATOM      7  C   UNL     1      44.149   4.156  11.179  0.00  0.00    +0.000 A 
ATOM      8 CL   UNL     1      43.426   4.609  12.678  0.00  0.00    +0.000 Cl
BRANCH   4   9
ATOM      9  O   UNL     1      45.423   3.099   7.340  0.00  0.00    +0.000 OA
BRANCH   9  10
ATOM     10  C   UNL     1      46.830   2.897   7.109  0.00  0.00    +0.000 C 
ATOM     11  C   UNL     1      47.173   3.093   5.645  0.00  0.00    +0.000 C 
ATOM     12  C   UNL     1      47.183   1.701   5.050  0.00  0.00    +0.000 C 
ATOM     13  O   UNL     1      47.276   0.756   6.114  0.00  0.00    +0.000 OA
ATOM     14  C   UNL     1      47.262   1.455   7.363  0.00  0.00    +0.000 C 
ENDBRANCH   9  10
ENDBRANCH   4   9
ENDBRANCH   1   2
BRANCH   1  15
ATOM     15  C   UNL     1      46.808   6.457  11.420  0.00  0.00    +0.000 C 
BRANCH  15  16
ATOM     16  O   UNL     1      46.917   7.010  12.745  0.00  0.00    +0.000 OA
BRANCH  16  20
ATOM     17  C   UNL     1      47.923   4.444  15.817  0.00  0.00    +0.000 A 
ATOM     18  C   UNL     1      46.941   4.019  14.930  0.00  0.00    +0.000 A 
ATOM     19  C   UNL     1      46.577   4.865  13.888  0.00  0.00    +0.000 A 
ATOM     20  C   UNL     1      47.197   6.106  13.740  0.00  0.00    +0.000 A 
ATOM     21  C   UNL     1      48.168   6.441  14.681  0.00  0.00    +0.000 A 
ATOM     22  N   UNL     1      48.555   5.651  15.727  0.00  0.00    +0.000 NA
BRANCH  17  24
ATOM     23  N   UNL     1      47.312   3.206  17.816  0.00  0.00    +0.000 N 
ATOM     24  C   UNL     1      48.310   3.532  16.938  0.00  0.00    +0.000 C 
ATOM     25  O   UNL     1      49.447   3.095  17.073  0.00  0.00    +0.000 OA
ATOM     26  H   UNL     1      47.515   2.588  18.589  0.00  0.00    +0.000 HD
ATOM     27  H   UNL     1      46.378   3.574  17.674  0.00  0.00    +0.000 HD
ENDBRANCH  17  24
ENDBRANCH  16  20
ENDBRANCH  15  16
ENDBRANCH   1  15
TORSDOF 7
ENDMDL
MODEL 4
REMARK VINA RESULT:    -6.737      3.400      5.834
REMARK INTER + INTRA:         -10.530
REMARK INTER:                  -9.795
REMARK INTRA:                  -0.735
REMARK UNBOUND:                -1.036
REMARK  Name = 
REMARK  7 active torsions:
REMARK  status: ('A' for Active; 'I' for Inactive)
REMARK    1  A    between atoms: C_2  and  C_4
REMARK    2  A    between atoms: C_7  and  O_8
REMARK    3  A    between atoms: O_8  and  C_9
REMARK    4  A    between atoms: C_9  and  C_10
REMARK    5  A    between atoms: C_10  and  C_11
REMARK    6  A    between atoms: C_13  and  O_14
REMARK    7  A    between atoms: O_14  and  C_15
REMARK                            x       y       z     vdW  Elec       q    Type
REMARK                         _______ _______ _______ _____ _____    ______ ____
ROOT
ATOM      1  C   UNL     1      44.822   5.431  11.739  0.00  0.00    +0.000 C 
ENDROOT
BRANCH   1   2
ATOM      2  C   UNL     1      45.344   6.839  11.976  0.00  0.00    +0.000 A 
ATOM      3  C   UNL     1      44.588   7.949  11.529  0.00  0.00    +0.000 A 
ATOM      4  C   UNL     1      45.009   9.267  11.767  0.00  0.00    +0.000 A 
ATOM      5  C   UNL     1      46.158   9.479  12.530  0.00  0.00    +0.000 A 
ATOM      6  C   UNL     1      46.948   8.400  12.925  0.00  0.00    +0.000 A 
ATOM      7  C   UNL     1      46.565   7.091  12.622  0.00  0.00    +0.000 A 
ATOM      8 CL   UNL     1      47.658   5.828  13.054  0.00  0.00    +0.000 Cl
BRANCH   4   9
ATOM      9  O   UNL     1      44.251  10.266  11.193  0.00  0.00    +0.000 OA
BRANCH   9  10
ATOM     10  C   UNL     1      43.232   9.838  10.269  0.00  0.00    +0.000 C 
ATOM     11  C   UNL     1      43.305  10.626   8.978  0.00  0.00    +0.000 C 
ATOM     12  C   UNL     1      42.280  11.730   9.128  0.00  0.00    +0.000 C 
ATOM     13  O   UNL     1      41.391  11.380  10.187  0.00  0.00    +0.000 OA
ATOM     14  C   UNL     1      41.823  10.146  10.770  0.00  0.00    +0.000 C 
ENDBRANCH   9  10
ENDBRANCH   4   9
ENDBRANCH   1   2
BRANCH   1  15
ATOM     15  C   UNL     1      43.902   5.333  10.522  0.00  0.00    +0.000 C 
BRANCH  15  16
ATOM     16  O   UNL     1      43.664   3.962  10.152  0.00  0.00    +0.000 OA
BRANCH  16  20
ATOM     17  C   UNL     1      46.513   2.498   7.549  0.00  0.00    +0.000 A 
ATOM     18  C   UNL     1      45.912   1.589   8.412  0.00  0.00    +0.000 A 
ATOM     19  C   UNL     1      44.952   2.054   9.304  0.00  0.00    +0.000 A 
ATOM     20  C   UNL     1      44.601   3.404   9.318  0.00  0.00    +0.000 A 
ATOM     21  C   UNL     1      45.261   4.236   8.416  0.00  0.00    +0.000 A 
ATOM     22  N   UNL     1      46.216   3.830   7.527  0.00  0.00    +0.000 NA
BRANCH  17  24
ATOM     23  N   UNL     1      48.613   2.823   6.374  0.00  0.00    +0.000 N 
ATOM     24  C   UNL     1      47.547   1.993   6.593  0.00  0.00    +0.000 C 
ATOM     25  O   UNL     1      47.457   0.906   6.036  0.00  0.00    +0.000 OA
ATOM     26  H   UNL     1      49.345   2.531   5.741  0.00  0.00    +0.000 HD
ATOM     27  H   UNL     1      48.666   3.712   6.856  0.00  0.00    +0.000 HD
ENDBRANCH  17  24
ENDBRANCH  16  20
ENDBRANCH  15  16
ENDBRANCH   1  15
TORSDOF 7
ENDMDL
MODEL 5
REMARK VINA RESULT:    -6.308      3.569      7.260
REMARK INTER + INTRA:          -9.926
REMARK INTER:                  -8.820
REMARK INTRA:                  -1.106
REMARK UNBOUND:                -1.036
REMARK  Name = 
REMARK  7 active torsions:
REMARK  status: ('A' for Active; 'I' for Inactive)
REMARK    1  A    between atoms: C_2  and  C_4
REMARK    2  A    between atoms: C_7  and  O_8
REMARK    3  A    between atoms: O_8  and  C_9
REMARK    4  A    between atoms: C_9  and  C_10
REMARK    5  A    between atoms: C_10  and  C_11
REMARK    6  A    between atoms: C_13  and  O_14
REMARK    7  A    between atoms: O_14  and  C_15
REMARK                            x       y       z     vdW  Elec       q    Type
REMARK                         _______ _______ _______ _____ _____    ______ ____
ROOT
ATOM      1  C   UNL     1      49.096   7.911  11.784  0.00  0.00    +0.000 C 
ENDROOT
BRANCH   1   2
ATOM      2  C   UNL     1      47.576   7.951  11.814  0.00  0.00    +0.000 A 
ATOM      3  C   UNL     1      46.839   6.801  11.444  0.00  0.00    +0.000 A 
ATOM      4  C   UNL     1      45.436   6.779  11.502  0.00  0.00    +0.000 A 
ATOM      5  C   UNL     1      44.766   7.892  12.013  0.00  0.00    +0.000 A 
ATOM      6  C   UNL     1      45.471   9.054  12.324  0.00  0.00    +0.000 A 
ATOM      7  C   UNL     1      46.861   9.098  12.195  0.00  0.00    +0.000 A 
ATOM      8 CL   UNL     1      47.635  10.610  12.496  0.00  0.00    +0.000 Cl
BRANCH   4   9
ATOM      9  O   UNL     1      44.820   5.645  11.016  0.00  0.00    +0.000 OA
BRANCH   9  10
ATOM     10  C   UNL     1      45.231   4.397  11.606  0.00  0.00    +0.000 C 
ATOM     11  C   UNL     1      44.558   3.225  10.921  0.00  0.00    +0.000 C 
ATOM     12  C   UNL     1      43.362   2.893  11.786  0.00  0.00    +0.000 C 
ATOM     13  O   UNL     1      43.548   3.498  13.065  0.00  0.00    +0.000 OA
ATOM     14  C   UNL     1      44.763   4.253  13.052  0.00  0.00    +0.000 C 
ENDBRANCH   9  10
ENDBRANCH   4   9
ENDBRANCH   1   2
BRANCH   1  15
ATOM     15  C   UNL     1      49.700   7.288  13.043  0.00  0.00    +0.000 C 
BRANCH  15  16
ATOM     16  O   UNL     1      49.025   7.743  14.231  0.00  0.00    +0.000 OA
BRANCH  16  20
ATOM     17  C   UNL     1      47.916   4.697  16.785  0.00  0.00    +0.000 A 
ATOM     18  C   UNL     1      48.725   5.701  17.305  0.00  0.00    +0.000 A 
ATOM     19  C   UNL     1      49.119   6.738  16.467  0.00  0.00    +0.000 A 
ATOM     20  C   UNL     1      48.699   6.764  15.137  0.00  0.00    +0.000 A 
ATOM     21  C   UNL     1      47.891   5.712  14.710  0.00  0.00    +0.000 A 
ATOM     22  N   UNL     1      47.485   4.668  15.490  0.00  0.00    +0.000 NA
BRANCH  17  24
ATOM     23  N   UNL     1      48.229   3.436  18.837  0.00  0.00    +0.000 N 
ATOM     24  C   UNL     1      47.496   3.582  17.690  0.00  0.00    +0.000 C 
ATOM     25  O   UNL     1      46.556   2.841  17.433  0.00  0.00    +0.000 OA
ATOM     26  H   UNL     1      47.986   2.702  19.489  0.00  0.00    +0.000 HD
ATOM     27  H   UNL     1      48.995   4.070  19.030  0.00  0.00    +0.000 HD
ENDBRANCH  17  24
ENDBRANCH  16  20
ENDBRANCH  15  16
ENDBRANCH   1  15
TORSDOF 7
ENDMDL
MODEL 6
REMARK VINA RESULT:    -6.077      3.582      7.990
REMARK INTER + INTRA:          -9.600
REMARK INTER:                  -9.359
REMARK INTRA:                  -0.242
REMARK UNBOUND:                -1.036
REMARK  Name = 
REMARK  7 active torsions:
REMARK  status: ('A' for Active; 'I' for Inactive)
REMARK    1  A    between atoms: C_2  and  C_4
REMARK    2  A    between atoms: C_7  and  O_8
REMARK    3  A    between atoms: O_8  and  C_9
REMARK    4  A    between atoms: C_9  and  C_10
REMARK    5  A    between atoms: C_10  and  C_11
REMARK    6  A    between atoms: C_13  and  O_14
REMARK    7  A    between atoms: O_14  and  C_15
REMARK                            x       y       z     vdW  Elec       q    Type
REMARK                         _______ _______ _______ _____ _____    ______ ____
ROOT
ATOM      1  C   UNL     1      47.237   5.464  14.485  0.00  0.00    +0.000 C 
ENDROOT
BRANCH   1   2
ATOM      2  C   UNL     1      46.304   5.533  13.286  0.00  0.00    +0.000 A 
ATOM      3  C   UNL     1      45.865   4.336  12.674  0.00  0.00    +0.000 A 
ATOM      4  C   UNL     1      44.966   4.351  11.594  0.00  0.00    +0.000 A 
ATOM      5  C   UNL     1      44.439   5.574  11.175  0.00  0.00    +0.000 A 
ATOM      6  C   UNL     1      44.907   6.766  11.725  0.00  0.00    +0.000 A 
ATOM      7  C   UNL     1      45.857   6.750  12.750  0.00  0.00    +0.000 A 
ATOM      8 CL   UNL     1      46.459   8.274  13.293  0.00  0.00    +0.000 Cl
BRANCH   4   9
ATOM      9  O   UNL     1      44.692   3.134  11.007  0.00  0.00    +0.000 OA
BRANCH   9  10
ATOM     10  C   UNL     1      44.389   3.163   9.599  0.00  0.00    +0.000 C 
ATOM     11  C   UNL     1      44.478   1.775   8.996  0.00  0.00    +0.000 C 
ATOM     12  C   UNL     1      45.862   1.694   8.389  0.00  0.00    +0.000 C 
ATOM     13  O   UNL     1      46.374   3.019   8.252  0.00  0.00    +0.000 OA
ATOM     14  C   UNL     1      45.426   3.944   8.795  0.00  0.00    +0.000 C 
ENDBRANCH   9  10
ENDBRANCH   4   9
ENDBRANCH   1   2
BRANCH   1  15
ATOM     15  C   UNL     1      46.987   4.237  15.365  0.00  0.00    +0.000 C 
BRANCH  15  16
ATOM     16  O   UNL     1      47.504   4.430  16.695  0.00  0.00    +0.000 OA
BRANCH  16  20
ATOM     17  C   UNL     1      50.951   2.279  17.413  0.00  0.00    +0.000 A 
ATOM     18  C   UNL     1      50.883   3.564  17.936  0.00  0.00    +0.000 A 
ATOM     19  C   UNL     1      49.736   4.315  17.706  0.00  0.00    +0.000 A 
ATOM     20  C   UNL     1      48.679   3.777  16.972  0.00  0.00    +0.000 A 
ATOM     21  C   UNL     1      48.844   2.481  16.488  0.00  0.00    +0.000 A 
ATOM     22  N   UNL     1      49.953   1.706  16.679  0.00  0.00    +0.000 NA
BRANCH  17  24
ATOM     23  N   UNL     1      52.994   1.915  18.677  0.00  0.00    +0.000 N 
ATOM     24  C   UNL     1      52.189   1.475  17.661  0.00  0.00    +0.000 C 
ATOM     25  O   UNL     1      52.474   0.481  17.004  0.00  0.00    +0.000 OA
ATOM     26  H   UNL     1      53.840   1.407  18.892  0.00  0.00    +0.000 HD
ATOM     27  H   UNL     1      52.728   2.734  19.210  0.00  0.00    +0.000 HD
ENDBRANCH  17  24
ENDBRANCH  16  20
ENDBRANCH  15  16
ENDBRANCH   1  15
TORSDOF 7
ENDMDL
MODEL 7
REMARK VINA RESULT:    -5.711      4.244      6.978
REMARK INTER + INTRA:          -9.084
REMARK INTER:                  -7.980
REMARK INTRA:                  -1.105
REMARK UNBOUND:                -1.036
REMARK  Name = 
REMARK  7 active torsions:
REMARK  status: ('A' for Active; 'I' for Inactive)
REMARK    1  A    between atoms: C_2  and  C_4
REMARK    2  A    between atoms: C_7  and  O_8
REMARK    3  A    between atoms: O_8  and  C_9
REMARK    4  A    between atoms: C_9  and  C_10
REMARK    5  A    between atoms: C_10  and  C_11
REMARK    6  A    between atoms: C_13  and  O_14
REMARK    7  A    between atoms: O_14  and  C_15
REMARK                            x       y       z     vdW  Elec       q    Type
REMARK                         _______ _______ _______ _____ _____    ______ ____
ROOT
ATOM      1  C   UNL     1      49.703   7.675  13.589  0.00  0.00    +0.000 C 
ENDROOT
BRANCH   1   2
ATOM      2  C   UNL     1      49.465   8.850  12.653  0.00  0.00    +0.000 A 
ATOM      3  C   UNL     1      48.245   9.565  12.726  0.00  0.00    +0.000 A 
ATOM      4  C   UNL     1      48.002  10.684  11.914  0.00  0.00    +0.000 A 
ATOM      5  C   UNL     1      49.020  11.144  11.078  0.00  0.00    +0.000 A 
ATOM      6  C   UNL     1      50.204  10.417  10.948  0.00  0.00    +0.000 A 
ATOM      7  C   UNL     1      50.413   9.261  11.704  0.00  0.00    +0.000 A 
ATOM      8 CL   UNL     1      51.858   8.368  11.397  0.00  0.00    +0.000 Cl
BRANCH   4   9
ATOM      9  O   UNL     1      46.740  11.236  11.991  0.00  0.00    +0.000 OA
BRANCH   9  10
ATOM     10  C   UNL     1      45.714  10.582  11.220  0.00  0.00    +0.000 C 
ATOM     11  C   UNL     1      44.967  11.578  10.357  0.00  0.00    +0.000 C 
ATOM     12  C   UNL     1      43.725  11.934  11.146  0.00  0.00    +0.000 C 
ATOM     13  O   UNL     1      43.528  10.941  12.151  0.00  0.00    +0.000 OA
ATOM     14  C   UNL     1      44.607  10.002  12.096  0.00  0.00    +0.000 C 
ENDBRANCH   9  10
ENDBRANCH   4   9
ENDBRANCH   1   2
BRANCH   1  15
ATOM     15  C   UNL     1      48.420   7.173  14.253  0.00  0.00    +0.000 C 
BRANCH  15  16
ATOM     16  O   UNL     1      48.192   5.780  13.967  0.00  0.00    +0.000 OA
BRANCH  16  20
ATOM     17  C   UNL     1      44.601   4.733  12.223  0.00  0.00    +0.000 A 
ATOM     18  C   UNL     1      45.273   5.826  11.688  0.00  0.00    +0.000 A 
ATOM     19  C   UNL     1      46.483   6.205  12.258  0.00  0.00    +0.000 A 
ATOM     20  C   UNL     1      47.006   5.492  13.338  0.00  0.00    +0.000 A 
ATOM     21  C   UNL     1      46.256   4.414  13.803  0.00  0.00    +0.000 A 
ATOM     22  N   UNL     1      45.060   4.007  13.284  0.00  0.00    +0.000 NA
BRANCH  17  24
ATOM     23  N   UNL     1      42.256   5.198  11.790  0.00  0.00    +0.000 N 
ATOM     24  C   UNL     1      43.298   4.330  11.607  0.00  0.00    +0.000 C 
ATOM     25  O   UNL     1      43.160   3.290  10.975  0.00  0.00    +0.000 OA
ATOM     26  H   UNL     1      41.354   4.979  11.392  0.00  0.00    +0.000 HD
ATOM     27  H   UNL     1      42.402   6.056  12.310  0.00  0.00    +0.000 HD
ENDBRANCH  17  24
ENDBRANCH  16  20
ENDBRANCH  15  16
ENDBRANCH   1  15
TORSDOF 7
ENDMDL
MODEL 8
REMARK VINA RESULT:    -5.691      4.019      6.937
REMARK INTER + INTRA:          -9.057
REMARK INTER:                  -8.267
REMARK INTRA:                  -0.790
REMARK UNBOUND:                -1.036
REMARK  Name = 
REMARK  7 active torsions:
REMARK  status: ('A' for Active; 'I' for Inactive)
REMARK    1  A    between atoms: C_2  and  C_4
REMARK    2  A    between atoms: C_7  and  O_8
REMARK    3  A    between atoms: O_8  and  C_9
REMARK    4  A    between atoms: C_9  and  C_10
REMARK    5  A    between atoms: C_10  and  C_11
REMARK    6  A    between atoms: C_13  and  O_14
REMARK    7  A    between atoms: O_14  and  C_15
REMARK                            x       y       z     vdW  Elec       q    Type
REMARK                         _______ _______ _______ _____ _____    ______ ____
ROOT
ATOM      1  C   UNL     1      48.769   8.364  13.071  0.00  0.00    +0.000 C 
ENDROOT
BRANCH   1   2
ATOM      2  C   UNL     1      47.983   9.441  12.341  0.00  0.00    +0.000 A 
ATOM      3  C   UNL     1      46.585   9.542  12.540  0.00  0.00    +0.000 A 
ATOM      4  C   UNL     1      45.828  10.551  11.922  0.00  0.00    +0.000 A 
ATOM      5  C   UNL     1      46.487  11.517  11.162  0.00  0.00    +0.000 A 
ATOM      6  C   UNL     1      47.852  11.398  10.905  0.00  0.00    +0.000 A 
ATOM      7  C   UNL     1      48.590  10.351  11.461  0.00  0.00    +0.000 A 
ATOM      8 CL   UNL     1      50.248  10.221  11.000  0.00  0.00    +0.000 Cl
BRANCH   4   9
ATOM      9  O   UNL     1      44.462  10.487  12.101  0.00  0.00    +0.000 OA
BRANCH   9  10
ATOM     10  C   UNL     1      43.657  10.977  11.011  0.00  0.00    +0.000 C 
ATOM     11  C   UNL     1      42.588  11.929  11.511  0.00  0.00    +0.000 C 
ATOM     12  C   UNL     1      41.341  11.084  11.655  0.00  0.00    +0.000 C 
ATOM     13  O   UNL     1      41.521   9.881  10.911  0.00  0.00    +0.000 OA
ATOM     14  C   UNL     1      42.837   9.872  10.349  0.00  0.00    +0.000 C 
ENDBRANCH   9  10
ENDBRANCH   4   9
ENDBRANCH   1   2
BRANCH   1  15
ATOM     15  C   UNL     1      47.888   7.482  13.958  0.00  0.00    +0.000 C 
BRANCH  15  16
ATOM     16  O   UNL     1      48.086   6.085  13.671  0.00  0.00    +0.000 OA
BRANCH  16  20
ATOM     17  C   UNL     1      45.012   4.426  11.473  0.00  0.00    +0.000 A 
ATOM     18  C   UNL     1      45.454   3.717  12.583  0.00  0.00    +0.000 A 
ATOM     19  C   UNL     1      46.492   4.249  13.340  0.00  0.00    +0.000 A 
ATOM     20  C   UNL     1      47.064   5.472  12.988  0.00  0.00    +0.000 A 
ATOM     21  C   UNL     1      46.553   6.104  11.858  0.00  0.00    +0.000 A 
ATOM     22  N   UNL     1      45.541   5.620  11.077  0.00  0.00    +0.000 NA
BRANCH  17  24
ATOM     23  N   UNL     1      43.775   4.332   9.385  0.00  0.00    +0.000 N 
ATOM     24  C   UNL     1      43.896   3.849  10.660  0.00  0.00    +0.000 C 
ATOM     25  O   UNL     1      43.132   2.996  11.096  0.00  0.00    +0.000 OA
ATOM     26  H   UNL     1      43.041   3.974   8.788  0.00  0.00    +0.000 HD
ATOM     27  H   UNL     1      44.426   5.030   9.046  0.00  0.00    +0.000 HD
ENDBRANCH  17  24
ENDBRANCH  16  20
ENDBRANCH  15  16
ENDBRANCH   1  15
TORSDOF 7
ENDMDL
MODEL 9
REMARK VINA RESULT:    -5.650      3.452      5.150
REMARK INTER + INTRA:          -8.998
REMARK INTER:                  -7.933
REMARK INTRA:                  -1.065
REMARK UNBOUND:                -1.036
REMARK  Name = 
REMARK  7 active torsions:
REMARK  status: ('A' for Active; 'I' for Inactive)
REMARK    1  A    between atoms: C_2  and  C_4
REMARK    2  A    between atoms: C_7  and  O_8
REMARK    3  A    between atoms: O_8  and  C_9
REMARK    4  A    between atoms: C_9  and  C_10
REMARK    5  A    between atoms: C_10  and  C_11
REMARK    6  A    between atoms: C_13  and  O_14
REMARK    7  A    between atoms: O_14  and  C_15
REMARK                            x       y       z     vdW  Elec       q    Type
REMARK                         _______ _______ _______ _____ _____    ______ ____
ROOT
ATOM      1  C   UNL     1      49.330   9.025  13.138  0.00  0.00    +0.000 C 
ENDROOT
BRANCH   1   2
ATOM      2  C   UNL     1      49.432   8.576  14.587  0.00  0.00    +0.000 A 
ATOM      3  C   UNL     1      49.643   7.208  14.881  0.00  0.00    +0.000 A 
ATOM      4  C   UNL     1      49.790   6.756  16.203  0.00  0.00    +0.000 A 
ATOM      5  C   UNL     1      49.807   7.694  17.237  0.00  0.00    +0.000 A 
ATOM      6  C   UNL     1      49.539   9.036  16.972  0.00  0.00    +0.000 A 
ATOM      7  C   UNL     1      49.319   9.471  15.663  0.00  0.00    +0.000 A 
ATOM      8 CL   UNL     1      48.887  11.127  15.442  0.00  0.00    +0.000 Cl
BRANCH   4   9
ATOM      9  O   UNL     1      49.882   5.392  16.378  0.00  0.00    +0.000 OA
BRANCH   9  10
ATOM     10  C   UNL     1      48.805   4.772  17.107  0.00  0.00    +0.000 C 
ATOM     11  C   UNL     1      49.221   3.413  17.636  0.00  0.00    +0.000 C 
ATOM     12  C   UNL     1      48.704   2.417  16.620  0.00  0.00    +0.000 C 
ATOM     13  O   UNL     1      47.717   3.062  15.817  0.00  0.00    +0.000 OA
ATOM     14  C   UNL     1      47.615   4.433  16.214  0.00  0.00    +0.000 C 
ENDBRANCH   9  10
ENDBRANCH   4   9
ENDBRANCH   1   2
BRANCH   1  15
ATOM     15  C   UNL     1      47.996   8.650  12.491  0.00  0.00    +0.000 C 
BRANCH  15  16
ATOM     16  O   UNL     1      48.103   7.427  11.738  0.00  0.00    +0.000 OA
BRANCH  16  20
ATOM     17  C   UNL     1      44.849   4.920  12.141  0.00  0.00    +0.000 A 
ATOM     18  C   UNL     1      45.137   5.388  10.865  0.00  0.00    +0.000 A 
ATOM     19  C   UNL     1      46.225   6.238  10.698  0.00  0.00    +0.000 A 
ATOM     20  C   UNL     1      47.007   6.601  11.795  0.00  0.00    +0.000 A 
ATOM     21  C   UNL     1      46.637   6.081  13.033  0.00  0.00    +0.000 A 
ATOM     22  N   UNL     1      45.574   5.250  13.250  0.00  0.00    +0.000 NA
BRANCH  17  24
ATOM     23  N   UNL     1      42.496   4.440  11.777  0.00  0.00    +0.000 N 
ATOM     24  C   UNL     1      43.677   4.006  12.315  0.00  0.00    +0.000 C 
ATOM     25  O   UNL     1      43.757   2.932  12.900  0.00  0.00    +0.000 OA
ATOM     26  H   UNL     1      41.672   3.861  11.860  0.00  0.00    +0.000 HD
ATOM     27  H   UNL     1      42.461   5.328  11.290  0.00  0.00    +0.000 HD
ENDBRANCH  17  24
ENDBRANCH  16  20
ENDBRANCH  15  16
ENDBRANCH   1  15
TORSDOF 7
ENDMDL
