MODEL 1
REMARK VINA RESULT:    -7.817      0.000      0.000
REMARK INTER + INTRA:          -9.720
REMARK INTER:                  -9.188
REMARK INTRA:                  -0.532
REMARK UNBOUND:                -0.532
REMARK  Name = 
REMARK  3 active torsions:
REMARK  status: ('A' for Active; 'I' for Inactive)
REMARK    1  A    between atoms: N_6  and  C_7
REMARK    2  A    between atoms: C_7  and  C_8
REMARK    3  A    between atoms: C_12  and  C_13
REMARK                            x       y       z     vdW  Elec       q    Type
REMARK                         _______ _______ _______ _____ _____    ______ ____
ROOT
ATOM      1  C   UNL     1      44.093   4.828  11.638  0.00  0.00    +0.000 C 
ATOM      2  C   UNL     1      42.849   5.126  12.473  0.00  0.00    +0.000 C 
ATOM      3  C   UNL     1      43.171   5.992  11.305  0.00  0.00    +0.000 C 
ENDROOT
BRANCH   1   9
ATOM      4 BR   UNL     1      47.207   2.459   5.950  0.00  0.00    +0.000 Br
ATOM      5  C   UNL     1      46.209   2.814   7.497  0.00  0.00    +0.000 A 
ATOM      6  C   UNL     1      45.845   1.826   8.378  0.00  0.00    +0.000 A 
ATOM      7  N   UNL     1      45.138   2.062   9.508  0.00  0.00    +0.000 NA
ATOM      8  C   UNL     1      44.792   3.333   9.762  0.00  0.00    +0.000 A 
ATOM      9  N   UNL     1      44.062   3.544  10.932  0.00  0.00    +0.000 N 
ATOM     10  N   UNL     1      45.101   4.362   8.954  0.00  0.00    +0.000 NA
ATOM     11  C   UNL     1      45.800   4.080   7.834  0.00  0.00    +0.000 A 
ATOM     12  H   UNL     1      44.136   2.693  11.478  0.00  0.00    +0.000 HD
ENDBRANCH   1   9
BRANCH   1  13
ATOM     13  C   UNL     1      45.468   5.267  12.130  0.00  0.00    +0.000 A 
ATOM     14  C   UNL     1      46.133   6.344  11.518  0.00  0.00    +0.000 A 
ATOM     15  C   UNL     1      47.273   6.905  12.086  0.00  0.00    +0.000 A 
ATOM     16  C   UNL     1      47.770   6.401  13.287  0.00  0.00    +0.000 A 
ATOM     17  C   UNL     1      47.168   5.297  13.913  0.00  0.00    +0.000 A 
ATOM     18  C   UNL     1      46.048   4.720  13.286  0.00  0.00    +0.000 A 
BRANCH  17  19
ATOM     19  C   UNL     1      47.615   4.813  15.231  0.00  0.00    +0.000 A 
ATOM     20  C   UNL     1      47.334   3.521  15.694  0.00  0.00    +0.000 A 
ATOM     21  C   UNL     1      47.709   3.130  16.979  0.00  0.00    +0.000 A 
ATOM     22  C   UNL     1      48.376   4.046  17.775  0.00  0.00    +0.000 A 
ATOM     23  N   UNL     1      48.680   5.296  17.378  0.00  0.00    +0.000 NA
ATOM     24  C   UNL     1      48.289   5.648  16.128  0.00  0.00    +0.000 A 
ENDBRANCH  17  19
ENDBRANCH   1  13
TORSDOF 3
ENDMDL
MODEL 2
REMARK VINA RESULT:    -7.645      2.083      3.672
REMARK INTER + INTRA:          -9.518
REMARK INTER:                  -8.770
REMARK INTRA:                  -0.748
REMARK UNBOUND:                -0.532
REMARK  Name = 
REMARK  3 active torsions:
REMARK  status: ('A' for Active; 'I' for Inactive)
REMARK    1  A    between atoms: N_6  and  C_7
REMARK    2  A    between atoms: C_7  and  C_8
REMARK    3  A    between atoms: C_12  and  C_13
REMARK                            x       y       z     vdW  Elec       q    Type
REMARK                         _______ _______ _______ _____ _____    ______ ____
ROOT
ATOM      1  C   UNL     1      43.789   4.936  11.524  0.00  0.00    +0.000 C 
ATOM      2  C   UNL     1      42.430   5.376  12.064  0.00  0.00    +0.000 C 
ATOM      3  C   UNL     1      43.098   6.191  11.011  0.00  0.00    +0.000 C 
ENDROOT
BRANCH   1   9
ATOM      4 BR   UNL     1      47.429   2.425   6.222  0.00  0.00    +0.000 Br
ATOM      5  C   UNL     1      46.275   2.827   7.644  0.00  0.00    +0.000 A 
ATOM      6  C   UNL     1      45.762   1.856   8.469  0.00  0.00    +0.000 A 
ATOM      7  N   UNL     1      44.940   2.125   9.510  0.00  0.00    +0.000 NA
ATOM      8  C   UNL     1      44.629   3.412   9.732  0.00  0.00    +0.000 A 
ATOM      9  N   UNL     1      43.778   3.656  10.810  0.00  0.00    +0.000 N 
ATOM     10  N   UNL     1      45.081   4.425   8.973  0.00  0.00    +0.000 NA
ATOM     11  C   UNL     1      45.892   4.111   7.941  0.00  0.00    +0.000 A 
ATOM     12  H   UNL     1      43.745   2.802  11.354  0.00  0.00    +0.000 HD
ENDBRANCH   1   9
BRANCH   1  13
ATOM     13  C   UNL     1      45.058   5.227  12.319  0.00  0.00    +0.000 A 
ATOM     14  C   UNL     1      45.621   4.242  13.149  0.00  0.00    +0.000 A 
ATOM     15  C   UNL     1      46.888   4.401  13.701  0.00  0.00    +0.000 A 
ATOM     16  C   UNL     1      47.625   5.552  13.428  0.00  0.00    +0.000 A 
ATOM     17  C   UNL     1      47.088   6.585  12.641  0.00  0.00    +0.000 A 
ATOM     18  C   UNL     1      45.784   6.416  12.140  0.00  0.00    +0.000 A 
BRANCH  17  19
ATOM     19  C   UNL     1      47.885   7.763  12.257  0.00  0.00    +0.000 A 
ATOM     20  C   UNL     1      47.338   9.050  12.179  0.00  0.00    +0.000 A 
ATOM     21  C   UNL     1      48.110  10.124  11.737  0.00  0.00    +0.000 A 
ATOM     22  C   UNL     1      49.429   9.886  11.393  0.00  0.00    +0.000 A 
ATOM     23  N   UNL     1      50.010   8.672  11.459  0.00  0.00    +0.000 NA
ATOM     24  C   UNL     1      49.227   7.648  11.880  0.00  0.00    +0.000 A 
ENDBRANCH  17  19
ENDBRANCH   1  13
TORSDOF 3
ENDMDL
MODEL 3
REMARK VINA RESULT:    -7.072      3.119      7.229
REMARK INTER + INTRA:          -8.844
REMARK INTER:                  -9.186
REMARK INTRA:                   0.342
REMARK UNBOUND:                -0.532
REMARK  Name = 
REMARK  3 active torsions:
REMARK  status: ('A' for Active; 'I' for Inactive)
REMARK    1  A    between atoms: N_6  and  C_7
REMARK    2  A    between atoms: C_7  and  C_8
REMARK    3  A    between atoms: C_12  and  C_13
REMARK                            x       y       z     vdW  Elec       q    Type
REMARK                         _______ _______ _______ _____ _____    ______ ____
ROOT
ATOM      1  C   UNL     1      44.716   3.267  12.058  0.00  0.00    +0.000 C 
ATOM      2  C   UNL     1      43.532   3.810  12.854  0.00  0.00    +0.000 C 
ATOM      3  C   UNL     1      43.368   2.560  12.061  0.00  0.00    +0.000 C 
ENDROOT
BRANCH   1   9
ATOM      4 BR   UNL     1      48.975   6.568  16.374  0.00  0.00    +0.000 Br
ATOM      5  C   UNL     1      48.008   5.412  15.259  0.00  0.00    +0.000 A 
ATOM      6  C   UNL     1      47.896   4.068  15.516  0.00  0.00    +0.000 A 
ATOM      7  N   UNL     1      47.190   3.219  14.733  0.00  0.00    +0.000 NA
ATOM      8  C   UNL     1      46.573   3.739  13.661  0.00  0.00    +0.000 A 
ATOM      9  N   UNL     1      45.856   2.839  12.873  0.00  0.00    +0.000 N 
ATOM     10  N   UNL     1      46.631   5.042  13.332  0.00  0.00    +0.000 NA
ATOM     11  C   UNL     1      47.352   5.851  14.136  0.00  0.00    +0.000 A 
ATOM     12  H   UNL     1      45.767   1.986  13.414  0.00  0.00    +0.000 HD
ENDBRANCH   1   9
BRANCH   1  13
ATOM     13  C   UNL     1      45.075   3.878  10.707  0.00  0.00    +0.000 A 
ATOM     14  C   UNL     1      45.263   5.265  10.580  0.00  0.00    +0.000 A 
ATOM     15  C   UNL     1      45.807   5.817   9.424  0.00  0.00    +0.000 A 
ATOM     16  C   UNL     1      46.183   4.987   8.369  0.00  0.00    +0.000 A 
ATOM     17  C   UNL     1      45.974   3.599   8.431  0.00  0.00    +0.000 A 
ATOM     18  C   UNL     1      45.373   3.078   9.592  0.00  0.00    +0.000 A 
BRANCH  17  19
ATOM     19  C   UNL     1      46.454   2.694   7.371  0.00  0.00    +0.000 A 
ATOM     20  C   UNL     1      46.567   3.094   6.033  0.00  0.00    +0.000 A 
ATOM     21  C   UNL     1      46.952   2.183   5.050  0.00  0.00    +0.000 A 
ATOM     22  C   UNL     1      47.232   0.883   5.434  0.00  0.00    +0.000 A 
ATOM     23  N   UNL     1      47.151   0.447   6.706  0.00  0.00    +0.000 NA
ATOM     24  C   UNL     1      46.760   1.355   7.634  0.00  0.00    +0.000 A 
ENDBRANCH  17  19
ENDBRANCH   1  13
TORSDOF 3
ENDMDL
MODEL 4
REMARK VINA RESULT:    -6.694      3.666      7.699
REMARK INTER + INTRA:          -8.400
REMARK INTER:                  -7.767
REMARK INTRA:                  -0.634
REMARK UNBOUND:                -0.532
REMARK  Name = 
REMARK  3 active torsions:
REMARK  status: ('A' for Active; 'I' for Inactive)
REMARK    1  A    between atoms: N_6  and  C_7
REMARK    2  A    between atoms: C_7  and  C_8
REMARK    3  A    between atoms: C_12  and  C_13
REMARK                            x       y       z     vdW  Elec       q    Type
REMARK                         _______ _______ _______ _____ _____    ______ ____
ROOT
ATOM      1  C   UNL     1      48.921   7.940  12.597  0.00  0.00    +0.000 C 
ATOM      2  C   UNL     1      49.836   8.341  11.442  0.00  0.00    +0.000 C 
ATOM      3  C   UNL     1      49.317   9.391  12.362  0.00  0.00    +0.000 C 
ENDROOT
BRANCH   1   9
ATOM      4 BR   UNL     1      48.264   7.399  19.448  0.00  0.00    +0.000 Br
ATOM      5  C   UNL     1      48.677   7.322  17.621  0.00  0.00    +0.000 A 
ATOM      6  C   UNL     1      49.122   6.172  17.017  0.00  0.00    +0.000 A 
ATOM      7  N   UNL     1      49.411   6.090  15.698  0.00  0.00    +0.000 NA
ATOM      8  C   UNL     1      49.241   7.198  14.961  0.00  0.00    +0.000 A 
ATOM      9  N   UNL     1      49.549   7.082  13.605  0.00  0.00    +0.000 N 
ATOM     10  N   UNL     1      48.813   8.368  15.468  0.00  0.00    +0.000 NA
ATOM     11  C   UNL     1      48.545   8.406  16.790  0.00  0.00    +0.000 A 
ATOM     12  H   UNL     1      49.632   6.092  13.409  0.00  0.00    +0.000 HD
ENDBRANCH   1   9
BRANCH   1  13
ATOM     13  C   UNL     1      47.441   7.669  12.343  0.00  0.00    +0.000 A 
ATOM     14  C   UNL     1      46.488   8.684  12.536  0.00  0.00    +0.000 A 
ATOM     15  C   UNL     1      45.176   8.534  12.099  0.00  0.00    +0.000 A 
ATOM     16  C   UNL     1      44.790   7.362  11.451  0.00  0.00    +0.000 A 
ATOM     17  C   UNL     1      45.694   6.301  11.275  0.00  0.00    +0.000 A 
ATOM     18  C   UNL     1      46.999   6.464  11.774  0.00  0.00    +0.000 A 
BRANCH  17  19
ATOM     19  C   UNL     1      45.337   5.096  10.505  0.00  0.00    +0.000 A 
ATOM     20  C   UNL     1      45.596   4.974   9.134  0.00  0.00    +0.000 A 
ATOM     21  C   UNL     1      45.171   3.848   8.429  0.00  0.00    +0.000 A 
ATOM     22  C   UNL     1      44.502   2.854   9.121  0.00  0.00    +0.000 A 
ATOM     23  N   UNL     1      44.235   2.914  10.440  0.00  0.00    +0.000 NA
ATOM     24  C   UNL     1      44.650   4.028  11.092  0.00  0.00    +0.000 A 
ENDBRANCH  17  19
ENDBRANCH   1  13
TORSDOF 3
ENDMDL
MODEL 5
REMARK VINA RESULT:    -6.289      4.122      7.259
REMARK INTER + INTRA:          -7.925
REMARK INTER:                  -7.490
REMARK INTRA:                  -0.435
REMARK UNBOUND:                -0.532
REMARK  Name = 
REMARK  3 active torsions:
REMARK  status: ('A' for Active; 'I' for Inactive)
REMARK    1  A    between atoms: N_6  and  C_7
REMARK    2  A    between atoms: C_7  and  C_8
REMARK    3  A    between atoms: C_12  and  C_13
REMARK                            x       y       z     vdW  Elec       q    Type
REMARK                         _______ _______ _______ _____ _____    ______ ____
ROOT
ATOM      1  C   UNL     1      45.733   7.993  12.463  0.00  0.00    +0.000 C 
ATOM      2  C   UNL     1      46.978   7.789  13.324  0.00  0.00    +0.000 C 
ATOM      3  C   UNL     1      47.133   8.073  11.870  0.00  0.00    +0.000 C 
ENDROOT
BRANCH   1   9
ATOM      4 BR   UNL     1      42.495  12.815   8.730  0.00  0.00    +0.000 Br
ATOM      5  C   UNL     1      43.281  11.682  10.001  0.00  0.00    +0.000 A 
ATOM      6  C   UNL     1      42.751  11.509  11.256  0.00  0.00    +0.000 A 
ATOM      7  N   UNL     1      43.293  10.685  12.183  0.00  0.00    +0.000 NA
ATOM      8  C   UNL     1      44.399  10.010  11.835  0.00  0.00    +0.000 A 
ATOM      9  N   UNL     1      44.934   9.171  12.812  0.00  0.00    +0.000 N 
ATOM     10  N   UNL     1      44.987  10.121  10.631  0.00  0.00    +0.000 NA
ATOM     11  C   UNL     1      44.417  10.960   9.739  0.00  0.00    +0.000 A 
ATOM     12  H   UNL     1      44.228   9.076  13.533  0.00  0.00    +0.000 HD
ENDBRANCH   1   9
BRANCH   1  13
ATOM     13  C   UNL     1      44.936   6.789  11.971  0.00  0.00    +0.000 A 
ATOM     14  C   UNL     1      43.558   6.694  12.229  0.00  0.00    +0.000 A 
ATOM     15  C   UNL     1      42.771   5.730  11.604  0.00  0.00    +0.000 A 
ATOM     16  C   UNL     1      43.351   4.842  10.699  0.00  0.00    +0.000 A 
ATOM     17  C   UNL     1      44.732   4.869  10.443  0.00  0.00    +0.000 A 
ATOM     18  C   UNL     1      45.507   5.821  11.130  0.00  0.00    +0.000 A 
BRANCH  17  19
ATOM     19  C   UNL     1      45.347   4.008   9.417  0.00  0.00    +0.000 A 
ATOM     20  C   UNL     1      45.992   4.526   8.286  0.00  0.00    +0.000 A 
ATOM     21  C   UNL     1      46.492   3.675   7.302  0.00  0.00    +0.000 A 
ATOM     22  C   UNL     1      46.347   2.310   7.479  0.00  0.00    +0.000 A 
ATOM     23  N   UNL     1      45.746   1.757   8.550  0.00  0.00    +0.000 NA
ATOM     24  C   UNL     1      45.259   2.614   9.482  0.00  0.00    +0.000 A 
ENDBRANCH  17  19
ENDBRANCH   1  13
TORSDOF 3
ENDMDL
MODEL 6
REMARK VINA RESULT:    -6.094      3.140      6.901
REMARK INTER + INTRA:          -7.695
REMARK INTER:                  -7.229
REMARK INTRA:                  -0.466
REMARK UNBOUND:                -0.532
REMARK  Name = 
REMARK  3 active torsions:
REMARK  status: ('A' for Active; 'I' for Inactive)
REMARK    1  A    between atoms: N_6  and  C_7
REMARK    2  A    between atoms: C_7  and  C_8
REMARK    3  A    between atoms: C_12  and  C_13
REMARK                            x       y       z     vdW  Elec       q    Type
REMARK                         _______ _______ _______ _____ _____    ______ ____
ROOT
ATOM      1  C   UNL     1      46.111   5.311  13.415  0.00  0.00    +0.000 C 
ATOM      2  C   UNL     1      46.264   4.427  14.651  0.00  0.00    +0.000 C 
ATOM      3  C   UNL     1      47.312   4.392  13.593  0.00  0.00    +0.000 C 
ENDROOT
BRANCH   1   9
ATOM      4 BR   UNL     1      49.877  10.522  10.901  0.00  0.00    +0.000 Br
ATOM      5  C   UNL     1      48.729   9.331  11.783  0.00  0.00    +0.000 A 
ATOM      6  C   UNL     1      47.513   9.723  12.289  0.00  0.00    +0.000 A 
ATOM      7  N   UNL     1      46.662   8.878  12.915  0.00  0.00    +0.000 NA
ATOM      8  C   UNL     1      47.043   7.596  13.032  0.00  0.00    +0.000 A 
ATOM      9  N   UNL     1      46.146   6.750  13.684  0.00  0.00    +0.000 N 
ATOM     10  N   UNL     1      48.216   7.126  12.571  0.00  0.00    +0.000 NA
ATOM     11  C   UNL     1      49.037   8.006  11.959  0.00  0.00    +0.000 A 
ATOM     12  H   UNL     1      45.266   7.250  13.743  0.00  0.00    +0.000 HD
ENDBRANCH   1   9
BRANCH   1  13
ATOM     13  C   UNL     1      45.188   4.883  12.279  0.00  0.00    +0.000 A 
ATOM     14  C   UNL     1      43.867   5.360  12.216  0.00  0.00    +0.000 A 
ATOM     15  C   UNL     1      43.084   5.170  11.082  0.00  0.00    +0.000 A 
ATOM     16  C   UNL     1      43.611   4.500   9.979  0.00  0.00    +0.000 A 
ATOM     17  C   UNL     1      44.910   3.965  10.010  0.00  0.00    +0.000 A 
ATOM     18  C   UNL     1      45.657   4.129  11.191  0.00  0.00    +0.000 A 
BRANCH  17  19
ATOM     19  C   UNL     1      45.521   3.343   8.822  0.00  0.00    +0.000 A 
ATOM     20  C   UNL     1      45.816   1.975   8.755  0.00  0.00    +0.000 A 
ATOM     21  C   UNL     1      46.465   1.442   7.643  0.00  0.00    +0.000 A 
ATOM     22  C   UNL     1      46.796   2.296   6.605  0.00  0.00    +0.000 A 
ATOM     23  N   UNL     1      46.528   3.616   6.611  0.00  0.00    +0.000 NA
ATOM     24  C   UNL     1      45.908   4.103   7.714  0.00  0.00    +0.000 A 
ENDBRANCH  17  19
ENDBRANCH   1  13
TORSDOF 3
ENDMDL
MODEL 7
REMARK VINA RESULT:    -5.909      1.768      2.524
REMARK INTER + INTRA:          -7.478
REMARK INTER:                  -6.889
REMARK INTRA:                  -0.589
REMARK UNBOUND:                -0.532
REMARK  Name = 
REMARK  3 active torsions:
REMARK  status: ('A' for Active; 'I' for Inactive)
REMARK    1  A    between atoms: N_6  and  C_7
REMARK    2  A    between atoms: C_7  and  C_8
REMARK    3  A    between atoms: C_12  and  C_13
REMARK                            x       y       z     vdW  Elec       q    Type
REMARK                         _______ _______ _______ _____ _____    ______ ____
ROOT
ATOM      1  C   UNL     1      45.285   7.822  12.182  0.00  0.00    +0.000 C 
ATOM      2  C   UNL     1      44.731   9.192  12.566  0.00  0.00    +0.000 C 
ATOM      3  C   UNL     1      45.314   8.993  11.210  0.00  0.00    +0.000 C 
ENDROOT
BRANCH   1   9
ATOM      4 BR   UNL     1      44.943   1.808   8.810  0.00  0.00    +0.000 Br
ATOM      5  C   UNL     1      44.736   3.368   9.828  0.00  0.00    +0.000 A 
ATOM      6  C   UNL     1      43.982   3.400  10.976  0.00  0.00    +0.000 A 
ATOM      7  N   UNL     1      43.831   4.511  11.734  0.00  0.00    +0.000 NA
ATOM      8  C   UNL     1      44.463   5.623  11.328  0.00  0.00    +0.000 A 
ATOM      9  N   UNL     1      44.286   6.751  12.129  0.00  0.00    +0.000 N 
ATOM     10  N   UNL     1      45.217   5.684  10.217  0.00  0.00    +0.000 NA
ATOM     11  C   UNL     1      45.334   4.554   9.487  0.00  0.00    +0.000 A 
ATOM     12  H   UNL     1      43.881   6.429  13.000  0.00  0.00    +0.000 HD
ENDBRANCH   1   9
BRANCH   1  13
ATOM     13  C   UNL     1      46.671   7.396  12.657  0.00  0.00    +0.000 A 
ATOM     14  C   UNL     1      47.823   8.002  12.126  0.00  0.00    +0.000 A 
ATOM     15  C   UNL     1      49.075   7.797  12.698  0.00  0.00    +0.000 A 
ATOM     16  C   UNL     1      49.199   6.983  13.822  0.00  0.00    +0.000 A 
ATOM     17  C   UNL     1      48.085   6.320  14.362  0.00  0.00    +0.000 A 
ATOM     18  C   UNL     1      46.842   6.507  13.730  0.00  0.00    +0.000 A 
BRANCH  17  19
ATOM     19  C   UNL     1      48.176   5.537  15.607  0.00  0.00    +0.000 A 
ATOM     20  C   UNL     1      47.374   4.414  15.852  0.00  0.00    +0.000 A 
ATOM     21  C   UNL     1      47.439   3.748  17.075  0.00  0.00    +0.000 A 
ATOM     22  C   UNL     1      48.323   4.217  18.032  0.00  0.00    +0.000 A 
ATOM     23  N   UNL     1      49.124   5.284  17.847  0.00  0.00    +0.000 NA
ATOM     24  C   UNL     1      49.026   5.916  16.651  0.00  0.00    +0.000 A 
ENDBRANCH  17  19
ENDBRANCH   1  13
TORSDOF 3
ENDMDL
MODEL 8
REMARK VINA RESULT:    -5.678      3.463      7.841
REMARK INTER + INTRA:          -7.206
REMARK INTER:                  -7.121
REMARK INTRA:                  -0.085
REMARK UNBOUND:                -0.532
REMARK  Name = 
REMARK  3 active torsions:
REMARK  status: ('A' for Active; 'I' for Inactive)
REMARK    1  A    between atoms: N_6  and  C_7
REMARK    2  A    between atoms: C_7  and  C_8
REMARK    3  A    between atoms: C_12  and  C_13
REMARK                            x       y       z     vdW  Elec       q    Type
REMARK                         _______ _______ _______ _____ _____    ______ ____
ROOT
ATOM      1  C   UNL     1      48.207   4.666  17.068  0.00  0.00    +0.000 C 
ATOM      2  C   UNL     1      47.022   4.519  18.020  0.00  0.00    +0.000 C 
ATOM      3  C   UNL     1      47.364   3.399  17.099  0.00  0.00    +0.000 C 
ENDROOT
BRANCH   1   9
ATOM      4 BR   UNL     1      53.716   0.528  17.497  0.00  0.00    +0.000 Br
ATOM      5  C   UNL     1      52.386   1.846  17.583  0.00  0.00    +0.000 A 
ATOM      6  C   UNL     1      52.682   3.176  17.752  0.00  0.00    +0.000 A 
ATOM      7  N   UNL     1      51.739   4.146  17.801  0.00  0.00    +0.000 NA
ATOM      8  C   UNL     1      50.458   3.766  17.670  0.00  0.00    +0.000 A 
ATOM      9  N   UNL     1      49.510   4.788  17.727  0.00  0.00    +0.000 N 
ATOM     10  N   UNL     1      50.078   2.487  17.505  0.00  0.00    +0.000 NA
ATOM     11  C   UNL     1      51.051   1.552  17.470  0.00  0.00    +0.000 A 
ATOM     12  H   UNL     1      50.017   5.660  17.633  0.00  0.00    +0.000 HD
ENDBRANCH   1   9
BRANCH   1  13
ATOM     13  C   UNL     1      48.055   5.462  15.775  0.00  0.00    +0.000 A 
ATOM     14  C   UNL     1      48.967   6.483  15.456  0.00  0.00    +0.000 A 
ATOM     15  C   UNL     1      48.986   7.064  14.191  0.00  0.00    +0.000 A 
ATOM     16  C   UNL     1      48.093   6.628  13.214  0.00  0.00    +0.000 A 
ATOM     17  C   UNL     1      47.133   5.642  13.498  0.00  0.00    +0.000 A 
ATOM     18  C   UNL     1      47.106   5.112  14.801  0.00  0.00    +0.000 A 
BRANCH  17  19
ATOM     19  C   UNL     1      46.248   5.096  12.454  0.00  0.00    +0.000 A 
ATOM     20  C   UNL     1      45.951   5.796  11.277  0.00  0.00    +0.000 A 
ATOM     21  C   UNL     1      45.047   5.276  10.351  0.00  0.00    +0.000 A 
ATOM     22  C   UNL     1      44.467   4.049  10.619  0.00  0.00    +0.000 A 
ATOM     23  N   UNL     1      44.724   3.328  11.728  0.00  0.00    +0.000 NA
ATOM     24  C   UNL     1      45.596   3.869  12.613  0.00  0.00    +0.000 A 
ENDBRANCH  17  19
ENDBRANCH   1  13
TORSDOF 3
ENDMDL
MODEL 9
REMARK VINA RESULT:    -5.580      2.959      4.643
REMARK INTER + INTRA:          -7.091
REMARK INTER:                  -6.618
REMARK INTRA:                  -0.472
REMARK UNBOUND:                -0.532
REMARK  Name = 
REMARK  3 active torsions:
REMARK  status: ('A' for Active; 'I' for Inactive)
REMARK    1  A    between atoms: N_6  and  C_7
REMARK    2  A    between atoms: C_7  and  C_8
REMARK    3  A    between atoms: C_12  and  C_13
REMARK                            x       y       z     vdW  Elec       q    Type
REMARK                         _______ _______ _______ _____ _____    ______ ____
ROOT
ATOM      1  C   UNL     1      47.959   8.281  12.735  0.00  0.00    +0.000 C 
ATOM      2  C   UNL     1      48.681   9.238  11.789  0.00  0.00    +0.000 C 
ATOM      3  C   UNL     1      48.992   7.782  11.734  0.00  0.00    +0.000 C 
ENDROOT
BRANCH   1   9
ATOM      4 BR   UNL     1      43.592   2.969  12.127  0.00  0.00    +0.000 Br
ATOM      5  C   UNL     1      44.517   4.596  12.229  0.00  0.00    +0.000 A 
ATOM      6  C   UNL     1      43.920   5.753  12.668  0.00  0.00    +0.000 A 
ATOM      7  N   UNL     1      44.573   6.935  12.764  0.00  0.00    +0.000 NA
ATOM      8  C   UNL     1      45.869   6.952  12.414  0.00  0.00    +0.000 A 
ATOM      9  N   UNL     1      46.513   8.185  12.522  0.00  0.00    +0.000 N 
ATOM     10  N   UNL     1      46.531   5.869  11.970  0.00  0.00    +0.000 NA
ATOM     11  C   UNL     1      45.839   4.714  11.883  0.00  0.00    +0.000 A 
ATOM     12  H   UNL     1      45.906   8.783  13.069  0.00  0.00    +0.000 HD
ENDBRANCH   1   9
BRANCH   1  13
ATOM     13  C   UNL     1      48.413   8.152  14.186  0.00  0.00    +0.000 A 
ATOM     14  C   UNL     1      48.418   9.274  15.033  0.00  0.00    +0.000 A 
ATOM     15  C   UNL     1      48.608   9.141  16.405  0.00  0.00    +0.000 A 
ATOM     16  C   UNL     1      48.792   7.877  16.961  0.00  0.00    +0.000 A 
ATOM     17  C   UNL     1      48.841   6.730  16.151  0.00  0.00    +0.000 A 
ATOM     18  C   UNL     1      48.697   6.904  14.762  0.00  0.00    +0.000 A 
BRANCH  17  19
ATOM     19  C   UNL     1      48.933   5.377  16.726  0.00  0.00    +0.000 A 
ATOM     20  C   UNL     1      50.125   4.863  17.255  0.00  0.00    +0.000 A 
ATOM     21  C   UNL     1      50.187   3.549  17.719  0.00  0.00    +0.000 A 
ATOM     22  C   UNL     1      49.041   2.776  17.656  0.00  0.00    +0.000 A 
ATOM     23  N   UNL     1      47.867   3.221  17.168  0.00  0.00    +0.000 NA
ATOM     24  C   UNL     1      47.845   4.498  16.713  0.00  0.00    +0.000 A 
ENDBRANCH  17  19
ENDBRANCH   1  13
TORSDOF 3
ENDMDL
