MODEL 1
REMARK VINA RESULT:    -7.002      0.000      0.000
REMARK INTER + INTRA:         -10.113
REMARK INTER:                  -9.049
REMARK INTRA:                  -1.064
REMARK UNBOUND:                -1.064
REMARK  Name = 
REMARK  7 active torsions:
REMARK  status: ('A' for Active; 'I' for Inactive)
REMARK    1  A    between atoms: C_1  and  C_2
REMARK    2  A    between atoms: C_6  and  C_7
REMARK    3  A    between atoms: C_7  and  C_8
REMARK    4  A    between atoms: C_11  and  C_12
REMARK    5  A    between atoms: C_12  and  N_13
REMARK    6  A    between atoms: N_13  and  C_14
REMARK    7  A    between atoms: C_15  and  C_17
REMARK                            x       y       z     vdW  Elec       q    Type
REMARK                         _______ _______ _______ _____ _____    ______ ____
ROOT
ATOM      1  C   UNL     1      49.142   7.261  13.862  0.00  0.00    +0.000 C 
ENDROOT
BRANCH   1   5
ATOM      2  C   UNL     1      45.478   5.938  11.956  0.00  0.00    +0.000 A 
ATOM      3  C   UNL     1      46.079   7.151  11.601  0.00  0.00    +0.000 A 
ATOM      4  C   UNL     1      47.208   7.617  12.280  0.00  0.00    +0.000 A 
ATOM      5  C   UNL     1      47.795   6.858  13.301  0.00  0.00    +0.000 A 
ATOM      6  C   UNL     1      47.150   5.683  13.710  0.00  0.00    +0.000 A 
ATOM      7  C   UNL     1      46.001   5.228  13.045  0.00  0.00    +0.000 A 
BRANCH   2   8
ATOM      8  C   UNL     1      44.305   5.405  11.158  0.00  0.00    +0.000 C 
BRANCH   8  14
ATOM      9  C   UNL     1      46.528   3.763   6.946  0.00  0.00    +0.000 C 
ATOM     10  C   UNL     1      45.707   3.497   8.172  0.00  0.00    +0.000 A 
ATOM     11  C   UNL     1      45.211   2.226   8.452  0.00  0.00    +0.000 A 
ATOM     12  C   UNL     1      44.454   2.053   9.599  0.00  0.00    +0.000 A 
ATOM     13  N   UNL     1      44.159   3.043  10.472  0.00  0.00    +0.000 NA
ATOM     14  C   UNL     1      44.649   4.278  10.201  0.00  0.00    +0.000 A 
ATOM     15  C   UNL     1      45.423   4.534   9.066  0.00  0.00    +0.000 A 
ENDBRANCH   8  14
ENDBRANCH   2   8
ENDBRANCH   1   5
BRANCH   1  16
ATOM     16  N   UNL     1      49.113   7.723  15.245  0.00  0.00    +0.000 N 
ATOM     17  C   UNL     1      48.194   8.807  15.545  0.00  0.00    +0.000 C 
ATOM     18  C   UNL     1      49.868   7.015  16.190  0.00  0.00    +0.000 C 
ATOM     19  O   UNL     1      50.598   6.085  15.853  0.00  0.00    +0.000 OA
BRANCH  18  20
ATOM     20  C   UNL     1      49.743   7.352  17.620  0.00  0.00    +0.000 A 
ATOM     21  C   UNL     1      50.414   8.387  18.256  0.00  0.00    +0.000 A 
ATOM     22  S   UNL     1      50.028   8.547  19.911  0.00  0.00    +0.000 S 
ATOM     23  C   UNL     1      48.838   7.346  19.794  0.00  0.00    +0.000 A 
ATOM     24  N   UNL     1      48.037   7.064  20.858  0.00  0.00    +0.000 NA
ATOM     25  C   UNL     1      47.137   6.168  20.613  0.00  0.00    +0.000 A 
ATOM     26  N   UNL     1      46.991   5.511  19.421  0.00  0.00    +0.000 N 
ATOM     27  C   UNL     1      47.860   5.672  18.358  0.00  0.00    +0.000 A 
ATOM     28  O   UNL     1      47.836   4.903  17.412  0.00  0.00    +0.000 OA
ATOM     29  C   UNL     1      48.811   6.753  18.552  0.00  0.00    +0.000 A 
ATOM     30  H   UNL     1      46.317   4.768  19.314  0.00  0.00    +0.000 HD
ENDBRANCH  18  20
ENDBRANCH   1  16
TORSDOF 5
ENDMDL
MODEL 2
REMARK VINA RESULT:    -6.731      3.638      5.524
REMARK INTER + INTRA:          -9.762
REMARK INTER:                  -8.933
REMARK INTRA:                  -0.829
REMARK UNBOUND:                -1.064
REMARK  Name = 
REMARK  7 active torsions:
REMARK  status: ('A' for Active; 'I' for Inactive)
REMARK    1  A    between atoms: C_1  and  C_2
REMARK    2  A    between atoms: C_6  and  C_7
REMARK    3  A    between atoms: C_7  and  C_8
REMARK    4  A    between atoms: C_11  and  C_12
REMARK    5  A    between atoms: C_12  and  N_13
REMARK    6  A    between atoms: N_13  and  C_14
REMARK    7  A    between atoms: C_15  and  C_17
REMARK                            x       y       z     vdW  Elec       q    Type
REMARK                         _______ _______ _______ _____ _____    ______ ____
ROOT
ATOM      1  C   UNL     1      47.581   6.404  14.167  0.00  0.00    +0.000 C 
ENDROOT
BRANCH   1   5
ATOM      2  C   UNL     1      45.104   4.595  11.102  0.00  0.00    +0.000 A 
ATOM      3  C   UNL     1      45.397   5.963  11.079  0.00  0.00    +0.000 A 
ATOM      4  C   UNL     1      46.119   6.559  12.117  0.00  0.00    +0.000 A 
ATOM      5  C   UNL     1      46.610   5.791  13.182  0.00  0.00    +0.000 A 
ATOM      6  C   UNL     1      46.250   4.438  13.247  0.00  0.00    +0.000 A 
ATOM      7  C   UNL     1      45.504   3.846  12.217  0.00  0.00    +0.000 A 
BRANCH   2   8
ATOM      8  C   UNL     1      44.393   3.947   9.932  0.00  0.00    +0.000 C 
BRANCH   8  14
ATOM      9  C   UNL     1      46.751   0.104   7.684  0.00  0.00    +0.000 C 
ATOM     10  C   UNL     1      46.450   1.570   7.778  0.00  0.00    +0.000 A 
ATOM     11  C   UNL     1      47.025   2.486   6.900  0.00  0.00    +0.000 A 
ATOM     12  C   UNL     1      46.708   3.827   7.047  0.00  0.00    +0.000 A 
ATOM     13  N   UNL     1      45.874   4.311   7.997  0.00  0.00    +0.000 NA
ATOM     14  C   UNL     1      45.311   3.416   8.846  0.00  0.00    +0.000 A 
ATOM     15  C   UNL     1      45.577   2.047   8.761  0.00  0.00    +0.000 A 
ENDBRANCH   8  14
ENDBRANCH   2   8
ENDBRANCH   1   5
BRANCH   1  16
ATOM     16  N   UNL     1      48.490   7.390  13.594  0.00  0.00    +0.000 N 
ATOM     17  C   UNL     1      49.278   6.957  12.454  0.00  0.00    +0.000 C 
ATOM     18  C   UNL     1      48.446   8.697  14.099  0.00  0.00    +0.000 C 
ATOM     19  O   UNL     1      47.723   8.987  15.051  0.00  0.00    +0.000 OA
BRANCH  18  20
ATOM     20  C   UNL     1      49.234   9.757  13.443  0.00  0.00    +0.000 A 
ATOM     21  C   UNL     1      50.573  10.022  13.691  0.00  0.00    +0.000 A 
ATOM     22  S   UNL     1      51.214  11.289  12.744  0.00  0.00    +0.000 S 
ATOM     23  C   UNL     1      49.772  11.417  11.863  0.00  0.00    +0.000 A 
ATOM     24  N   UNL     1      49.687  12.262  10.799  0.00  0.00    +0.000 NA
ATOM     25  C   UNL     1      48.550  12.218  10.184  0.00  0.00    +0.000 A 
ATOM     26  N   UNL     1      47.489  11.437  10.556  0.00  0.00    +0.000 N 
ATOM     27  C   UNL     1      47.486  10.662  11.700  0.00  0.00    +0.000 A 
ATOM     28  O   UNL     1      46.450  10.172  12.118  0.00  0.00    +0.000 OA
ATOM     29  C   UNL     1      48.783  10.594  12.352  0.00  0.00    +0.000 A 
ATOM     30  H   UNL     1      46.602  11.502  10.080  0.00  0.00    +0.000 HD
ENDBRANCH  18  20
ENDBRANCH   1  16
TORSDOF 5
ENDMDL
MODEL 3
REMARK VINA RESULT:    -6.723      2.107      2.677
REMARK INTER + INTRA:          -9.753
REMARK INTER:                  -8.549
REMARK INTRA:                  -1.203
REMARK UNBOUND:                -1.064
REMARK  Name = 
REMARK  7 active torsions:
REMARK  status: ('A' for Active; 'I' for Inactive)
REMARK    1  A    between atoms: C_1  and  C_2
REMARK    2  A    between atoms: C_6  and  C_7
REMARK    3  A    between atoms: C_7  and  C_8
REMARK    4  A    between atoms: C_11  and  C_12
REMARK    5  A    between atoms: C_12  and  N_13
REMARK    6  A    between atoms: N_13  and  C_14
REMARK    7  A    between atoms: C_15  and  C_17
REMARK                            x       y       z     vdW  Elec       q    Type
REMARK                         _______ _______ _______ _____ _____    ______ ____
ROOT
ATOM      1  C   UNL     1      48.751   9.082  14.252  0.00  0.00    +0.000 C 
ENDROOT
BRANCH   1   5
ATOM      2  C   UNL     1      45.400   7.665  11.892  0.00  0.00    +0.000 A 
ATOM      3  C   UNL     1      46.619   6.978  11.900  0.00  0.00    +0.000 A 
ATOM      4  C   UNL     1      47.724   7.486  12.588  0.00  0.00    +0.000 A 
ATOM      5  C   UNL     1      47.624   8.673  13.329  0.00  0.00    +0.000 A 
ATOM      6  C   UNL     1      46.429   9.402  13.257  0.00  0.00    +0.000 A 
ATOM      7  C   UNL     1      45.328   8.904  12.545  0.00  0.00    +0.000 A 
BRANCH   2   8
ATOM      8  C   UNL     1      44.188   7.063  11.211  0.00  0.00    +0.000 C 
BRANCH   8  14
ATOM      9  C   UNL     1      44.481   2.357   9.435  0.00  0.00    +0.000 C 
ATOM     10  C   UNL     1      44.159   3.310  10.547  0.00  0.00    +0.000 A 
ATOM     11  C   UNL     1      43.678   2.858  11.774  0.00  0.00    +0.000 A 
ATOM     12  C   UNL     1      43.395   3.795  12.755  0.00  0.00    +0.000 A 
ATOM     13  N   UNL     1      43.554   5.130  12.601  0.00  0.00    +0.000 NA
ATOM     14  C   UNL     1      44.029   5.566  11.408  0.00  0.00    +0.000 A 
ATOM     15  C   UNL     1      44.341   4.685  10.369  0.00  0.00    +0.000 A 
ENDBRANCH   8  14
ENDBRANCH   2   8
ENDBRANCH   1   5
BRANCH   1  16
ATOM     16  N   UNL     1      48.859   8.289  15.471  0.00  0.00    +0.000 N 
ATOM     17  C   UNL     1      47.976   8.660  16.563  0.00  0.00    +0.000 C 
ATOM     18  C   UNL     1      49.703   7.170  15.455  0.00  0.00    +0.000 C 
ATOM     19  O   UNL     1      50.395   6.910  14.474  0.00  0.00    +0.000 OA
BRANCH  18  20
ATOM     20  C   UNL     1      49.719   6.256  16.613  0.00  0.00    +0.000 A 
ATOM     21  C   UNL     1      50.499   6.423  17.748  0.00  0.00    +0.000 A 
ATOM     22  S   UNL     1      50.267   5.215  18.931  0.00  0.00    +0.000 S 
ATOM     23  C   UNL     1      49.005   4.522  18.036  0.00  0.00    +0.000 A 
ATOM     24  N   UNL     1      48.283   3.489  18.549  0.00  0.00    +0.000 NA
ATOM     25  C   UNL     1      47.316   3.094  17.786  0.00  0.00    +0.000 A 
ATOM     26  N   UNL     1      47.032   3.614  16.552  0.00  0.00    +0.000 N 
ATOM     27  C   UNL     1      47.814   4.574  15.938  0.00  0.00    +0.000 A 
ATOM     28  O   UNL     1      47.667   4.836  14.756  0.00  0.00    +0.000 OA
ATOM     29  C   UNL     1      48.838   5.125  16.810  0.00  0.00    +0.000 A 
ATOM     30  H   UNL     1      46.311   3.214  15.971  0.00  0.00    +0.000 HD
ENDBRANCH  18  20
ENDBRANCH   1  16
TORSDOF 5
ENDMDL
MODEL 4
REMARK VINA RESULT:    -6.684      1.445      2.035
REMARK INTER + INTRA:          -9.702
REMARK INTER:                  -8.753
REMARK INTRA:                  -0.949
REMARK UNBOUND:                -1.064
REMARK  Name = 
REMARK  7 active torsions:
REMARK  status: ('A' for Active; 'I' for Inactive)
REMARK    1  A    between atoms: C_1  and  C_2
REMARK    2  A    between atoms: C_6  and  C_7
REMARK    3  A    between atoms: C_7  and  C_8
REMARK    4  A    between atoms: C_11  and  C_12
REMARK    5  A    between atoms: C_12  and  N_13
REMARK    6  A    between atoms: N_13  and  C_14
REMARK    7  A    between atoms: C_15  and  C_17
REMARK                            x       y       z     vdW  Elec       q    Type
REMARK                         _______ _______ _______ _____ _____    ______ ____
ROOT
ATOM      1  C   UNL     1      49.027   6.960  14.534  0.00  0.00    +0.000 C 
ENDROOT
BRANCH   1   5
ATOM      2  C   UNL     1      45.584   6.128  12.033  0.00  0.00    +0.000 A 
ATOM      3  C   UNL     1      46.053   7.435  12.203  0.00  0.00    +0.000 A 
ATOM      4  C   UNL     1      47.106   7.710  13.080  0.00  0.00    +0.000 A 
ATOM      5  C   UNL     1      47.749   6.676  13.775  0.00  0.00    +0.000 A 
ATOM      6  C   UNL     1      47.229   5.379  13.667  0.00  0.00    +0.000 A 
ATOM      7  C   UNL     1      46.155   5.107  12.805  0.00  0.00    +0.000 A 
BRANCH   2   8
ATOM      8  C   UNL     1      44.498   5.833  11.018  0.00  0.00    +0.000 C 
BRANCH   8  14
ATOM      9  C   UNL     1      46.485   3.591   6.967  0.00  0.00    +0.000 C 
ATOM     10  C   UNL     1      45.678   3.519   8.229  0.00  0.00    +0.000 A 
ATOM     11  C   UNL     1      45.098   2.326   8.653  0.00  0.00    +0.000 A 
ATOM     12  C   UNL     1      44.360   2.333   9.826  0.00  0.00    +0.000 A 
ATOM     13  N   UNL     1      44.161   3.430  10.593  0.00  0.00    +0.000 NA
ATOM     14  C   UNL     1      44.733   4.588  10.181  0.00  0.00    +0.000 A 
ATOM     15  C   UNL     1      45.495   4.664   9.012  0.00  0.00    +0.000 A 
ENDBRANCH   8  14
ENDBRANCH   2   8
ENDBRANCH   1   5
BRANCH   1  16
ATOM     16  N   UNL     1      48.851   7.178  15.966  0.00  0.00    +0.000 N 
ATOM     17  C   UNL     1      48.466   8.517  16.372  0.00  0.00    +0.000 C 
ATOM     18  C   UNL     1      48.943   6.067  16.816  0.00  0.00    +0.000 C 
ATOM     19  O   UNL     1      49.244   4.957  16.382  0.00  0.00    +0.000 OA
BRANCH  18  20
ATOM     20  C   UNL     1      48.617   6.218  18.246  0.00  0.00    +0.000 A 
ATOM     21  C   UNL     1      47.406   5.870  18.827  0.00  0.00    +0.000 A 
ATOM     22  S   UNL     1      47.349   6.130  20.513  0.00  0.00    +0.000 S 
ATOM     23  C   UNL     1      48.987   6.562  20.546  0.00  0.00    +0.000 A 
ATOM     24  N   UNL     1      49.613   6.803  21.730  0.00  0.00    +0.000 NA
ATOM     25  C   UNL     1      50.874   7.067  21.613  0.00  0.00    +0.000 A 
ATOM     26  N   UNL     1      51.549   7.144  20.425  0.00  0.00    +0.000 N 
ATOM     27  C   UNL     1      50.930   7.032  19.194  0.00  0.00    +0.000 A 
ATOM     28  O   UNL     1      51.517   7.339  18.171  0.00  0.00    +0.000 OA
ATOM     29  C   UNL     1      49.540   6.620  19.286  0.00  0.00    +0.000 A 
ATOM     30  H   UNL     1      52.517   7.427  20.393  0.00  0.00    +0.000 HD
ENDBRANCH  18  20
ENDBRANCH   1  16
TORSDOF 5
ENDMDL
MODEL 5
REMARK VINA RESULT:    -6.573      2.220      2.696
REMARK INTER + INTRA:          -9.559
REMARK INTER:                  -8.848
REMARK INTRA:                  -0.711
REMARK UNBOUND:                -1.064
REMARK  Name = 
REMARK  7 active torsions:
REMARK  status: ('A' for Active; 'I' for Inactive)
REMARK    1  A    between atoms: C_1  and  C_2
REMARK    2  A    between atoms: C_6  and  C_7
REMARK    3  A    between atoms: C_7  and  C_8
REMARK    4  A    between atoms: C_11  and  C_12
REMARK    5  A    between atoms: C_12  and  N_13
REMARK    6  A    between atoms: N_13  and  C_14
REMARK    7  A    between atoms: C_15  and  C_17
REMARK                            x       y       z     vdW  Elec       q    Type
REMARK                         _______ _______ _______ _____ _____    ______ ____
ROOT
ATOM      1  C   UNL     1      47.542   8.460  14.052  0.00  0.00    +0.000 C 
ENDROOT
BRANCH   1   5
ATOM      2  C   UNL     1      44.843   6.157  11.560  0.00  0.00    +0.000 A 
ATOM      3  C   UNL     1      45.749   5.525  12.418  0.00  0.00    +0.000 A 
ATOM      4  C   UNL     1      46.679   6.267  13.151  0.00  0.00    +0.000 A 
ATOM      5  C   UNL     1      46.694   7.667  13.082  0.00  0.00    +0.000 A 
ATOM      6  C   UNL     1      45.841   8.296  12.165  0.00  0.00    +0.000 A 
ATOM      7  C   UNL     1      44.925   7.549  11.409  0.00  0.00    +0.000 A 
BRANCH   2   8
ATOM      8  C   UNL     1      43.787   5.348  10.834  0.00  0.00    +0.000 C 
BRANCH   8  14
ATOM      9  C   UNL     1      46.648   3.760   7.003  0.00  0.00    +0.000 C 
ATOM     10  C   UNL     1      45.696   3.468   8.124  0.00  0.00    +0.000 A 
ATOM     11  C   UNL     1      45.260   2.171   8.387  0.00  0.00    +0.000 A 
ATOM     12  C   UNL     1      44.376   1.974   9.435  0.00  0.00    +0.000 A 
ATOM     13  N   UNL     1      43.900   2.963  10.225  0.00  0.00    +0.000 NA
ATOM     14  C   UNL     1      44.331   4.224   9.971  0.00  0.00    +0.000 A 
ATOM     15  C   UNL     1      45.226   4.506   8.935  0.00  0.00    +0.000 A 
ENDBRANCH   8  14
ENDBRANCH   2   8
ENDBRANCH   1   5
BRANCH   1  16
ATOM     16  N   UNL     1      48.812   7.834  14.406  0.00  0.00    +0.000 N 
ATOM     17  C   UNL     1      49.655   7.417  13.300  0.00  0.00    +0.000 C 
ATOM     18  C   UNL     1      49.172   7.796  15.760  0.00  0.00    +0.000 C 
ATOM     19  O   UNL     1      48.407   8.202  16.632  0.00  0.00    +0.000 OA
BRANCH  18  20
ATOM     20  C   UNL     1      50.512   7.315  16.142  0.00  0.00    +0.000 A 
ATOM     21  C   UNL     1      51.669   8.080  16.118  0.00  0.00    +0.000 A 
ATOM     22  S   UNL     1      53.059   7.248  16.655  0.00  0.00    +0.000 S 
ATOM     23  C   UNL     1      52.135   5.896  17.088  0.00  0.00    +0.000 A 
ATOM     24  N   UNL     1      52.714   4.840  17.725  0.00  0.00    +0.000 NA
ATOM     25  C   UNL     1      51.883   3.902  18.045  0.00  0.00    +0.000 A 
ATOM     26  N   UNL     1      50.545   3.911  17.759  0.00  0.00    +0.000 N 
ATOM     27  C   UNL     1      49.939   4.898  17.004  0.00  0.00    +0.000 A 
ATOM     28  O   UNL     1      48.808   4.749  16.575  0.00  0.00    +0.000 OA
ATOM     29  C   UNL     1      50.813   6.025  16.726  0.00  0.00    +0.000 A 
ATOM     30  H   UNL     1      49.961   3.115  17.969  0.00  0.00    +0.000 HD
ENDBRANCH  18  20
ENDBRANCH   1  16
TORSDOF 5
ENDMDL
MODEL 6
REMARK VINA RESULT:    -6.489      3.542      5.266
REMARK INTER + INTRA:          -9.450
REMARK INTER:                  -8.306
REMARK INTRA:                  -1.144
REMARK UNBOUND:                -1.064
REMARK  Name = 
REMARK  7 active torsions:
REMARK  status: ('A' for Active; 'I' for Inactive)
REMARK    1  A    between atoms: C_1  and  C_2
REMARK    2  A    between atoms: C_6  and  C_7
REMARK    3  A    between atoms: C_7  and  C_8
REMARK    4  A    between atoms: C_11  and  C_12
REMARK    5  A    between atoms: C_12  and  N_13
REMARK    6  A    between atoms: N_13  and  C_14
REMARK    7  A    between atoms: C_15  and  C_17
REMARK                            x       y       z     vdW  Elec       q    Type
REMARK                         _______ _______ _______ _____ _____    ______ ____
ROOT
ATOM      1  C   UNL     1      47.369   8.389  14.065  0.00  0.00    +0.000 C 
ENDROOT
BRANCH   1   5
ATOM      2  C   UNL     1      44.755   6.122  11.451  0.00  0.00    +0.000 A 
ATOM      3  C   UNL     1      45.773   5.492  12.175  0.00  0.00    +0.000 A 
ATOM      4  C   UNL     1      46.670   6.237  12.945  0.00  0.00    +0.000 A 
ATOM      5  C   UNL     1      46.542   7.629  13.049  0.00  0.00    +0.000 A 
ATOM      6  C   UNL     1      45.574   8.268  12.263  0.00  0.00    +0.000 A 
ATOM      7  C   UNL     1      44.689   7.522  11.470  0.00  0.00    +0.000 A 
BRANCH   2   8
ATOM      8  C   UNL     1      43.740   5.296  10.687  0.00  0.00    +0.000 C 
BRANCH   8  14
ATOM      9  C   UNL     1      46.615   3.635   6.898  0.00  0.00    +0.000 C 
ATOM     10  C   UNL     1      45.701   3.361   8.053  0.00  0.00    +0.000 A 
ATOM     11  C   UNL     1      45.340   2.061   8.401  0.00  0.00    +0.000 A 
ATOM     12  C   UNL     1      44.486   1.880   9.477  0.00  0.00    +0.000 A 
ATOM     13  N   UNL     1      43.971   2.889  10.217  0.00  0.00    +0.000 NA
ATOM     14  C   UNL     1      44.329   4.153   9.881  0.00  0.00    +0.000 A 
ATOM     15  C   UNL     1      45.189   4.419   8.811  0.00  0.00    +0.000 A 
ENDBRANCH   8  14
ENDBRANCH   2   8
ENDBRANCH   1   5
BRANCH   1  16
ATOM     16  N   UNL     1      48.674   8.827  13.583  0.00  0.00    +0.000 N 
ATOM     17  C   UNL     1      48.718  10.123  12.928  0.00  0.00    +0.000 C 
ATOM     18  C   UNL     1      49.789   8.037  13.893  0.00  0.00    +0.000 C 
ATOM     19  O   UNL     1      49.664   6.964  14.481  0.00  0.00    +0.000 OA
BRANCH  18  20
ATOM     20  C   UNL     1      51.140   8.524  13.561  0.00  0.00    +0.000 A 
ATOM     21  C   UNL     1      52.033   9.076  14.468  0.00  0.00    +0.000 A 
ATOM     22  S   UNL     1      53.535   9.511  13.784  0.00  0.00    +0.000 S 
ATOM     23  C   UNL     1      53.101   8.830  12.294  0.00  0.00    +0.000 A 
ATOM     24  N   UNL     1      54.003   8.767  11.276  0.00  0.00    +0.000 NA
ATOM     25  C   UNL     1      53.558   8.174  10.216  0.00  0.00    +0.000 A 
ATOM     26  N   UNL     1      52.292   7.674  10.074  0.00  0.00    +0.000 N 
ATOM     27  C   UNL     1      51.306   7.828  11.031  0.00  0.00    +0.000 A 
ATOM     28  O   UNL     1      50.141   7.580  10.770  0.00  0.00    +0.000 OA
ATOM     29  C   UNL     1      51.799   8.384  12.279  0.00  0.00    +0.000 A 
ATOM     30  H   UNL     1      51.979   7.288   9.196  0.00  0.00    +0.000 HD
ENDBRANCH  18  20
ENDBRANCH   1  16
TORSDOF 5
ENDMDL
MODEL 7
REMARK VINA RESULT:    -6.399      3.954      5.611
REMARK INTER + INTRA:          -9.333
REMARK INTER:                  -8.329
REMARK INTRA:                  -1.004
REMARK UNBOUND:                -1.064
REMARK  Name = 
REMARK  7 active torsions:
REMARK  status: ('A' for Active; 'I' for Inactive)
REMARK    1  A    between atoms: C_1  and  C_2
REMARK    2  A    between atoms: C_6  and  C_7
REMARK    3  A    between atoms: C_7  and  C_8
REMARK    4  A    between atoms: C_11  and  C_12
REMARK    5  A    between atoms: C_12  and  N_13
REMARK    6  A    between atoms: N_13  and  C_14
REMARK    7  A    between atoms: C_15  and  C_17
REMARK                            x       y       z     vdW  Elec       q    Type
REMARK                         _______ _______ _______ _____ _____    ______ ____
ROOT
ATOM      1  C   UNL     1      46.983   8.042  13.634  0.00  0.00    +0.000 C 
ENDROOT
BRANCH   1   5
ATOM      2  C   UNL     1      44.851   5.249  11.093  0.00  0.00    +0.000 A 
ATOM      3  C   UNL     1      44.420   6.574  11.230  0.00  0.00    +0.000 A 
ATOM      4  C   UNL     1      45.055   7.445  12.119  0.00  0.00    +0.000 A 
ATOM      5  C   UNL     1      46.170   7.027  12.860  0.00  0.00    +0.000 A 
ATOM      6  C   UNL     1      46.552   5.681  12.783  0.00  0.00    +0.000 A 
ATOM      7  C   UNL     1      45.898   4.800  11.909  0.00  0.00    +0.000 A 
BRANCH   2   8
ATOM      8  C   UNL     1      44.207   4.340  10.066  0.00  0.00    +0.000 C 
BRANCH   8  14
ATOM      9  C   UNL     1      46.495   0.440   7.845  0.00  0.00    +0.000 C 
ATOM     10  C   UNL     1      46.264   1.916   7.964  0.00  0.00    +0.000 A 
ATOM     11  C   UNL     1      46.933   2.824   7.147  0.00  0.00    +0.000 A 
ATOM     12  C   UNL     1      46.676   4.175   7.315  0.00  0.00    +0.000 A 
ATOM     13  N   UNL     1      45.814   4.677   8.230  0.00  0.00    +0.000 NA
ATOM     14  C   UNL     1      45.159   3.791   9.019  0.00  0.00    +0.000 A 
ATOM     15  C   UNL     1      45.360   2.412   8.909  0.00  0.00    +0.000 A 
ENDBRANCH   8  14
ENDBRANCH   2   8
ENDBRANCH   1   5
BRANCH   1  16
ATOM     16  N   UNL     1      48.419   7.996  13.378  0.00  0.00    +0.000 N 
ATOM     17  C   UNL     1      49.205   7.147  14.256  0.00  0.00    +0.000 C 
ATOM     18  C   UNL     1      48.906   8.665  12.247  0.00  0.00    +0.000 C 
ATOM     19  O   UNL     1      48.162   9.339  11.537  0.00  0.00    +0.000 OA
BRANCH  18  20
ATOM     20  C   UNL     1      50.323   8.513  11.867  0.00  0.00    +0.000 A 
ATOM     21  C   UNL     1      50.798   7.642  10.898  0.00  0.00    +0.000 A 
ATOM     22  S   UNL     1      52.486   7.726  10.661  0.00  0.00    +0.000 S 
ATOM     23  C   UNL     1      52.614   9.037  11.727  0.00  0.00    +0.000 A 
ATOM     24  N   UNL     1      53.805   9.674  11.897  0.00  0.00    +0.000 NA
ATOM     25  C   UNL     1      53.747  10.690  12.695  0.00  0.00    +0.000 A 
ATOM     26  N   UNL     1      52.623  11.100  13.358  0.00  0.00    +0.000 N 
ATOM     27  C   UNL     1      51.426  10.410  13.316  0.00  0.00    +0.000 A 
ATOM     28  O   UNL     1      50.528  10.672  14.098  0.00  0.00    +0.000 OA
ATOM     29  C   UNL     1      51.418   9.333  12.341  0.00  0.00    +0.000 A 
ATOM     30  H   UNL     1      52.658  11.856  14.026  0.00  0.00    +0.000 HD
ENDBRANCH  18  20
ENDBRANCH   1  16
TORSDOF 5
ENDMDL
MODEL 8
REMARK VINA RESULT:    -5.944      4.509      6.750
REMARK INTER + INTRA:          -8.746
REMARK INTER:                  -7.558
REMARK INTRA:                  -1.188
REMARK UNBOUND:                -1.064
REMARK  Name = 
REMARK  7 active torsions:
REMARK  status: ('A' for Active; 'I' for Inactive)
REMARK    1  A    between atoms: C_1  and  C_2
REMARK    2  A    between atoms: C_6  and  C_7
REMARK    3  A    between atoms: C_7  and  C_8
REMARK    4  A    between atoms: C_11  and  C_12
REMARK    5  A    between atoms: C_12  and  N_13
REMARK    6  A    between atoms: N_13  and  C_14
REMARK    7  A    between atoms: C_15  and  C_17
REMARK                            x       y       z     vdW  Elec       q    Type
REMARK                         _______ _______ _______ _____ _____    ______ ____
ROOT
ATOM      1  C   UNL     1      49.695   7.969  13.438  0.00  0.00    +0.000 C 
ENDROOT
BRANCH   1   5
ATOM      2  C   UNL     1      45.816   6.620  12.048  0.00  0.00    +0.000 A 
ATOM      3  C   UNL     1      46.144   7.980  12.063  0.00  0.00    +0.000 A 
ATOM      4  C   UNL     1      47.359   8.418  12.596  0.00  0.00    +0.000 A 
ATOM      5  C   UNL     1      48.300   7.501  13.084  0.00  0.00    +0.000 A 
ATOM      6  C   UNL     1      47.941   6.148  13.143  0.00  0.00    +0.000 A 
ATOM      7  C   UNL     1      46.710   5.711  12.631  0.00  0.00    +0.000 A 
BRANCH   2   8
ATOM      8  C   UNL     1      44.533   6.151  11.393  0.00  0.00    +0.000 C 
BRANCH   8  14
ATOM      9  C   UNL     1      46.273   3.822   7.278  0.00  0.00    +0.000 C 
ATOM     10  C   UNL     1      45.500   3.790   8.562  0.00  0.00    +0.000 A 
ATOM     11  C   UNL     1      44.865   2.629   8.998  0.00  0.00    +0.000 A 
ATOM     12  C   UNL     1      44.163   2.671  10.192  0.00  0.00    +0.000 A 
ATOM     13  N   UNL     1      44.048   3.773  10.968  0.00  0.00    +0.000 NA
ATOM     14  C   UNL     1      44.673   4.900  10.545  0.00  0.00    +0.000 A 
ATOM     15  C   UNL     1      45.404   4.938   9.355  0.00  0.00    +0.000 A 
ENDBRANCH   8  14
ENDBRANCH   2   8
ENDBRANCH   1   5
BRANCH   1  16
ATOM     16  N   UNL     1      50.410   8.632  12.352  0.00  0.00    +0.000 N 
ATOM     17  C   UNL     1      50.728   7.814  11.195  0.00  0.00    +0.000 C 
ATOM     18  C   UNL     1      50.623  10.014  12.452  0.00  0.00    +0.000 C 
ATOM     19  O   UNL     1      50.292  10.637  13.459  0.00  0.00    +0.000 OA
BRANCH  18  20
ATOM     20  C   UNL     1      51.200  10.745  11.309  0.00  0.00    +0.000 A 
ATOM     21  C   UNL     1      52.551  10.801  11.001  0.00  0.00    +0.000 A 
ATOM     22  S   UNL     1      52.902  11.697   9.591  0.00  0.00    +0.000 S 
ATOM     23  C   UNL     1      51.253  11.902   9.260  0.00  0.00    +0.000 A 
ATOM     24  N   UNL     1      50.851  12.504   8.106  0.00  0.00    +0.000 NA
ATOM     25  C   UNL     1      49.567  12.544   7.956  0.00  0.00    +0.000 A 
ATOM     26  N   UNL     1      48.658  12.071   8.863  0.00  0.00    +0.000 N 
ATOM     27  C   UNL     1      49.015  11.570  10.100  0.00  0.00    +0.000 A 
ATOM     28  O   UNL     1      48.175  11.382  10.963  0.00  0.00    +0.000 OA
ATOM     29  C   UNL     1      50.450  11.401  10.259  0.00  0.00    +0.000 A 
ATOM     30  H   UNL     1      47.667  12.198   8.723  0.00  0.00    +0.000 HD
ENDBRANCH  18  20
ENDBRANCH   1  16
TORSDOF 5
ENDMDL
MODEL 9
REMARK VINA RESULT:    -5.761      2.056      2.978
REMARK INTER + INTRA:          -8.509
REMARK INTER:                  -7.510
REMARK INTRA:                  -1.000
REMARK UNBOUND:                -1.064
REMARK  Name = 
REMARK  7 active torsions:
REMARK  status: ('A' for Active; 'I' for Inactive)
REMARK    1  A    between atoms: C_1  and  C_2
REMARK    2  A    between atoms: C_6  and  C_7
REMARK    3  A    between atoms: C_7  and  C_8
REMARK    4  A    between atoms: C_11  and  C_12
REMARK    5  A    between atoms: C_12  and  N_13
REMARK    6  A    between atoms: N_13  and  C_14
REMARK    7  A    between atoms: C_15  and  C_17
REMARK                            x       y       z     vdW  Elec       q    Type
REMARK                         _______ _______ _______ _____ _____    ______ ____
ROOT
ATOM      1  C   UNL     1      48.617   4.888  16.677  0.00  0.00    +0.000 C 
ENDROOT
BRANCH   1   5
ATOM      2  C   UNL     1      46.487   6.204  13.137  0.00  0.00    +0.000 A 
ATOM      3  C   UNL     1      46.206   4.968  13.729  0.00  0.00    +0.000 A 
ATOM      4  C   UNL     1      46.956   4.507  14.815  0.00  0.00    +0.000 A 
ATOM      5  C   UNL     1      47.976   5.294  15.367  0.00  0.00    +0.000 A 
ATOM      6  C   UNL     1      48.311   6.495  14.726  0.00  0.00    +0.000 A 
ATOM      7  C   UNL     1      47.574   6.945  13.620  0.00  0.00    +0.000 A 
BRANCH   2   8
ATOM      8  C   UNL     1      45.614   6.728  12.014  0.00  0.00    +0.000 C 
BRANCH   8  14
ATOM      9  C   UNL     1      46.291   4.243   7.684  0.00  0.00    +0.000 C 
ATOM     10  C   UNL     1      45.492   4.496   8.927  0.00  0.00    +0.000 A 
ATOM     11  C   UNL     1      44.311   3.803   9.185  0.00  0.00    +0.000 A 
ATOM     12  C   UNL     1      43.620   4.091  10.351  0.00  0.00    +0.000 A 
ATOM     13  N   UNL     1      44.016   5.009  11.263  0.00  0.00    +0.000 NA
ATOM     14  C   UNL     1      45.170   5.677  11.013  0.00  0.00    +0.000 A 
ATOM     15  C   UNL     1      45.926   5.442   9.861  0.00  0.00    +0.000 A 
ENDBRANCH   8  14
ENDBRANCH   2   8
ENDBRANCH   1   5
BRANCH   1  16
ATOM     16  N   UNL     1      48.240   5.711  17.821  0.00  0.00    +0.000 N 
ATOM     17  C   UNL     1      46.964   5.405  18.444  0.00  0.00    +0.000 C 
ATOM     18  C   UNL     1      49.177   6.635  18.302  0.00  0.00    +0.000 C 
ATOM     19  O   UNL     1      50.251   6.809  17.730  0.00  0.00    +0.000 OA
BRANCH  18  20
ATOM     20  C   UNL     1      48.896   7.373  19.548  0.00  0.00    +0.000 A 
ATOM     21  C   UNL     1      49.234   6.940  20.822  0.00  0.00    +0.000 A 
ATOM     22  S   UNL     1      48.808   8.036  22.060  0.00  0.00    +0.000 S 
ATOM     23  C   UNL     1      48.307   9.190  20.925  0.00  0.00    +0.000 A 
ATOM     24  N   UNL     1      47.921  10.431  21.328  0.00  0.00    +0.000 NA
ATOM     25  C   UNL     1      47.618  11.228  20.356  0.00  0.00    +0.000 A 
ATOM     26  N   UNL     1      47.633  10.886  19.031  0.00  0.00    +0.000 N 
ATOM     27  C   UNL     1      47.895   9.604  18.584  0.00  0.00    +0.000 A 
ATOM     28  O   UNL     1      47.668   9.289  17.428  0.00  0.00    +0.000 OA
ATOM     29  C   UNL     1      48.353   8.712  19.635  0.00  0.00    +0.000 A 
ATOM     30  H   UNL     1      47.314  11.529  18.322  0.00  0.00    +0.000 HD
ENDBRANCH  18  20
ENDBRANCH   1  16
TORSDOF 5
ENDMDL
