MODEL 1
REMARK VINA RESULT:    -7.862      0.000      0.000
REMARK INTER + INTRA:         -12.267
REMARK INTER:                 -11.079
REMARK INTRA:                  -1.188
REMARK UNBOUND:                -1.188
REMARK  Name = 
REMARK  7 active torsions:
REMARK  status: ('A' for Active; 'I' for Inactive)
REMARK    1  A    between atoms: C_2  and  C_20
REMARK    2  A    between atoms: N_3  and  C_4
REMARK    3  A    between atoms: C_4  and  C_5
REMARK    4  A    between atoms: C_8  and  C_9
REMARK    5  A    between atoms: C_9  and  O_10
REMARK    6  A    between atoms: O_10  and  C_11
REMARK    7  A    between atoms: C_11  and  C_12
REMARK                            x       y       z     vdW  Elec       q    Type
REMARK                         _______ _______ _______ _____ _____    ______ ____
ROOT
ATOM      1  C   UNL     1      46.956   8.346  12.970  0.00  0.00    +0.000 C 
ENDROOT
BRANCH   1   2
ATOM      2  C   UNL     1      46.124   7.226  12.390  0.00  0.00    +0.000 A 
ATOM      3  C   UNL     1      46.585   6.521  11.284  0.00  0.00    +0.000 A 
ATOM      4  C   UNL     1      45.812   5.484  10.777  0.00  0.00    +0.000 A 
ATOM      5  C   UNL     1      44.607   5.156  11.399  0.00  0.00    +0.000 A 
ATOM      6  C   UNL     1      44.236   5.892  12.518  0.00  0.00    +0.000 A 
ATOM      7  N   UNL     1      44.969   6.902  13.037  0.00  0.00    +0.000 NA
BRANCH   5   8
ATOM      8  C   UNL     1      43.786   3.988  10.934  0.00  0.00    +0.000 C 
BRANCH   8   9
ATOM      9  O   UNL     1      44.610   2.860  10.631  0.00  0.00    +0.000 OA
BRANCH   9  10
ATOM     10  C   UNL     1      44.315   2.271   9.364  0.00  0.00    +0.000 C 
BRANCH  10  11
ATOM     11  C   UNL     1      45.447   2.498   8.419  0.00  0.00    +0.000 A 
ATOM     12  C   UNL     1      46.332   1.487   8.096  0.00  0.00    +0.000 A 
ATOM     13  N   UNL     1      47.358   1.634   7.237  0.00  0.00    +0.000 NA
ATOM     14  C   UNL     1      47.484   2.852   6.688  0.00  0.00    +0.000 A 
ATOM     15  N   UNL     1      46.680   3.903   6.904  0.00  0.00    +0.000 NA
ATOM     16  C   UNL     1      45.670   3.696   7.773  0.00  0.00    +0.000 A 
ENDBRANCH  10  11
ENDBRANCH   9  10
ENDBRANCH   8   9
ENDBRANCH   5   8
ENDBRANCH   1   2
BRANCH   1  19
ATOM     17  O   UNL     1      49.207   6.687  13.516  0.00  0.00    +0.000 OA
ATOM     18  C   UNL     1      48.510   7.104  14.428  0.00  0.00    +0.000 C 
ATOM     19  N   UNL     1      47.449   7.972  14.269  0.00  0.00    +0.000 N 
ATOM     20  H   UNL     1      46.734   7.958  14.982  0.00  0.00    +0.000 HD
BRANCH  18  21
ATOM     21  C   UNL     1      48.519   6.557  15.776  0.00  0.00    +0.000 A 
ATOM     22  C   UNL     1      49.087   7.237  16.839  0.00  0.00    +0.000 A 
ATOM     23  S   UNL     1      49.687   6.129  18.005  0.00  0.00    +0.000 S 
ATOM     24  C   UNL     1      48.965   4.805  17.202  0.00  0.00    +0.000 A 
ATOM     25  N   UNL     1      49.203   3.517  17.561  0.00  0.00    +0.000 NA
ATOM     26  C   UNL     1      48.518   2.647  16.894  0.00  0.00    +0.000 A 
ATOM     27  N   UNL     1      47.582   2.944  15.933  0.00  0.00    +0.000 N 
ATOM     28  C   UNL     1      47.328   4.233  15.507  0.00  0.00    +0.000 A 
ATOM     29  O   UNL     1      46.483   4.484  14.663  0.00  0.00    +0.000 OA
ATOM     30  C   UNL     1      48.162   5.223  16.165  0.00  0.00    +0.000 A 
ATOM     31  H   UNL     1      47.025   2.215  15.509  0.00  0.00    +0.000 HD
ENDBRANCH  18  21
ENDBRANCH   1  19
TORSDOF 7
ENDMDL
MODEL 2
REMARK VINA RESULT:    -7.616      2.398      3.056
REMARK INTER + INTRA:         -11.921
REMARK INTER:                 -10.834
REMARK INTRA:                  -1.087
REMARK UNBOUND:                -1.188
REMARK  Name = 
REMARK  7 active torsions:
REMARK  status: ('A' for Active; 'I' for Inactive)
REMARK    1  A    between atoms: C_2  and  C_20
REMARK    2  A    between atoms: N_3  and  C_4
REMARK    3  A    between atoms: C_4  and  C_5
REMARK    4  A    between atoms: C_8  and  C_9
REMARK    5  A    between atoms: C_9  and  O_10
REMARK    6  A    between atoms: O_10  and  C_11
REMARK    7  A    between atoms: C_11  and  C_12
REMARK                            x       y       z     vdW  Elec       q    Type
REMARK                         _______ _______ _______ _____ _____    ______ ____
ROOT
ATOM      1  C   UNL     1      47.648   4.530  14.851  0.00  0.00    +0.000 C 
ENDROOT
BRANCH   1   2
ATOM      2  C   UNL     1      46.597   4.615  13.769  0.00  0.00    +0.000 A 
ATOM      3  C   UNL     1      46.221   5.854  13.263  0.00  0.00    +0.000 A 
ATOM      4  C   UNL     1      45.265   5.908  12.257  0.00  0.00    +0.000 A 
ATOM      5  C   UNL     1      44.722   4.723  11.759  0.00  0.00    +0.000 A 
ATOM      6  C   UNL     1      45.176   3.526  12.299  0.00  0.00    +0.000 A 
ATOM      7  N   UNL     1      46.109   3.443  13.275  0.00  0.00    +0.000 NA
BRANCH   5   8
ATOM      8  C   UNL     1      43.751   4.736  10.614  0.00  0.00    +0.000 C 
BRANCH   8   9
ATOM      9  O   UNL     1      44.044   3.703   9.670  0.00  0.00    +0.000 OA
BRANCH   9  10
ATOM     10  C   UNL     1      44.783   4.169   8.539  0.00  0.00    +0.000 C 
BRANCH  10  11
ATOM     11  C   UNL     1      45.710   3.102   8.060  0.00  0.00    +0.000 A 
ATOM     12  C   UNL     1      46.731   3.377   7.172  0.00  0.00    +0.000 A 
ATOM     13  N   UNL     1      47.604   2.456   6.723  0.00  0.00    +0.000 NA
ATOM     14  C   UNL     1      47.431   1.214   7.200  0.00  0.00    +0.000 A 
ATOM     15  N   UNL     1      46.495   0.828   8.079  0.00  0.00    +0.000 NA
ATOM     16  C   UNL     1      45.650   1.794   8.493  0.00  0.00    +0.000 A 
ENDBRANCH  10  11
ENDBRANCH   9  10
ENDBRANCH   8   9
ENDBRANCH   5   8
ENDBRANCH   1   2
BRANCH   1  19
ATOM     17  O   UNL     1      49.881   5.539  16.304  0.00  0.00    +0.000 OA
ATOM     18  C   UNL     1      48.817   6.137  16.312  0.00  0.00    +0.000 C 
ATOM     19  N   UNL     1      47.706   5.769  15.580  0.00  0.00    +0.000 N 
ATOM     20  H   UNL     1      46.808   6.076  15.925  0.00  0.00    +0.000 HD
BRANCH  18  21
ATOM     21  C   UNL     1      48.468   7.165  17.279  0.00  0.00    +0.000 A 
ATOM     22  C   UNL     1      48.855   8.484  17.119  0.00  0.00    +0.000 A 
ATOM     23  S   UNL     1      49.059   9.238  18.648  0.00  0.00    +0.000 S 
ATOM     24  C   UNL     1      48.397   7.891  19.464  0.00  0.00    +0.000 A 
ATOM     25  N   UNL     1      48.410   7.779  20.818  0.00  0.00    +0.000 NA
ATOM     26  C   UNL     1      47.803   6.732  21.269  0.00  0.00    +0.000 A 
ATOM     27  N   UNL     1      47.140   5.806  20.497  0.00  0.00    +0.000 N 
ATOM     28  C   UNL     1      47.126   5.855  19.117  0.00  0.00    +0.000 A 
ATOM     29  O   UNL     1      46.521   5.036  18.444  0.00  0.00    +0.000 OA
ATOM     30  C   UNL     1      47.893   6.965  18.579  0.00  0.00    +0.000 A 
ATOM     31  H   UNL     1      46.617   5.055  20.924  0.00  0.00    +0.000 HD
ENDBRANCH  18  21
ENDBRANCH   1  19
TORSDOF 7
ENDMDL
MODEL 3
REMARK VINA RESULT:    -7.486      1.668      2.101
REMARK INTER + INTRA:         -11.737
REMARK INTER:                 -10.585
REMARK INTRA:                  -1.152
REMARK UNBOUND:                -1.188
REMARK  Name = 
REMARK  7 active torsions:
REMARK  status: ('A' for Active; 'I' for Inactive)
REMARK    1  A    between atoms: C_2  and  C_20
REMARK    2  A    between atoms: N_3  and  C_4
REMARK    3  A    between atoms: C_4  and  C_5
REMARK    4  A    between atoms: C_8  and  C_9
REMARK    5  A    between atoms: C_9  and  O_10
REMARK    6  A    between atoms: O_10  and  C_11
REMARK    7  A    between atoms: C_11  and  C_12
REMARK                            x       y       z     vdW  Elec       q    Type
REMARK                         _______ _______ _______ _____ _____    ______ ____
ROOT
ATOM      1  C   UNL     1      48.267   6.535  13.539  0.00  0.00    +0.000 C 
ENDROOT
BRANCH   1   2
ATOM      2  C   UNL     1      46.949   6.007  13.024  0.00  0.00    +0.000 A 
ATOM      3  C   UNL     1      46.394   6.540  11.865  0.00  0.00    +0.000 A 
ATOM      4  C   UNL     1      45.189   6.029  11.400  0.00  0.00    +0.000 A 
ATOM      5  C   UNL     1      44.575   4.980  12.086  0.00  0.00    +0.000 A 
ATOM      6  C   UNL     1      45.214   4.486  13.217  0.00  0.00    +0.000 A 
ATOM      7  N   UNL     1      46.388   4.960  13.690  0.00  0.00    +0.000 NA
BRANCH   5   8
ATOM      8  C   UNL     1      43.318   4.344  11.566  0.00  0.00    +0.000 C 
BRANCH   8   9
ATOM      9  O   UNL     1      43.466   3.934  10.205  0.00  0.00    +0.000 OA
BRANCH   9  10
ATOM     10  C   UNL     1      44.158   2.693  10.064  0.00  0.00    +0.000 C 
BRANCH  10  11
ATOM     11  C   UNL     1      45.156   2.788   8.958  0.00  0.00    +0.000 A 
ATOM     12  C   UNL     1      45.443   3.992   8.345  0.00  0.00    +0.000 A 
ATOM     13  N   UNL     1      46.346   4.135   7.357  0.00  0.00    +0.000 NA
ATOM     14  C   UNL     1      46.979   3.012   6.984  0.00  0.00    +0.000 A 
ATOM     15  N   UNL     1      46.804   1.793   7.515  0.00  0.00    +0.000 NA
ATOM     16  C   UNL     1      45.888   1.712   8.501  0.00  0.00    +0.000 A 
ENDBRANCH  10  11
ENDBRANCH   9  10
ENDBRANCH   8   9
ENDBRANCH   5   8
ENDBRANCH   1   2
BRANCH   1  19
ATOM     17  O   UNL     1      50.282   6.635  15.551  0.00  0.00    +0.000 OA
ATOM     18  C   UNL     1      49.135   6.967  15.807  0.00  0.00    +0.000 C 
ATOM     19  N   UNL     1      48.111   7.025  14.883  0.00  0.00    +0.000 N 
ATOM     20  H   UNL     1      47.169   6.938  15.236  0.00  0.00    +0.000 HD
BRANCH  18  21
ATOM     21  C   UNL     1      48.607   7.098  17.155  0.00  0.00    +0.000 A 
ATOM     22  C   UNL     1      48.546   8.320  17.803  0.00  0.00    +0.000 A 
ATOM     23  S   UNL     1      48.694   8.105  19.500  0.00  0.00    +0.000 S 
ATOM     24  C   UNL     1      48.583   6.407  19.353  0.00  0.00    +0.000 A 
ATOM     25  N   UNL     1      48.796   5.568  20.400  0.00  0.00    +0.000 NA
ATOM     26  C   UNL     1      48.600   4.320  20.127  0.00  0.00    +0.000 A 
ATOM     27  N   UNL     1      48.166   3.833  18.917  0.00  0.00    +0.000 N 
ATOM     28  C   UNL     1      47.969   4.637  17.812  0.00  0.00    +0.000 A 
ATOM     29  O   UNL     1      47.568   4.193  16.748  0.00  0.00    +0.000 OA
ATOM     30  C   UNL     1      48.285   6.033  18.061  0.00  0.00    +0.000 A 
ATOM     31  H   UNL     1      47.956   2.852  18.799  0.00  0.00    +0.000 HD
ENDBRANCH  18  21
ENDBRANCH   1  19
TORSDOF 7
ENDMDL
MODEL 4
REMARK VINA RESULT:    -7.438      1.345      1.450
REMARK INTER + INTRA:         -11.670
REMARK INTER:                 -10.585
REMARK INTRA:                  -1.085
REMARK UNBOUND:                -1.188
REMARK  Name = 
REMARK  7 active torsions:
REMARK  status: ('A' for Active; 'I' for Inactive)
REMARK    1  A    between atoms: C_2  and  C_20
REMARK    2  A    between atoms: N_3  and  C_4
REMARK    3  A    between atoms: C_4  and  C_5
REMARK    4  A    between atoms: C_8  and  C_9
REMARK    5  A    between atoms: C_9  and  O_10
REMARK    6  A    between atoms: O_10  and  C_11
REMARK    7  A    between atoms: C_11  and  C_12
REMARK                            x       y       z     vdW  Elec       q    Type
REMARK                         _______ _______ _______ _____ _____    ______ ____
ROOT
ATOM      1  C   UNL     1      48.125   6.668  13.234  0.00  0.00    +0.000 C 
ENDROOT
BRANCH   1   2
ATOM      2  C   UNL     1      46.897   5.958  12.715  0.00  0.00    +0.000 A 
ATOM      3  C   UNL     1      46.318   6.361  11.516  0.00  0.00    +0.000 A 
ATOM      4  C   UNL     1      45.199   5.683  11.049  0.00  0.00    +0.000 A 
ATOM      5  C   UNL     1      44.696   4.601  11.773  0.00  0.00    +0.000 A 
ATOM      6  C   UNL     1      45.354   4.246  12.944  0.00  0.00    +0.000 A 
ATOM      7  N   UNL     1      46.447   4.883  13.421  0.00  0.00    +0.000 NA
BRANCH   5   8
ATOM      8  C   UNL     1      43.542   3.791  11.257  0.00  0.00    +0.000 C 
BRANCH   8   9
ATOM      9  O   UNL     1      43.683   3.514   9.862  0.00  0.00    +0.000 OA
BRANCH   9  10
ATOM     10  C   UNL     1      44.358   2.283   9.599  0.00  0.00    +0.000 C 
BRANCH  10  11
ATOM     11  C   UNL     1      45.447   2.500   8.602  0.00  0.00    +0.000 A 
ATOM     12  C   UNL     1      46.264   1.467   8.187  0.00  0.00    +0.000 A 
ATOM     13  N   UNL     1      47.248   1.605   7.278  0.00  0.00    +0.000 NA
ATOM     14  C   UNL     1      47.400   2.839   6.774  0.00  0.00    +0.000 A 
ATOM     15  N   UNL     1      46.659   3.914   7.079  0.00  0.00    +0.000 NA
ATOM     16  C   UNL     1      45.689   3.715   7.994  0.00  0.00    +0.000 A 
ENDBRANCH  10  11
ENDBRANCH   9  10
ENDBRANCH   8   9
ENDBRANCH   5   8
ENDBRANCH   1   2
BRANCH   1  19
ATOM     17  O   UNL     1      48.535   8.201  15.601  0.00  0.00    +0.000 OA
ATOM     18  C   UNL     1      48.721   6.994  15.606  0.00  0.00    +0.000 C 
ATOM     19  N   UNL     1      48.476   6.159  14.534  0.00  0.00    +0.000 N 
ATOM     20  H   UNL     1      48.993   5.292  14.501  0.00  0.00    +0.000 HD
BRANCH  18  21
ATOM     21  C   UNL     1      49.467   6.289  16.635  0.00  0.00    +0.000 A 
ATOM     22  C   UNL     1      50.590   6.836  17.232  0.00  0.00    +0.000 A 
ATOM     23  S   UNL     1      51.675   5.597  17.715  0.00  0.00    +0.000 S 
ATOM     24  C   UNL     1      50.533   4.378  17.355  0.00  0.00    +0.000 A 
ATOM     25  N   UNL     1      50.846   3.056  17.378  0.00  0.00    +0.000 NA
ATOM     26  C   UNL     1      49.844   2.271  17.150  0.00  0.00    +0.000 A 
ATOM     27  N   UNL     1      48.548   2.681  16.946  0.00  0.00    +0.000 N 
ATOM     28  C   UNL     1      48.184   4.011  16.878  0.00  0.00    +0.000 A 
ATOM     29  O   UNL     1      47.026   4.361  16.712  0.00  0.00    +0.000 OA
ATOM     30  C   UNL     1      49.310   4.917  17.025  0.00  0.00    +0.000 A 
ATOM     31  H   UNL     1      47.800   2.007  16.855  0.00  0.00    +0.000 HD
ENDBRANCH  18  21
ENDBRANCH   1  19
TORSDOF 7
ENDMDL
MODEL 5
REMARK VINA RESULT:    -7.081      2.097      3.589
REMARK INTER + INTRA:         -11.167
REMARK INTER:                 -10.279
REMARK INTRA:                  -0.888
REMARK UNBOUND:                -1.188
REMARK  Name = 
REMARK  7 active torsions:
REMARK  status: ('A' for Active; 'I' for Inactive)
REMARK    1  A    between atoms: C_2  and  C_20
REMARK    2  A    between atoms: N_3  and  C_4
REMARK    3  A    between atoms: C_4  and  C_5
REMARK    4  A    between atoms: C_8  and  C_9
REMARK    5  A    between atoms: C_9  and  O_10
REMARK    6  A    between atoms: O_10  and  C_11
REMARK    7  A    between atoms: C_11  and  C_12
REMARK                            x       y       z     vdW  Elec       q    Type
REMARK                         _______ _______ _______ _____ _____    ______ ____
ROOT
ATOM      1  C   UNL     1      47.327   4.364  15.779  0.00  0.00    +0.000 C 
ENDROOT
BRANCH   1   2
ATOM      2  C   UNL     1      46.819   4.695  14.395  0.00  0.00    +0.000 A 
ATOM      3  C   UNL     1      47.295   5.821  13.733  0.00  0.00    +0.000 A 
ATOM      4  C   UNL     1      46.827   6.098  12.454  0.00  0.00    +0.000 A 
ATOM      5  C   UNL     1      45.913   5.231  11.853  0.00  0.00    +0.000 A 
ATOM      6  C   UNL     1      45.513   4.112  12.573  0.00  0.00    +0.000 A 
ATOM      7  N   UNL     1      45.955   3.815  13.816  0.00  0.00    +0.000 NA
BRANCH   5   8
ATOM      8  C   UNL     1      45.450   5.449  10.441  0.00  0.00    +0.000 C 
BRANCH   8   9
ATOM      9  O   UNL     1      44.978   4.235   9.854  0.00  0.00    +0.000 OA
BRANCH   9  10
ATOM     10  C   UNL     1      45.047   4.237   8.427  0.00  0.00    +0.000 C 
BRANCH  10  11
ATOM     11  C   UNL     1      45.866   3.083   7.954  0.00  0.00    +0.000 A 
ATOM     12  C   UNL     1      46.833   3.235   6.979  0.00  0.00    +0.000 A 
ATOM     13  N   UNL     1      47.610   2.232   6.529  0.00  0.00    +0.000 NA
ATOM     14  C   UNL     1      47.397   1.035   7.097  0.00  0.00    +0.000 A 
ATOM     15  N   UNL     1      46.507   0.767   8.064  0.00  0.00    +0.000 NA
ATOM     16  C   UNL     1      45.758   1.810   8.473  0.00  0.00    +0.000 A 
ENDBRANCH  10  11
ENDBRANCH   9  10
ENDBRANCH   8   9
ENDBRANCH   5   8
ENDBRANCH   1   2
BRANCH   1  19
ATOM     17  O   UNL     1      50.004   4.481  16.745  0.00  0.00    +0.000 OA
ATOM     18  C   UNL     1      49.264   5.446  16.856  0.00  0.00    +0.000 C 
ATOM     19  N   UNL     1      47.981   5.511  16.351  0.00  0.00    +0.000 N 
ATOM     20  H   UNL     1      47.345   6.156  16.798  0.00  0.00    +0.000 HD
BRANCH  18  21
ATOM     21  C   UNL     1      49.513   6.566  17.749  0.00  0.00    +0.000 A 
ATOM     22  C   UNL     1      49.980   6.385  19.039  0.00  0.00    +0.000 A 
ATOM     23  S   UNL     1      49.415   7.643  20.062  0.00  0.00    +0.000 S 
ATOM     24  C   UNL     1      48.785   8.516  18.735  0.00  0.00    +0.000 A 
ATOM     25  N   UNL     1      48.016   9.625  18.891  0.00  0.00    +0.000 NA
ATOM     26  C   UNL     1      47.686  10.200  17.782  0.00  0.00    +0.000 A 
ATOM     27  N   UNL     1      48.091   9.799  16.531  0.00  0.00    +0.000 N 
ATOM     28  C   UNL     1      48.842   8.661  16.315  0.00  0.00    +0.000 A 
ATOM     29  O   UNL     1      49.208   8.325  15.200  0.00  0.00    +0.000 OA
ATOM     30  C   UNL     1      49.138   7.935  17.538  0.00  0.00    +0.000 A 
ATOM     31  H   UNL     1      47.861  10.345  15.712  0.00  0.00    +0.000 HD
ENDBRANCH  18  21
ENDBRANCH   1  19
TORSDOF 7
ENDMDL
MODEL 6
REMARK VINA RESULT:    -6.939      1.981      2.524
REMARK INTER + INTRA:         -10.966
REMARK INTER:                  -9.890
REMARK INTRA:                  -1.076
REMARK UNBOUND:                -1.188
REMARK  Name = 
REMARK  7 active torsions:
REMARK  status: ('A' for Active; 'I' for Inactive)
REMARK    1  A    between atoms: C_2  and  C_20
REMARK    2  A    between atoms: N_3  and  C_4
REMARK    3  A    between atoms: C_4  and  C_5
REMARK    4  A    between atoms: C_8  and  C_9
REMARK    5  A    between atoms: C_9  and  O_10
REMARK    6  A    between atoms: O_10  and  C_11
REMARK    7  A    between atoms: C_11  and  C_12
REMARK                            x       y       z     vdW  Elec       q    Type
REMARK                         _______ _______ _______ _____ _____    ______ ____
ROOT
ATOM      1  C   UNL     1      48.585   6.819  13.114  0.00  0.00    +0.000 C 
ENDROOT
BRANCH   1   2
ATOM      2  C   UNL     1      47.239   6.247  12.735  0.00  0.00    +0.000 A 
ATOM      3  C   UNL     1      46.506   6.824  11.704  0.00  0.00    +0.000 A 
ATOM      4  C   UNL     1      45.278   6.271  11.361  0.00  0.00    +0.000 A 
ATOM      5  C   UNL     1      44.819   5.140  12.037  0.00  0.00    +0.000 A 
ATOM      6  C   UNL     1      45.628   4.610  13.034  0.00  0.00    +0.000 A 
ATOM      7  N   UNL     1      46.829   5.123  13.386  0.00  0.00    +0.000 NA
BRANCH   5   8
ATOM      8  C   UNL     1      43.539   4.465  11.638  0.00  0.00    +0.000 C 
BRANCH   8   9
ATOM      9  O   UNL     1      43.580   4.033  10.276  0.00  0.00    +0.000 OA
BRANCH   9  10
ATOM     10  C   UNL     1      44.241   2.778  10.104  0.00  0.00    +0.000 C 
BRANCH  10  11
ATOM     11  C   UNL     1      45.213   2.863   8.976  0.00  0.00    +0.000 A 
ATOM     12  C   UNL     1      45.544   4.073   8.396  0.00  0.00    +0.000 A 
ATOM     13  N   UNL     1      46.427   4.206   7.389  0.00  0.00    +0.000 NA
ATOM     14  C   UNL     1      46.994   3.068   6.962  0.00  0.00    +0.000 A 
ATOM     15  N   UNL     1      46.772   1.841   7.456  0.00  0.00    +0.000 NA
ATOM     16  C   UNL     1      45.879   1.769   8.462  0.00  0.00    +0.000 A 
ENDBRANCH  10  11
ENDBRANCH   9  10
ENDBRANCH   8   9
ENDBRANCH   5   8
ENDBRANCH   1   2
BRANCH   1  19
ATOM     17  O   UNL     1      50.596   8.146  14.635  0.00  0.00    +0.000 OA
ATOM     18  C   UNL     1      49.820   7.374  15.176  0.00  0.00    +0.000 C 
ATOM     19  N   UNL     1      48.769   6.745  14.540  0.00  0.00    +0.000 N 
ATOM     20  H   UNL     1      48.439   5.881  14.944  0.00  0.00    +0.000 HD
BRANCH  18  21
ATOM     21  C   UNL     1      50.033   6.795  16.493  0.00  0.00    +0.000 A 
ATOM     22  C   UNL     1      51.046   5.885  16.739  0.00  0.00    +0.000 A 
ATOM     23  S   UNL     1      50.590   4.808  17.996  0.00  0.00    +0.000 S 
ATOM     24  C   UNL     1      49.188   5.719  18.346  0.00  0.00    +0.000 A 
ATOM     25  N   UNL     1      48.236   5.287  19.213  0.00  0.00    +0.000 NA
ATOM     26  C   UNL     1      47.280   6.134  19.413  0.00  0.00    +0.000 A 
ATOM     27  N   UNL     1      47.208   7.392  18.865  0.00  0.00    +0.000 N 
ATOM     28  C   UNL     1      48.130   7.865  17.952  0.00  0.00    +0.000 A 
ATOM     29  O   UNL     1      48.063   8.991  17.484  0.00  0.00    +0.000 OA
ATOM     30  C   UNL     1      49.159   6.892  17.627  0.00  0.00    +0.000 A 
ATOM     31  H   UNL     1      46.473   8.032  19.130  0.00  0.00    +0.000 HD
ENDBRANCH  18  21
ENDBRANCH   1  19
TORSDOF 7
ENDMDL
MODEL 7
REMARK VINA RESULT:    -6.865      3.077      7.567
REMARK INTER + INTRA:         -10.863
REMARK INTER:                  -9.413
REMARK INTRA:                  -1.450
REMARK UNBOUND:                -1.188
REMARK  Name = 
REMARK  7 active torsions:
REMARK  status: ('A' for Active; 'I' for Inactive)
REMARK    1  A    between atoms: C_2  and  C_20
REMARK    2  A    between atoms: N_3  and  C_4
REMARK    3  A    between atoms: C_4  and  C_5
REMARK    4  A    between atoms: C_8  and  C_9
REMARK    5  A    between atoms: C_9  and  O_10
REMARK    6  A    between atoms: O_10  and  C_11
REMARK    7  A    between atoms: C_11  and  C_12
REMARK                            x       y       z     vdW  Elec       q    Type
REMARK                         _______ _______ _______ _____ _____    ______ ____
ROOT
ATOM      1  C   UNL     1      46.652   8.466  13.051  0.00  0.00    +0.000 C 
ENDROOT
BRANCH   1   2
ATOM      2  C   UNL     1      47.625   8.134  14.157  0.00  0.00    +0.000 A 
ATOM      3  C   UNL     1      47.995   9.114  15.072  0.00  0.00    +0.000 A 
ATOM      4  C   UNL     1      48.878   8.784  16.092  0.00  0.00    +0.000 A 
ATOM      5  C   UNL     1      49.355   7.476  16.193  0.00  0.00    +0.000 A 
ATOM      6  C   UNL     1      48.911   6.552  15.256  0.00  0.00    +0.000 A 
ATOM      7  N   UNL     1      48.048   6.843  14.256  0.00  0.00    +0.000 NA
BRANCH   5   8
ATOM      8  C   UNL     1      50.243   7.060  17.330  0.00  0.00    +0.000 C 
BRANCH   8   9
ATOM      9  O   UNL     1      49.483   6.776  18.507  0.00  0.00    +0.000 OA
BRANCH   9  10
ATOM     10  C   UNL     1      49.729   5.471  19.034  0.00  0.00    +0.000 C 
BRANCH  10  11
ATOM     11  C   UNL     1      49.059   4.444  18.184  0.00  0.00    +0.000 A 
ATOM     12  C   UNL     1      47.689   4.428  18.012  0.00  0.00    +0.000 A 
ATOM     13  N   UNL     1      47.038   3.535  17.244  0.00  0.00    +0.000 NA
ATOM     14  C   UNL     1      47.812   2.630  16.627  0.00  0.00    +0.000 A 
ATOM     15  N   UNL     1      49.149   2.555  16.697  0.00  0.00    +0.000 NA
ATOM     16  C   UNL     1      49.745   3.475  17.481  0.00  0.00    +0.000 A 
ENDBRANCH  10  11
ENDBRANCH   9  10
ENDBRANCH   8   9
ENDBRANCH   5   8
ENDBRANCH   1   2
BRANCH   1  19
ATOM     17  O   UNL     1      44.536   7.919  11.222  0.00  0.00    +0.000 OA
ATOM     18  C   UNL     1      45.493   7.165  11.304  0.00  0.00    +0.000 C 
ATOM     19  N   UNL     1      46.599   7.386  12.101  0.00  0.00    +0.000 N 
ATOM     20  H   UNL     1      47.129   6.574  12.383  0.00  0.00    +0.000 HD
BRANCH  18  21
ATOM     21  C   UNL     1      45.508   5.807  10.784  0.00  0.00    +0.000 A 
ATOM     22  C   UNL     1      45.804   5.532   9.460  0.00  0.00    +0.000 A 
ATOM     23  S   UNL     1      44.985   4.113   8.947  0.00  0.00    +0.000 S 
ATOM     24  C   UNL     1      44.468   3.767  10.538  0.00  0.00    +0.000 A 
ATOM     25  N   UNL     1      43.584   2.774  10.817  0.00  0.00    +0.000 NA
ATOM     26  C   UNL     1      43.360   2.605  12.079  0.00  0.00    +0.000 A 
ATOM     27  N   UNL     1      43.972   3.303  13.093  0.00  0.00    +0.000 N 
ATOM     28  C   UNL     1      44.851   4.343  12.862  0.00  0.00    +0.000 A 
ATOM     29  O   UNL     1      45.399   4.945  13.772  0.00  0.00    +0.000 OA
ATOM     30  C   UNL     1      45.038   4.626  11.450  0.00  0.00    +0.000 A 
ATOM     31  H   UNL     1      43.809   3.061  14.060  0.00  0.00    +0.000 HD
ENDBRANCH  18  21
ENDBRANCH   1  19
TORSDOF 7
ENDMDL
MODEL 8
REMARK VINA RESULT:    -6.549      3.760      7.296
REMARK INTER + INTRA:         -10.417
REMARK INTER:                  -8.963
REMARK INTRA:                  -1.454
REMARK UNBOUND:                -1.188
REMARK  Name = 
REMARK  7 active torsions:
REMARK  status: ('A' for Active; 'I' for Inactive)
REMARK    1  A    between atoms: C_2  and  C_20
REMARK    2  A    between atoms: N_3  and  C_4
REMARK    3  A    between atoms: C_4  and  C_5
REMARK    4  A    between atoms: C_8  and  C_9
REMARK    5  A    between atoms: C_9  and  O_10
REMARK    6  A    between atoms: O_10  and  C_11
REMARK    7  A    between atoms: C_11  and  C_12
REMARK                            x       y       z     vdW  Elec       q    Type
REMARK                         _______ _______ _______ _____ _____    ______ ____
ROOT
ATOM      1  C   UNL     1      47.642   6.386  14.059  0.00  0.00    +0.000 C 
ENDROOT
BRANCH   1   2
ATOM      2  C   UNL     1      47.850   7.650  13.259  0.00  0.00    +0.000 A 
ATOM      3  C   UNL     1      49.002   7.806  12.495  0.00  0.00    +0.000 A 
ATOM      4  C   UNL     1      49.165   8.969  11.754  0.00  0.00    +0.000 A 
ATOM      5  C   UNL     1      48.165   9.942  11.769  0.00  0.00    +0.000 A 
ATOM      6  C   UNL     1      47.033   9.693  12.535  0.00  0.00    +0.000 A 
ATOM      7  N   UNL     1      46.844   8.569  13.262  0.00  0.00    +0.000 NA
BRANCH   5   8
ATOM      8  C   UNL     1      48.266  11.172  10.914  0.00  0.00    +0.000 C 
BRANCH   8   9
ATOM      9  O   UNL     1      47.126  12.017  11.080  0.00  0.00    +0.000 OA
BRANCH   9  10
ATOM     10  C   UNL     1      46.320  12.112   9.905  0.00  0.00    +0.000 C 
BRANCH  10  11
ATOM     11  C   UNL     1      44.919  11.700  10.211  0.00  0.00    +0.000 A 
ATOM     12  C   UNL     1      44.151  11.010   9.294  0.00  0.00    +0.000 A 
ATOM     13  N   UNL     1      42.890  10.601   9.527  0.00  0.00    +0.000 NA
ATOM     14  C   UNL     1      42.398  10.903  10.738  0.00  0.00    +0.000 A 
ATOM     15  N   UNL     1      43.049  11.547  11.717  0.00  0.00    +0.000 NA
ATOM     16  C   UNL     1      44.308  11.932  11.426  0.00  0.00    +0.000 A 
ENDBRANCH  10  11
ENDBRANCH   9  10
ENDBRANCH   8   9
ENDBRANCH   5   8
ENDBRANCH   1   2
BRANCH   1  19
ATOM     17  O   UNL     1      47.268   3.614  13.517  0.00  0.00    +0.000 OA
ATOM     18  C   UNL     1      46.351   4.405  13.356  0.00  0.00    +0.000 C 
ATOM     19  N   UNL     1      46.413   5.749  13.664  0.00  0.00    +0.000 N 
ATOM     20  H   UNL     1      45.783   6.362  13.168  0.00  0.00    +0.000 HD
BRANCH  18  21
ATOM     21  C   UNL     1      45.154   4.118  12.583  0.00  0.00    +0.000 A 
ATOM     22  C   UNL     1      44.125   3.340  13.086  0.00  0.00    +0.000 A 
ATOM     23  S   UNL     1      43.323   2.513  11.813  0.00  0.00    +0.000 S 
ATOM     24  C   UNL     1      44.185   3.388  10.625  0.00  0.00    +0.000 A 
ATOM     25  N   UNL     1      44.118   3.083   9.303  0.00  0.00    +0.000 NA
ATOM     26  C   UNL     1      44.776   3.892   8.539  0.00  0.00    +0.000 A 
ATOM     27  N   UNL     1      45.457   5.007   8.967  0.00  0.00    +0.000 N 
ATOM     28  C   UNL     1      45.584   5.342  10.300  0.00  0.00    +0.000 A 
ATOM     29  O   UNL     1      46.179   6.344  10.665  0.00  0.00    +0.000 OA
ATOM     30  C   UNL     1      44.944   4.388  11.190  0.00  0.00    +0.000 A 
ATOM     31  H   UNL     1      45.881   5.641   8.304  0.00  0.00    +0.000 HD
ENDBRANCH  18  21
ENDBRANCH   1  19
TORSDOF 7
ENDMDL
MODEL 9
REMARK VINA RESULT:    -6.356      3.761      7.506
REMARK INTER + INTRA:         -10.145
REMARK INTER:                  -8.337
REMARK INTRA:                  -1.808
REMARK UNBOUND:                -1.188
REMARK  Name = 
REMARK  7 active torsions:
REMARK  status: ('A' for Active; 'I' for Inactive)
REMARK    1  A    between atoms: C_2  and  C_20
REMARK    2  A    between atoms: N_3  and  C_4
REMARK    3  A    between atoms: C_4  and  C_5
REMARK    4  A    between atoms: C_8  and  C_9
REMARK    5  A    between atoms: C_9  and  O_10
REMARK    6  A    between atoms: O_10  and  C_11
REMARK    7  A    between atoms: C_11  and  C_12
REMARK                            x       y       z     vdW  Elec       q    Type
REMARK                         _______ _______ _______ _____ _____    ______ ____
ROOT
ATOM      1  C   UNL     1      48.096   9.765  16.375  0.00  0.00    +0.000 C 
ENDROOT
BRANCH   1   2
ATOM      2  C   UNL     1      48.533   8.787  17.440  0.00  0.00    +0.000 A 
ATOM      3  C   UNL     1      47.738   8.584  18.562  0.00  0.00    +0.000 A 
ATOM      4  C   UNL     1      48.150   7.668  19.522  0.00  0.00    +0.000 A 
ATOM      5  C   UNL     1      49.334   6.955  19.329  0.00  0.00    +0.000 A 
ATOM      6  C   UNL     1      50.052   7.197  18.165  0.00  0.00    +0.000 A 
ATOM      7  N   UNL     1      49.674   8.078  17.212  0.00  0.00    +0.000 NA
BRANCH   5   8
ATOM      8  C   UNL     1      49.768   5.895  20.300  0.00  0.00    +0.000 C 
BRANCH   8   9
ATOM      9  O   UNL     1      49.897   4.624  19.660  0.00  0.00    +0.000 OA
BRANCH   9  10
ATOM     10  C   UNL     1      48.660   3.916  19.561  0.00  0.00    +0.000 C 
BRANCH  10  11
ATOM     11  C   UNL     1      48.366   3.602  18.132  0.00  0.00    +0.000 A 
ATOM     12  C   UNL     1      47.338   4.225  17.451  0.00  0.00    +0.000 A 
ATOM     13  N   UNL     1      47.043   3.990  16.159  0.00  0.00    +0.000 NA
ATOM     14  C   UNL     1      47.824   3.092  15.540  0.00  0.00    +0.000 A 
ATOM     15  N   UNL     1      48.862   2.440  16.084  0.00  0.00    +0.000 NA
ATOM     16  C   UNL     1      49.110   2.715  17.380  0.00  0.00    +0.000 A 
ENDBRANCH  10  11
ENDBRANCH   9  10
ENDBRANCH   8   9
ENDBRANCH   5   8
ENDBRANCH   1   2
BRANCH   1  19
ATOM     17  O   UNL     1      49.238   9.418  13.787  0.00  0.00    +0.000 OA
ATOM     18  C   UNL     1      48.114   9.006  14.028  0.00  0.00    +0.000 C 
ATOM     19  N   UNL     1      47.508   9.059  15.267  0.00  0.00    +0.000 N 
ATOM     20  H   UNL     1      46.499   9.051  15.285  0.00  0.00    +0.000 HD
BRANCH  18  21
ATOM     21  C   UNL     1      47.146   8.638  13.007  0.00  0.00    +0.000 A 
ATOM     22  C   UNL     1      46.459   9.589  12.273  0.00  0.00    +0.000 A 
ATOM     23  S   UNL     1      44.916   8.990  11.814  0.00  0.00    +0.000 S 
ATOM     24  C   UNL     1      45.294   7.422  12.377  0.00  0.00    +0.000 A 
ATOM     25  N   UNL     1      44.368   6.430  12.447  0.00  0.00    +0.000 NA
ATOM     26  C   UNL     1      44.843   5.289  12.828  0.00  0.00    +0.000 A 
ATOM     27  N   UNL     1      46.166   5.034  13.101  0.00  0.00    +0.000 N 
ATOM     28  C   UNL     1      47.139   6.014  13.078  0.00  0.00    +0.000 A 
ATOM     29  O   UNL     1      48.313   5.770  13.308  0.00  0.00    +0.000 OA
ATOM     30  C   UNL     1      46.613   7.329  12.758  0.00  0.00    +0.000 A 
ATOM     31  H   UNL     1      46.479   4.097  13.314  0.00  0.00    +0.000 HD
ENDBRANCH  18  21
ENDBRANCH   1  19
TORSDOF 7
ENDMDL
