MODEL 1
REMARK VINA RESULT:    -7.317      0.000      0.000
REMARK INTER + INTRA:          -9.311
REMARK INTER:                  -9.028
REMARK INTRA:                  -0.283
REMARK UNBOUND:                -0.283
REMARK  Name = 
REMARK  4 active torsions:
REMARK  status: ('A' for Active; 'I' for Inactive)
REMARK    1  A    between atoms: C_5  and  O_6
REMARK    2  A    between atoms: O_6  and  C_7
REMARK    3  A    between atoms: C_7  and  C_8
REMARK    4  A    between atoms: C_13  and  C_14
REMARK                            x       y       z     vdW  Elec       q    Type
REMARK                         _______ _______ _______ _____ _____    ______ ____
ROOT
ATOM      1  C   UNL     1      45.156   5.235  12.149  0.00  0.00    +0.000 A 
ATOM      2  C   UNL     1      45.595   4.463  13.232  0.00  0.00    +0.000 A 
ATOM      3  C   UNL     1      46.836   4.700  13.819  0.00  0.00    +0.000 A 
ATOM      4 CL   UNL     1      47.352   3.720  15.138  0.00  0.00    +0.000 Cl
ATOM      5  C   UNL     1      47.669   5.714  13.343  0.00  0.00    +0.000 A 
ATOM      6  C   UNL     1      47.258   6.524  12.276  0.00  0.00    +0.000 A 
ATOM      7  C   UNL     1      45.999   6.268  11.718  0.00  0.00    +0.000 A 
ENDROOT
BRANCH   6   8
ATOM      8  C   UNL     1      48.169   7.623  11.746  0.00  0.00    +0.000 C 
ATOM      9  C   UNL     1      49.649   7.432  12.112  0.00  0.00    +0.000 C 
ATOM     10  C   UNL     1      50.010   7.912  13.517  0.00  0.00    +0.000 C 
ATOM     11  N   UNL     1      49.545   9.270  13.798  0.00  0.00    +0.000 NA
ATOM     12  C   UNL     1      48.120   9.463  13.537  0.00  0.00    +0.000 C 
ATOM     13  C   UNL     1      47.705   9.038  12.128  0.00  0.00    +0.000 C 
ATOM     14  H   UNL     1      50.075   9.921  13.222  0.00  0.00    +0.000 HD
ENDBRANCH   6   8
BRANCH   1  15
ATOM     15  C   UNL     1      43.836   4.977  11.449  0.00  0.00    +0.000 C 
ATOM     16  C   UNL     1      42.526   5.315  12.161  0.00  0.00    +0.000 C 
ATOM     17  C   UNL     1      42.997   6.172  11.039  0.00  0.00    +0.000 C 
BRANCH  15  18
ATOM     18  O   UNL     1      43.727   3.709  10.757  0.00  0.00    +0.000 OA
BRANCH  18  23
ATOM     19 CL   UNL     1      47.017   2.446   6.199  0.00  0.00    +0.000 Cl
ATOM     20  C   UNL     1      46.156   2.856   7.615  0.00  0.00    +0.000 A 
ATOM     21  C   UNL     1      45.763   4.148   7.884  0.00  0.00    +0.000 A 
ATOM     22  N   UNL     1      45.021   4.489   8.953  0.00  0.00    +0.000 NA
ATOM     23  C   UNL     1      44.657   3.482   9.768  0.00  0.00    +0.000 A 
ATOM     24  N   UNL     1      45.022   2.194   9.629  0.00  0.00    +0.000 NA
ATOM     25  C   UNL     1      45.778   1.916   8.542  0.00  0.00    +0.000 A 
ENDBRANCH  18  23
ENDBRANCH  15  18
ENDBRANCH   1  15
TORSDOF 4
ENDMDL
MODEL 2
REMARK VINA RESULT:    -7.007      3.238      6.887
REMARK INTER + INTRA:          -8.928
REMARK INTER:                  -8.476
REMARK INTRA:                  -0.452
REMARK UNBOUND:                -0.283
REMARK  Name = 
REMARK  4 active torsions:
REMARK  status: ('A' for Active; 'I' for Inactive)
REMARK    1  A    between atoms: C_5  and  O_6
REMARK    2  A    between atoms: O_6  and  C_7
REMARK    3  A    between atoms: C_7  and  C_8
REMARK    4  A    between atoms: C_13  and  C_14
REMARK                            x       y       z     vdW  Elec       q    Type
REMARK                         _______ _______ _______ _____ _____    ______ ____
ROOT
ATOM      1  C   UNL     1      47.017   7.622  12.131  0.00  0.00    +0.000 A 
ATOM      2  C   UNL     1      46.431   8.893  12.160  0.00  0.00    +0.000 A 
ATOM      3  C   UNL     1      45.099   9.073  11.790  0.00  0.00    +0.000 A 
ATOM      4 CL   UNL     1      44.416  10.653  11.821  0.00  0.00    +0.000 Cl
ATOM      5  C   UNL     1      44.319   7.988  11.384  0.00  0.00    +0.000 A 
ATOM      6  C   UNL     1      44.861   6.697  11.363  0.00  0.00    +0.000 A 
ATOM      7  C   UNL     1      46.197   6.549  11.754  0.00  0.00    +0.000 A 
ENDROOT
BRANCH   6   8
ATOM      8  C   UNL     1      44.016   5.513  10.910  0.00  0.00    +0.000 C 
ATOM      9  C   UNL     1      42.764   5.280  11.768  0.00  0.00    +0.000 C 
ATOM     10  C   UNL     1      43.029   4.503  13.057  0.00  0.00    +0.000 C 
ATOM     11  N   UNL     1      43.784   3.269  12.840  0.00  0.00    +0.000 NA
ATOM     12  C   UNL     1      45.025   3.470  12.094  0.00  0.00    +0.000 C 
ATOM     13  C   UNL     1      44.816   4.208  10.771  0.00  0.00    +0.000 C 
ATOM     14  H   UNL     1      43.195   2.614  12.328  0.00  0.00    +0.000 HD
ENDBRANCH   6   8
BRANCH   1  15
ATOM     15  C   UNL     1      48.475   7.391  12.477  0.00  0.00    +0.000 C 
ATOM     16  C   UNL     1      49.564   7.894  11.528  0.00  0.00    +0.000 C 
ATOM     17  C   UNL     1      49.329   8.597  12.820  0.00  0.00    +0.000 C 
BRANCH  15  18
ATOM     18  O   UNL     1      48.804   6.071  12.975  0.00  0.00    +0.000 OA
BRANCH  18  23
ATOM     19 CL   UNL     1      47.779   4.349  18.377  0.00  0.00    +0.000 Cl
ATOM     20  C   UNL     1      47.994   4.960  16.798  0.00  0.00    +0.000 A 
ATOM     21  C   UNL     1      48.875   5.981  16.522  0.00  0.00    +0.000 A 
ATOM     22  N   UNL     1      49.119   6.434  15.279  0.00  0.00    +0.000 NA
ATOM     23  C   UNL     1      48.456   5.819  14.283  0.00  0.00    +0.000 A 
ATOM     24  N   UNL     1      47.539   4.846  14.440  0.00  0.00    +0.000 NA
ATOM     25  C   UNL     1      47.328   4.443  15.714  0.00  0.00    +0.000 A 
ENDBRANCH  18  23
ENDBRANCH  15  18
ENDBRANCH   1  15
TORSDOF 4
ENDMDL
MODEL 3
REMARK VINA RESULT:    -6.862      3.132      4.061
REMARK INTER + INTRA:          -8.749
REMARK INTER:                  -8.285
REMARK INTRA:                  -0.464
REMARK UNBOUND:                -0.283
REMARK  Name = 
REMARK  4 active torsions:
REMARK  status: ('A' for Active; 'I' for Inactive)
REMARK    1  A    between atoms: C_5  and  O_6
REMARK    2  A    between atoms: O_6  and  C_7
REMARK    3  A    between atoms: C_7  and  C_8
REMARK    4  A    between atoms: C_13  and  C_14
REMARK                            x       y       z     vdW  Elec       q    Type
REMARK                         _______ _______ _______ _____ _____    ______ ____
ROOT
ATOM      1  C   UNL     1      44.531   6.873  12.048  0.00  0.00    +0.000 A 
ATOM      2  C   UNL     1      45.606   7.206  12.881  0.00  0.00    +0.000 A 
ATOM      3  C   UNL     1      46.141   8.493  12.873  0.00  0.00    +0.000 A 
ATOM      4 CL   UNL     1      47.474   8.864  13.898  0.00  0.00    +0.000 Cl
ATOM      5  C   UNL     1      45.616   9.479  12.036  0.00  0.00    +0.000 A 
ATOM      6  C   UNL     1      44.526   9.193  11.204  0.00  0.00    +0.000 A 
ATOM      7  C   UNL     1      44.004   7.895  11.246  0.00  0.00    +0.000 A 
ENDROOT
BRANCH   6   8
ATOM      8  C   UNL     1      43.958  10.263  10.281  0.00  0.00    +0.000 C 
ATOM      9  C   UNL     1      44.708  11.602  10.348  0.00  0.00    +0.000 C 
ATOM     10  C   UNL     1      44.288  12.492  11.518  0.00  0.00    +0.000 C 
ATOM     11  N   UNL     1      42.840  12.667  11.615  0.00  0.00    +0.000 NA
ATOM     12  C   UNL     1      42.100  11.407  11.635  0.00  0.00    +0.000 C 
ATOM     13  C   UNL     1      42.449  10.489  10.463  0.00  0.00    +0.000 C 
ATOM     14  H   UNL     1      42.525  13.220  10.819  0.00  0.00    +0.000 HD
ENDBRANCH   6   8
BRANCH   1  15
ATOM     15  C   UNL     1      43.953   5.472  11.989  0.00  0.00    +0.000 C 
ATOM     16  C   UNL     1      42.935   5.031  13.041  0.00  0.00    +0.000 C 
ATOM     17  C   UNL     1      42.482   5.318  11.651  0.00  0.00    +0.000 C 
BRANCH  15  18
ATOM     18  O   UNL     1      44.901   4.410  11.720  0.00  0.00    +0.000 OA
BRANCH  18  23
ATOM     19 CL   UNL     1      46.321   2.922   6.338  0.00  0.00    +0.000 Cl
ATOM     20  C   UNL     1      45.773   3.379   7.889  0.00  0.00    +0.000 A 
ATOM     21  C   UNL     1      45.211   2.474   8.762  0.00  0.00    +0.000 A 
ATOM     22  N   UNL     1      44.838   2.789  10.016  0.00  0.00    +0.000 NA
ATOM     23  C   UNL     1      45.054   4.061  10.397  0.00  0.00    +0.000 A 
ATOM     24  N   UNL     1      45.550   5.037   9.615  0.00  0.00    +0.000 NA
ATOM     25  C   UNL     1      45.895   4.662   8.362  0.00  0.00    +0.000 A 
ENDBRANCH  18  23
ENDBRANCH  15  18
ENDBRANCH   1  15
TORSDOF 4
ENDMDL
MODEL 4
REMARK VINA RESULT:    -6.715      3.477      7.339
REMARK INTER + INTRA:          -8.568
REMARK INTER:                  -7.999
REMARK INTRA:                  -0.569
REMARK UNBOUND:                -0.283
REMARK  Name = 
REMARK  4 active torsions:
REMARK  status: ('A' for Active; 'I' for Inactive)
REMARK    1  A    between atoms: C_5  and  O_6
REMARK    2  A    between atoms: O_6  and  C_7
REMARK    3  A    between atoms: C_7  and  C_8
REMARK    4  A    between atoms: C_13  and  C_14
REMARK                            x       y       z     vdW  Elec       q    Type
REMARK                         _______ _______ _______ _____ _____    ______ ____
ROOT
ATOM      1  C   UNL     1      47.388   7.778  12.184  0.00  0.00    +0.000 A 
ATOM      2  C   UNL     1      46.736   9.016  12.243  0.00  0.00    +0.000 A 
ATOM      3  C   UNL     1      45.392   9.130  11.895  0.00  0.00    +0.000 A 
ATOM      4 CL   UNL     1      44.626  10.670  11.963  0.00  0.00    +0.000 Cl
ATOM      5  C   UNL     1      44.664   8.012  11.480  0.00  0.00    +0.000 A 
ATOM      6  C   UNL     1      45.274   6.752  11.429  0.00  0.00    +0.000 A 
ATOM      7  C   UNL     1      46.621   6.669  11.800  0.00  0.00    +0.000 A 
ENDROOT
BRANCH   6   8
ATOM      8  C   UNL     1      44.487   5.533  10.967  0.00  0.00    +0.000 C 
ATOM      9  C   UNL     1      43.040   5.496  11.483  0.00  0.00    +0.000 C 
ATOM     10  C   UNL     1      42.901   4.954  12.906  0.00  0.00    +0.000 C 
ATOM     11  N   UNL     1      43.589   3.680  13.106  0.00  0.00    +0.000 NA
ATOM     12  C   UNL     1      44.993   3.705  12.699  0.00  0.00    +0.000 C 
ATOM     13  C   UNL     1      45.192   4.200  11.266  0.00  0.00    +0.000 C 
ATOM     14  H   UNL     1      43.105   2.961  12.570  0.00  0.00    +0.000 HD
ENDBRANCH   6   8
BRANCH   1  15
ATOM     15  C   UNL     1      48.862   7.620  12.505  0.00  0.00    +0.000 C 
ATOM     16  C   UNL     1      49.893   7.708  11.380  0.00  0.00    +0.000 C 
ATOM     17  C   UNL     1      49.762   8.830  12.350  0.00  0.00    +0.000 C 
BRANCH  15  18
ATOM     18  O   UNL     1      49.197   6.547  13.419  0.00  0.00    +0.000 OA
BRANCH  18  23
ATOM     19 CL   UNL     1      48.613   7.146  19.120  0.00  0.00    +0.000 Cl
ATOM     20  C   UNL     1      48.657   7.009  17.419  0.00  0.00    +0.000 A 
ATOM     21  C   UNL     1      48.927   8.086  16.605  0.00  0.00    +0.000 A 
ATOM     22  N   UNL     1      49.040   7.994  15.267  0.00  0.00    +0.000 NA
ATOM     23  C   UNL     1      48.887   6.765  14.742  0.00  0.00    +0.000 A 
ATOM     24  N   UNL     1      48.575   5.654  15.435  0.00  0.00    +0.000 NA
ATOM     25  C   UNL     1      48.462   5.813  16.773  0.00  0.00    +0.000 A 
ENDBRANCH  18  23
ENDBRANCH  15  18
ENDBRANCH   1  15
TORSDOF 4
ENDMDL
MODEL 5
REMARK VINA RESULT:    -6.389      3.448      6.480
REMARK INTER + INTRA:          -8.166
REMARK INTER:                  -7.534
REMARK INTRA:                  -0.632
REMARK UNBOUND:                -0.283
REMARK  Name = 
REMARK  4 active torsions:
REMARK  status: ('A' for Active; 'I' for Inactive)
REMARK    1  A    between atoms: C_5  and  O_6
REMARK    2  A    between atoms: O_6  and  C_7
REMARK    3  A    between atoms: C_7  and  C_8
REMARK    4  A    between atoms: C_13  and  C_14
REMARK                            x       y       z     vdW  Elec       q    Type
REMARK                         _______ _______ _______ _____ _____    ______ ____
ROOT
ATOM      1  C   UNL     1      47.795   6.771  13.166  0.00  0.00    +0.000 A 
ATOM      2  C   UNL     1      48.068   6.198  14.415  0.00  0.00    +0.000 A 
ATOM      3  C   UNL     1      47.377   5.067  14.846  0.00  0.00    +0.000 A 
ATOM      4 CL   UNL     1      47.726   4.399  16.394  0.00  0.00    +0.000 Cl
ATOM      5  C   UNL     1      46.399   4.479  14.042  0.00  0.00    +0.000 A 
ATOM      6  C   UNL     1      46.112   5.007  12.777  0.00  0.00    +0.000 A 
ATOM      7  C   UNL     1      46.834   6.135  12.368  0.00  0.00    +0.000 A 
ENDROOT
BRANCH   6   8
ATOM      8  C   UNL     1      45.037   4.375  11.903  0.00  0.00    +0.000 C 
ATOM      9  C   UNL     1      44.539   5.290  10.773  0.00  0.00    +0.000 C 
ATOM     10  C   UNL     1      43.481   6.302  11.213  0.00  0.00    +0.000 C 
ATOM     11  N   UNL     1      42.378   5.695  11.956  0.00  0.00    +0.000 NA
ATOM     12  C   UNL     1      42.816   4.881  13.089  0.00  0.00    +0.000 C 
ATOM     13  C   UNL     1      43.847   3.821  12.702  0.00  0.00    +0.000 C 
ATOM     14  H   UNL     1      41.841   5.108  11.319  0.00  0.00    +0.000 HD
ENDBRANCH   6   8
BRANCH   1  15
ATOM     15  C   UNL     1      48.487   8.030  12.681  0.00  0.00    +0.000 C 
ATOM     16  C   UNL     1      50.015   8.090  12.657  0.00  0.00    +0.000 C 
ATOM     17  C   UNL     1      49.261   7.965  11.379  0.00  0.00    +0.000 C 
BRANCH  15  18
ATOM     18  O   UNL     1      47.936   9.279  13.167  0.00  0.00    +0.000 OA
BRANCH  18  23
ATOM     19 CL   UNL     1      43.701  12.116  10.482  0.00  0.00    +0.000 Cl
ATOM     20  C   UNL     1      44.975  11.206  11.162  0.00  0.00    +0.000 A 
ATOM     21  C   UNL     1      46.295  11.561  11.001  0.00  0.00    +0.000 A 
ATOM     22  N   UNL     1      47.315  10.906  11.585  0.00  0.00    +0.000 NA
ATOM     23  C   UNL     1      46.980   9.865  12.368  0.00  0.00    +0.000 A 
ATOM     24  N   UNL     1      45.731   9.402  12.559  0.00  0.00    +0.000 NA
ATOM     25  C   UNL     1      44.751  10.094  11.936  0.00  0.00    +0.000 A 
ENDBRANCH  18  23
ENDBRANCH  15  18
ENDBRANCH   1  15
TORSDOF 4
ENDMDL
MODEL 6
REMARK VINA RESULT:    -6.026      4.004      7.914
REMARK INTER + INTRA:          -7.717
REMARK INTER:                  -7.946
REMARK INTRA:                   0.228
REMARK UNBOUND:                -0.283
REMARK  Name = 
REMARK  4 active torsions:
REMARK  status: ('A' for Active; 'I' for Inactive)
REMARK    1  A    between atoms: C_5  and  O_6
REMARK    2  A    between atoms: O_6  and  C_7
REMARK    3  A    between atoms: C_7  and  C_8
REMARK    4  A    between atoms: C_13  and  C_14
REMARK                            x       y       z     vdW  Elec       q    Type
REMARK                         _______ _______ _______ _____ _____    ______ ____
ROOT
ATOM      1  C   UNL     1      47.359   5.010  15.004  0.00  0.00    +0.000 A 
ATOM      2  C   UNL     1      47.945   6.057  14.281  0.00  0.00    +0.000 A 
ATOM      3  C   UNL     1      47.513   6.359  12.991  0.00  0.00    +0.000 A 
ATOM      4 CL   UNL     1      48.267   7.642  12.123  0.00  0.00    +0.000 Cl
ATOM      5  C   UNL     1      46.486   5.627  12.391  0.00  0.00    +0.000 A 
ATOM      6  C   UNL     1      45.859   4.587  13.090  0.00  0.00    +0.000 A 
ATOM      7  C   UNL     1      46.307   4.319  14.389  0.00  0.00    +0.000 A 
ENDROOT
BRANCH   6   8
ATOM      8  C   UNL     1      44.747   3.779  12.435  0.00  0.00    +0.000 C 
ATOM      9  C   UNL     1      44.975   3.508  10.940  0.00  0.00    +0.000 C 
ATOM     10  C   UNL     1      44.569   4.667  10.029  0.00  0.00    +0.000 C 
ATOM     11  N   UNL     1      43.221   5.166  10.298  0.00  0.00    +0.000 NA
ATOM     12  C   UNL     1      42.997   5.510  11.701  0.00  0.00    +0.000 C 
ATOM     13  C   UNL     1      43.347   4.372  12.661  0.00  0.00    +0.000 C 
ATOM     14  H   UNL     1      42.549   4.450  10.024  0.00  0.00    +0.000 HD
ENDBRANCH   6   8
BRANCH   1  15
ATOM     15  C   UNL     1      47.834   4.616  16.390  0.00  0.00    +0.000 C 
ATOM     16  C   UNL     1      46.989   3.659  17.232  0.00  0.00    +0.000 C 
ATOM     17  C   UNL     1      48.257   3.177  16.618  0.00  0.00    +0.000 C 
BRANCH  15  18
ATOM     18  O   UNL     1      48.354   5.692  17.208  0.00  0.00    +0.000 OA
BRANCH  18  23
ATOM     19 CL   UNL     1      53.769   4.430  18.718  0.00  0.00    +0.000 Cl
ATOM     20  C   UNL     1      52.193   4.934  18.298  0.00  0.00    +0.000 A 
ATOM     21  C   UNL     1      51.888   5.416  17.046  0.00  0.00    +0.000 A 
ATOM     22  N   UNL     1      50.642   5.752  16.664  0.00  0.00    +0.000 NA
ATOM     23  C   UNL     1      49.674   5.578  17.582  0.00  0.00    +0.000 A 
ATOM     24  N   UNL     1      49.863   5.160  18.847  0.00  0.00    +0.000 NA
ATOM     25  C   UNL     1      51.139   4.851  19.174  0.00  0.00    +0.000 A 
ENDBRANCH  18  23
ENDBRANCH  15  18
ENDBRANCH   1  15
TORSDOF 4
ENDMDL
MODEL 7
REMARK VINA RESULT:    -5.808      3.519      6.572
REMARK INTER + INTRA:          -7.449
REMARK INTER:                  -6.863
REMARK INTRA:                  -0.586
REMARK UNBOUND:                -0.283
REMARK  Name = 
REMARK  4 active torsions:
REMARK  status: ('A' for Active; 'I' for Inactive)
REMARK    1  A    between atoms: C_5  and  O_6
REMARK    2  A    between atoms: O_6  and  C_7
REMARK    3  A    between atoms: C_7  and  C_8
REMARK    4  A    between atoms: C_13  and  C_14
REMARK                            x       y       z     vdW  Elec       q    Type
REMARK                         _______ _______ _______ _____ _____    ______ ____
ROOT
ATOM      1  C   UNL     1      47.019   7.463  11.975  0.00  0.00    +0.000 A 
ATOM      2  C   UNL     1      46.283   6.356  11.535  0.00  0.00    +0.000 A 
ATOM      3  C   UNL     1      44.937   6.484  11.196  0.00  0.00    +0.000 A 
ATOM      4 CL   UNL     1      44.058   5.099  10.675  0.00  0.00    +0.000 Cl
ATOM      5  C   UNL     1      44.293   7.720  11.286  0.00  0.00    +0.000 A 
ATOM      6  C   UNL     1      45.000   8.857  11.700  0.00  0.00    +0.000 A 
ATOM      7  C   UNL     1      46.353   8.696  12.019  0.00  0.00    +0.000 A 
ENDROOT
BRANCH   6   8
ATOM      8  C   UNL     1      44.298  10.203  11.810  0.00  0.00    +0.000 C 
ATOM      9  C   UNL     1      43.091  10.353  10.871  0.00  0.00    +0.000 C 
ATOM     10  C   UNL     1      43.462  10.746   9.440  0.00  0.00    +0.000 C 
ATOM     11  N   UNL     1      44.356  11.901   9.375  0.00  0.00    +0.000 NA
ATOM     12  C   UNL     1      45.556  11.756  10.197  0.00  0.00    +0.000 C 
ATOM     13  C   UNL     1      45.247  11.402  11.652  0.00  0.00    +0.000 C 
ATOM     14  H   UNL     1      43.845  12.726   9.683  0.00  0.00    +0.000 HD
ENDBRANCH   6   8
BRANCH   1  15
ATOM     15  C   UNL     1      48.470   7.356  12.402  0.00  0.00    +0.000 C 
ATOM     16  C   UNL     1      49.567   7.905  11.490  0.00  0.00    +0.000 C 
ATOM     17  C   UNL     1      49.213   8.635  12.739  0.00  0.00    +0.000 C 
BRANCH  15  18
ATOM     18  O   UNL     1      48.868   6.084  12.969  0.00  0.00    +0.000 OA
BRANCH  18  23
ATOM     19 CL   UNL     1      47.842   4.546  18.426  0.00  0.00    +0.000 Cl
ATOM     20  C   UNL     1      48.060   5.105  16.828  0.00  0.00    +0.000 A 
ATOM     21  C   UNL     1      48.959   6.100  16.517  0.00  0.00    +0.000 A 
ATOM     22  N   UNL     1      49.205   6.509  15.259  0.00  0.00    +0.000 NA
ATOM     23  C   UNL     1      48.523   5.878  14.286  0.00  0.00    +0.000 A 
ATOM     24  N   UNL     1      47.588   4.929  14.477  0.00  0.00    +0.000 NA
ATOM     25  C   UNL     1      47.377   4.569  15.764  0.00  0.00    +0.000 A 
ENDBRANCH  18  23
ENDBRANCH  15  18
ENDBRANCH   1  15
TORSDOF 4
ENDMDL
MODEL 8
REMARK VINA RESULT:    -5.783      2.568      3.323
REMARK INTER + INTRA:          -7.417
REMARK INTER:                  -7.585
REMARK INTRA:                   0.167
REMARK UNBOUND:                -0.283
REMARK  Name = 
REMARK  4 active torsions:
REMARK  status: ('A' for Active; 'I' for Inactive)
REMARK    1  A    between atoms: C_5  and  O_6
REMARK    2  A    between atoms: O_6  and  C_7
REMARK    3  A    between atoms: C_7  and  C_8
REMARK    4  A    between atoms: C_13  and  C_14
REMARK                            x       y       z     vdW  Elec       q    Type
REMARK                         _______ _______ _______ _____ _____    ______ ____
ROOT
ATOM      1  C   UNL     1      45.033   6.469  12.075  0.00  0.00    +0.000 A 
ATOM      2  C   UNL     1      46.406   6.287  12.281  0.00  0.00    +0.000 A 
ATOM      3  C   UNL     1      47.257   7.382  12.422  0.00  0.00    +0.000 A 
ATOM      4 CL   UNL     1      48.942   7.122  12.657  0.00  0.00    +0.000 Cl
ATOM      5  C   UNL     1      46.758   8.685  12.363  0.00  0.00    +0.000 A 
ATOM      6  C   UNL     1      45.388   8.909  12.181  0.00  0.00    +0.000 A 
ATOM      7  C   UNL     1      44.559   7.788  12.057  0.00  0.00    +0.000 A 
ENDROOT
BRANCH   6   8
ATOM      8  C   UNL     1      44.842  10.329  12.105  0.00  0.00    +0.000 C 
ATOM      9  C   UNL     1      43.602  10.470  11.209  0.00  0.00    +0.000 C 
ATOM     10  C   UNL     1      43.921  10.591   9.719  0.00  0.00    +0.000 C 
ATOM     11  N   UNL     1      44.928  11.610   9.428  0.00  0.00    +0.000 NA
ATOM     12  C   UNL     1      46.155  11.456  10.207  0.00  0.00    +0.000 C 
ATOM     13  C   UNL     1      45.902  11.371  11.712  0.00  0.00    +0.000 C 
ATOM     14  H   UNL     1      44.528  12.527   9.622  0.00  0.00    +0.000 HD
ENDBRANCH   6   8
BRANCH   1  15
ATOM     15  C   UNL     1      44.082   5.306  11.865  0.00  0.00    +0.000 C 
ATOM     16  C   UNL     1      42.856   5.163  12.767  0.00  0.00    +0.000 C 
ATOM     17  C   UNL     1      42.686   5.607  11.356  0.00  0.00    +0.000 C 
BRANCH  15  18
ATOM     18  O   UNL     1      44.703   4.017  11.641  0.00  0.00    +0.000 OA
BRANCH  18  23
ATOM     19 CL   UNL     1      46.072   2.994   6.139  0.00  0.00    +0.000 Cl
ATOM     20  C   UNL     1      45.800   3.302   7.795  0.00  0.00    +0.000 A 
ATOM     21  C   UNL     1      45.790   4.579   8.310  0.00  0.00    +0.000 A 
ATOM     22  N   UNL     1      45.506   4.858   9.596  0.00  0.00    +0.000 NA
ATOM     23  C   UNL     1      45.210   3.805  10.379  0.00  0.00    +0.000 A 
ATOM     24  N   UNL     1      45.235   2.515   9.996  0.00  0.00    +0.000 NA
ATOM     25  C   UNL     1      45.540   2.298   8.696  0.00  0.00    +0.000 A 
ENDBRANCH  18  23
ENDBRANCH  15  18
ENDBRANCH   1  15
TORSDOF 4
ENDMDL
MODEL 9
REMARK VINA RESULT:    -5.727      3.840      6.090
REMARK INTER + INTRA:          -7.349
REMARK INTER:                  -6.763
REMARK INTRA:                  -0.586
REMARK UNBOUND:                -0.283
REMARK  Name = 
REMARK  4 active torsions:
REMARK  status: ('A' for Active; 'I' for Inactive)
REMARK    1  A    between atoms: C_5  and  O_6
REMARK    2  A    between atoms: O_6  and  C_7
REMARK    3  A    between atoms: C_7  and  C_8
REMARK    4  A    between atoms: C_13  and  C_14
REMARK                            x       y       z     vdW  Elec       q    Type
REMARK                         _______ _______ _______ _____ _____    ______ ____
ROOT
ATOM      1  C   UNL     1      48.080   9.254  12.218  0.00  0.00    +0.000 A 
ATOM      2  C   UNL     1      49.082   9.896  11.481  0.00  0.00    +0.000 A 
ATOM      3  C   UNL     1      48.795  11.034  10.730  0.00  0.00    +0.000 A 
ATOM      4 CL   UNL     1      50.048  11.789   9.822  0.00  0.00    +0.000 Cl
ATOM      5  C   UNL     1      47.503  11.561  10.697  0.00  0.00    +0.000 A 
ATOM      6  C   UNL     1      46.476  10.961  11.438  0.00  0.00    +0.000 A 
ATOM      7  C   UNL     1      46.801   9.828  12.193  0.00  0.00    +0.000 A 
ENDROOT
BRANCH   6   8
ATOM      8  C   UNL     1      45.063  11.526  11.395  0.00  0.00    +0.000 C 
ATOM      9  C   UNL     1      43.978  10.512  11.789  0.00  0.00    +0.000 C 
ATOM     10  C   UNL     1      43.559   9.576  10.655  0.00  0.00    +0.000 C 
ATOM     11  N   UNL     1      43.228  10.282   9.419  0.00  0.00    +0.000 NA
ATOM     12  C   UNL     1      44.277  11.197   8.972  0.00  0.00    +0.000 C 
ATOM     13  C   UNL     1      44.709  12.188  10.053  0.00  0.00    +0.000 C 
ATOM     14  H   UNL     1      42.371  10.813   9.567  0.00  0.00    +0.000 HD
ENDBRANCH   6   8
BRANCH   1  15
ATOM     15  C   UNL     1      48.338   7.985  13.007  0.00  0.00    +0.000 C 
ATOM     16  C   UNL     1      49.539   7.914  13.951  0.00  0.00    +0.000 C 
ATOM     17  C   UNL     1      48.165   8.030  14.513  0.00  0.00    +0.000 C 
BRANCH  15  18
ATOM     18  O   UNL     1      48.195   6.745  12.271  0.00  0.00    +0.000 OA
BRANCH  18  23
ATOM     19 CL   UNL     1      43.242   3.837  11.820  0.00  0.00    +0.000 Cl
ATOM     20  C   UNL     1      44.642   4.791  12.027  0.00  0.00    +0.000 A 
ATOM     21  C   UNL     1      45.437   4.691  13.147  0.00  0.00    +0.000 A 
ATOM     22  N   UNL     1      46.585   5.376  13.304  0.00  0.00    +0.000 NA
ATOM     23  C   UNL     1      46.941   6.178  12.285  0.00  0.00    +0.000 A 
ATOM     24  N   UNL     1      46.219   6.389  11.168  0.00  0.00    +0.000 NA
ATOM     25  C   UNL     1      45.070   5.683  11.074  0.00  0.00    +0.000 A 
ENDBRANCH  18  23
ENDBRANCH  15  18
ENDBRANCH   1  15
TORSDOF 4
ENDMDL
