MODEL 1
REMARK VINA RESULT:    -7.461      0.000      0.000
REMARK INTER + INTRA:          -9.989
REMARK INTER:                  -9.424
REMARK INTRA:                  -0.565
REMARK UNBOUND:                -0.565
REMARK  Name = 
REMARK  5 active torsions:
REMARK  status: ('A' for Active; 'I' for Inactive)
REMARK    1  A    between atoms: C_2  and  C_13
REMARK    2  A    between atoms: N_3  and  CA_4
REMARK    3  A    between atoms: CA_4  and  C_5
REMARK    4  A    between atoms: CA_4  and  C_7
REMARK    5  A    between atoms: C_5  and  O_6
REMARK                            x       y       z     vdW  Elec       q    Type
REMARK                         _______ _______ _______ _____ _____    ______ ____
ROOT
ATOM      1  O   UNL     1      46.526   3.117  13.509  0.00  0.00    +0.000 OA
ATOM      2  C   UNL     1      46.369   4.335  13.508  0.00  0.00    +0.000 C 
ATOM      3  N   UNL     1      45.295   4.931  12.909  0.00  0.00    +0.000 N 
ATOM      4  H   UNL     1      45.228   5.945  12.877  0.00  0.00    +0.000 HD
ENDROOT
BRANCH   2   5
ATOM      5  C   UNL     1      47.315   5.229  14.190  0.00  0.00    +0.000 A 
ATOM      6  C   UNL     1      47.950   6.237  13.478  0.00  0.00    +0.000 A 
ATOM      7  S   UNL     1      48.998   7.189  14.428  0.00  0.00    +0.000 S 
ATOM      8  C   UNL     1      48.606   6.318  15.837  0.00  0.00    +0.000 A 
ATOM      9  N   UNL     1      49.133   6.660  17.042  0.00  0.00    +0.000 NA
ATOM     10  C   UNL     1      48.707   5.951  18.033  0.00  0.00    +0.000 A 
ATOM     11  N   UNL     1      47.812   4.919  17.924  0.00  0.00    +0.000 N 
ATOM     12  C   UNL     1      47.339   4.473  16.716  0.00  0.00    +0.000 A 
ATOM     13  O   UNL     1      46.682   3.440  16.640  0.00  0.00    +0.000 OA
ATOM     14  C   UNL     1      47.724   5.285  15.577  0.00  0.00    +0.000 A 
ATOM     15  H   UNL     1      47.556   4.372  18.734  0.00  0.00    +0.000 HD
ENDBRANCH   2   5
BRANCH   3  16
ATOM     16  CA  UNL     1      44.305   4.198  12.136  0.00  0.00    +0.000 C 
BRANCH  16  17
ATOM     17  C   UNL     1      44.707   4.032  10.681  0.00  0.00    +0.000 A 
ATOM     18  C   UNL     1      44.554   2.842   9.957  0.00  0.00    +0.000 A 
ATOM     19  C   UNL     1      45.016   2.749   8.649  0.00  0.00    +0.000 A 
ATOM     20  C   UNL     1      45.621   3.859   8.089  0.00  0.00    +0.000 A 
ATOM     21  N   UNL     1      45.787   5.026   8.743  0.00  0.00    +0.000 NA
ATOM     22  C   UNL     1      45.323   5.086  10.014  0.00  0.00    +0.000 A 
ENDBRANCH  16  17
BRANCH  16  23
ATOM     23  C   UNL     1      42.930   4.899  12.251  0.00  0.00    +0.000 C 
BRANCH  23  24
ATOM     24  O   UNL     1      42.829   5.733  13.410  0.00  0.00    +0.000 OA
ATOM     25  H   UNL     1      43.507   6.429  13.342  0.00  0.00    +0.000 HD
ENDBRANCH  23  24
ENDBRANCH  16  23
ENDBRANCH   3  16
TORSDOF 5
ENDMDL
MODEL 2
REMARK VINA RESULT:    -7.161      1.658      2.574
REMARK INTER + INTRA:          -9.610
REMARK INTER:                  -8.902
REMARK INTRA:                  -0.707
REMARK UNBOUND:                -0.565
REMARK  Name = 
REMARK  5 active torsions:
REMARK  status: ('A' for Active; 'I' for Inactive)
REMARK    1  A    between atoms: C_2  and  C_13
REMARK    2  A    between atoms: N_3  and  CA_4
REMARK    3  A    between atoms: CA_4  and  C_5
REMARK    4  A    between atoms: CA_4  and  C_7
REMARK    5  A    between atoms: C_5  and  O_6
REMARK                            x       y       z     vdW  Elec       q    Type
REMARK                         _______ _______ _______ _____ _____    ______ ____
ROOT
ATOM      1  O   UNL     1      46.274   2.936  13.296  0.00  0.00    +0.000 OA
ATOM      2  C   UNL     1      46.129   4.151  13.414  0.00  0.00    +0.000 C 
ATOM      3  N   UNL     1      45.082   4.819  12.843  0.00  0.00    +0.000 N 
ATOM      4  H   UNL     1      45.026   5.831  12.913  0.00  0.00    +0.000 HD
ENDROOT
BRANCH   2   5
ATOM      5  C   UNL     1      47.058   4.958  14.215  0.00  0.00    +0.000 A 
ATOM      6  C   UNL     1      47.344   4.589  15.523  0.00  0.00    +0.000 A 
ATOM      7  S   UNL     1      48.454   5.625  16.299  0.00  0.00    +0.000 S 
ATOM      8  C   UNL     1      48.631   6.579  14.900  0.00  0.00    +0.000 A 
ATOM      9  N   UNL     1      49.492   7.629  14.871  0.00  0.00    +0.000 NA
ATOM     10  C   UNL     1      49.568   8.229  13.731  0.00  0.00    +0.000 A 
ATOM     11  N   UNL     1      48.844   7.882  12.620  0.00  0.00    +0.000 N 
ATOM     12  C   UNL     1      47.886   6.900  12.636  0.00  0.00    +0.000 A 
ATOM     13  O   UNL     1      47.137   6.736  11.679  0.00  0.00    +0.000 OA
ATOM     14  C   UNL     1      47.818   6.140  13.871  0.00  0.00    +0.000 A 
ATOM     15  H   UNL     1      48.914   8.425  11.771  0.00  0.00    +0.000 HD
ENDBRANCH   2   5
BRANCH   3  16
ATOM     16  CA  UNL     1      44.112   4.180  11.966  0.00  0.00    +0.000 C 
BRANCH  16  17
ATOM     17  C   UNL     1      44.640   3.987  10.556  0.00  0.00    +0.000 A 
ATOM     18  C   UNL     1      44.644   2.758   9.884  0.00  0.00    +0.000 A 
ATOM     19  C   UNL     1      45.214   2.649   8.619  0.00  0.00    +0.000 A 
ATOM     20  C   UNL     1      45.767   3.782   8.052  0.00  0.00    +0.000 A 
ATOM     21  N   UNL     1      45.782   4.987   8.657  0.00  0.00    +0.000 NA
ATOM     22  C   UNL     1      45.217   5.061   9.885  0.00  0.00    +0.000 A 
ENDBRANCH  16  17
BRANCH  16  23
ATOM     23  C   UNL     1      42.800   5.001  11.956  0.00  0.00    +0.000 C 
BRANCH  23  24
ATOM     24  O   UNL     1      42.574   5.700  13.185  0.00  0.00    +0.000 OA
ATOM     25  H   UNL     1      41.645   5.988  13.204  0.00  0.00    +0.000 HD
ENDBRANCH  23  24
ENDBRANCH  16  23
ENDBRANCH   3  16
TORSDOF 5
ENDMDL
MODEL 3
REMARK VINA RESULT:    -6.994      2.505      6.708
REMARK INTER + INTRA:          -9.399
REMARK INTER:                  -8.569
REMARK INTRA:                  -0.830
REMARK UNBOUND:                -0.565
REMARK  Name = 
REMARK  5 active torsions:
REMARK  status: ('A' for Active; 'I' for Inactive)
REMARK    1  A    between atoms: C_2  and  C_13
REMARK    2  A    between atoms: N_3  and  CA_4
REMARK    3  A    between atoms: CA_4  and  C_5
REMARK    4  A    between atoms: CA_4  and  C_7
REMARK    5  A    between atoms: C_5  and  O_6
REMARK                            x       y       z     vdW  Elec       q    Type
REMARK                         _______ _______ _______ _____ _____    ______ ____
ROOT
ATOM      1  O   UNL     1      49.538   6.564  14.984  0.00  0.00    +0.000 OA
ATOM      2  C   UNL     1      48.400   6.118  15.113  0.00  0.00    +0.000 C 
ATOM      3  N   UNL     1      47.941   5.625  16.302  0.00  0.00    +0.000 N 
ATOM      4  H   UNL     1      47.014   5.210  16.356  0.00  0.00    +0.000 HD
ENDROOT
BRANCH   2   5
ATOM      5  C   UNL     1      47.445   6.126  13.997  0.00  0.00    +0.000 A 
ATOM      6  C   UNL     1      47.150   7.317  13.347  0.00  0.00    +0.000 A 
ATOM      7  S   UNL     1      46.038   7.141  12.067  0.00  0.00    +0.000 S 
ATOM      8  C   UNL     1      45.944   5.457  12.303  0.00  0.00    +0.000 A 
ATOM      9  N   UNL     1      45.185   4.676  11.491  0.00  0.00    +0.000 NA
ATOM     10  C   UNL     1      45.250   3.413  11.749  0.00  0.00    +0.000 A 
ATOM     11  N   UNL     1      45.995   2.863  12.758  0.00  0.00    +0.000 N 
ATOM     12  C   UNL     1      46.690   3.621  13.666  0.00  0.00    +0.000 A 
ATOM     13  O   UNL     1      47.198   3.108  14.657  0.00  0.00    +0.000 OA
ATOM     14  C   UNL     1      46.715   5.043  13.374  0.00  0.00    +0.000 A 
ATOM     15  H   UNL     1      45.964   1.869  12.937  0.00  0.00    +0.000 HD
ENDBRANCH   2   5
BRANCH   3  16
ATOM     16  CA  UNL     1      48.778   5.485  17.484  0.00  0.00    +0.000 C 
BRANCH  16  17
ATOM     17  C   UNL     1      49.685   4.269  17.414  0.00  0.00    +0.000 A 
ATOM     18  C   UNL     1      49.230   2.966  17.172  0.00  0.00    +0.000 A 
ATOM     19  C   UNL     1      50.116   1.894  17.197  0.00  0.00    +0.000 A 
ATOM     20  C   UNL     1      51.448   2.155  17.462  0.00  0.00    +0.000 A 
ATOM     21  N   UNL     1      51.934   3.391  17.696  0.00  0.00    +0.000 NA
ATOM     22  C   UNL     1      51.047   4.413  17.661  0.00  0.00    +0.000 A 
ENDBRANCH  16  17
BRANCH  16  23
ATOM     23  C   UNL     1      47.888   5.438  18.749  0.00  0.00    +0.000 C 
BRANCH  23  24
ATOM     24  O   UNL     1      46.500   5.268  18.444  0.00  0.00    +0.000 OA
ATOM     25  H   UNL     1      46.302   5.778  17.639  0.00  0.00    +0.000 HD
ENDBRANCH  23  24
ENDBRANCH  16  23
ENDBRANCH   3  16
TORSDOF 5
ENDMDL
MODEL 4
REMARK VINA RESULT:    -6.781      2.461      6.728
REMARK INTER + INTRA:          -9.130
REMARK INTER:                  -8.406
REMARK INTRA:                  -0.724
REMARK UNBOUND:                -0.565
REMARK  Name = 
REMARK  5 active torsions:
REMARK  status: ('A' for Active; 'I' for Inactive)
REMARK    1  A    between atoms: C_2  and  C_13
REMARK    2  A    between atoms: N_3  and  CA_4
REMARK    3  A    between atoms: CA_4  and  C_5
REMARK    4  A    between atoms: CA_4  and  C_7
REMARK    5  A    between atoms: C_5  and  O_6
REMARK                            x       y       z     vdW  Elec       q    Type
REMARK                         _______ _______ _______ _____ _____    ______ ____
ROOT
ATOM      1  O   UNL     1      48.848   6.148  12.920  0.00  0.00    +0.000 OA
ATOM      2  C   UNL     1      47.770   6.259  13.500  0.00  0.00    +0.000 C 
ATOM      3  N   UNL     1      47.688   6.526  14.838  0.00  0.00    +0.000 N 
ATOM      4  H   UNL     1      46.780   6.553  15.296  0.00  0.00    +0.000 HD
ENDROOT
BRANCH   2   5
ATOM      5  C   UNL     1      46.497   6.150  12.776  0.00  0.00    +0.000 A 
ATOM      6  C   UNL     1      45.938   7.276  12.187  0.00  0.00    +0.000 A 
ATOM      7  S   UNL     1      44.471   6.967  11.374  0.00  0.00    +0.000 S 
ATOM      8  C   UNL     1      44.552   5.306  11.740  0.00  0.00    +0.000 A 
ATOM      9  N   UNL     1      43.607   4.441  11.288  0.00  0.00    +0.000 NA
ATOM     10  C   UNL     1      43.822   3.205  11.592  0.00  0.00    +0.000 A 
ATOM     11  N   UNL     1      44.891   2.759  12.323  0.00  0.00    +0.000 N 
ATOM     12  C   UNL     1      45.809   3.607  12.889  0.00  0.00    +0.000 A 
ATOM     13  O   UNL     1      46.647   3.190  13.681  0.00  0.00    +0.000 OA
ATOM     14  C   UNL     1      45.659   5.001  12.512  0.00  0.00    +0.000 A 
ATOM     15  H   UNL     1      44.975   1.782  12.568  0.00  0.00    +0.000 HD
ENDBRANCH   2   5
BRANCH   3  16
ATOM     16  CA  UNL     1      48.850   6.597  15.710  0.00  0.00    +0.000 C 
BRANCH  16  17
ATOM     17  C   UNL     1      48.912   5.442  16.694  0.00  0.00    +0.000 A 
ATOM     18  C   UNL     1      50.062   5.085  17.410  0.00  0.00    +0.000 A 
ATOM     19  C   UNL     1      50.059   3.967  18.237  0.00  0.00    +0.000 A 
ATOM     20  C   UNL     1      48.893   3.229  18.332  0.00  0.00    +0.000 A 
ATOM     21  N   UNL     1      47.761   3.535  17.667  0.00  0.00    +0.000 NA
ATOM     22  C   UNL     1      47.795   4.631  16.873  0.00  0.00    +0.000 A 
ENDBRANCH  16  17
BRANCH  16  23
ATOM     23  C   UNL     1      48.861   7.955  16.453  0.00  0.00    +0.000 C 
BRANCH  23  24
ATOM     24  O   UNL     1      47.711   8.755  16.160  0.00  0.00    +0.000 OA
ATOM     25  H   UNL     1      47.800   9.093  15.251  0.00  0.00    +0.000 HD
ENDBRANCH  23  24
ENDBRANCH  16  23
ENDBRANCH   3  16
TORSDOF 5
ENDMDL
MODEL 5
REMARK VINA RESULT:    -6.568      2.573      7.253
REMARK INTER + INTRA:          -8.861
REMARK INTER:                  -8.354
REMARK INTRA:                  -0.507
REMARK UNBOUND:                -0.565
REMARK  Name = 
REMARK  5 active torsions:
REMARK  status: ('A' for Active; 'I' for Inactive)
REMARK    1  A    between atoms: C_2  and  C_13
REMARK    2  A    between atoms: N_3  and  CA_4
REMARK    3  A    between atoms: CA_4  and  C_5
REMARK    4  A    between atoms: CA_4  and  C_7
REMARK    5  A    between atoms: C_5  and  O_6
REMARK                            x       y       z     vdW  Elec       q    Type
REMARK                         _______ _______ _______ _____ _____    ______ ____
ROOT
ATOM      1  O   UNL     1      47.122   3.158  14.097  0.00  0.00    +0.000 OA
ATOM      2  C   UNL     1      46.926   4.304  14.495  0.00  0.00    +0.000 C 
ATOM      3  N   UNL     1      47.226   4.694  15.770  0.00  0.00    +0.000 N 
ATOM      4  H   UNL     1      46.996   5.634  16.082  0.00  0.00    +0.000 HD
ENDROOT
BRANCH   2   5
ATOM      5  C   UNL     1      46.388   5.341  13.605  0.00  0.00    +0.000 A 
ATOM      6  C   UNL     1      47.158   6.454  13.295  0.00  0.00    +0.000 A 
ATOM      7  S   UNL     1      46.387   7.546  12.237  0.00  0.00    +0.000 S 
ATOM      8  C   UNL     1      45.013   6.549  12.115  0.00  0.00    +0.000 A 
ATOM      9  N   UNL     1      43.972   6.884  11.309  0.00  0.00    +0.000 NA
ATOM     10  C   UNL     1      43.022   6.011  11.269  0.00  0.00    +0.000 A 
ATOM     11  N   UNL     1      43.013   4.839  11.979  0.00  0.00    +0.000 N 
ATOM     12  C   UNL     1      43.990   4.512  12.884  0.00  0.00    +0.000 A 
ATOM     13  O   UNL     1      43.862   3.546  13.628  0.00  0.00    +0.000 OA
ATOM     14  C   UNL     1      45.122   5.421  12.909  0.00  0.00    +0.000 A 
ATOM     15  H   UNL     1      42.215   4.221  11.940  0.00  0.00    +0.000 HD
ENDBRANCH   2   5
BRANCH   3  16
ATOM     16  CA  UNL     1      47.702   3.776  16.793  0.00  0.00    +0.000 C 
BRANCH  16  17
ATOM     17  C   UNL     1      47.782   4.423  18.165  0.00  0.00    +0.000 A 
ATOM     18  C   UNL     1      47.000   5.515  18.561  0.00  0.00    +0.000 A 
ATOM     19  C   UNL     1      47.185   6.098  19.811  0.00  0.00    +0.000 A 
ATOM     20  C   UNL     1      48.154   5.566  20.642  0.00  0.00    +0.000 A 
ATOM     21  N   UNL     1      48.927   4.514  20.307  0.00  0.00    +0.000 NA
ATOM     22  C   UNL     1      48.720   3.966  19.086  0.00  0.00    +0.000 A 
ENDBRANCH  16  17
BRANCH  16  23
ATOM     23  C   UNL     1      49.075   3.197  16.375  0.00  0.00    +0.000 C 
BRANCH  23  24
ATOM     24  O   UNL     1      48.994   1.833  15.947  0.00  0.00    +0.000 OA
ATOM     25  H   UNL     1      49.727   1.665  15.329  0.00  0.00    +0.000 HD
ENDBRANCH  23  24
ENDBRANCH  16  23
ENDBRANCH   3  16
TORSDOF 5
ENDMDL
MODEL 6
REMARK VINA RESULT:    -6.143      1.884      2.247
REMARK INTER + INTRA:          -8.325
REMARK INTER:                  -8.197
REMARK INTRA:                  -0.128
REMARK UNBOUND:                -0.565
REMARK  Name = 
REMARK  5 active torsions:
REMARK  status: ('A' for Active; 'I' for Inactive)
REMARK    1  A    between atoms: C_2  and  C_13
REMARK    2  A    between atoms: N_3  and  CA_4
REMARK    3  A    between atoms: CA_4  and  C_5
REMARK    4  A    between atoms: CA_4  and  C_7
REMARK    5  A    between atoms: C_5  and  O_6
REMARK                            x       y       z     vdW  Elec       q    Type
REMARK                         _______ _______ _______ _____ _____    ______ ____
ROOT
ATOM      1  O   UNL     1      47.215   6.663  11.895  0.00  0.00    +0.000 OA
ATOM      2  C   UNL     1      46.750   6.433  13.008  0.00  0.00    +0.000 C 
ATOM      3  N   UNL     1      45.422   6.176  13.204  0.00  0.00    +0.000 N 
ATOM      4  H   UNL     1      45.062   6.048  14.147  0.00  0.00    +0.000 HD
ENDROOT
BRANCH   2   5
ATOM      5  C   UNL     1      47.607   6.381  14.200  0.00  0.00    +0.000 A 
ATOM      6  C   UNL     1      48.344   7.498  14.571  0.00  0.00    +0.000 A 
ATOM      7  S   UNL     1      49.269   7.268  15.985  0.00  0.00    +0.000 S 
ATOM      8  C   UNL     1      48.682   5.682  16.181  0.00  0.00    +0.000 A 
ATOM      9  N   UNL     1      49.049   4.925  17.248  0.00  0.00    +0.000 NA
ATOM     10  C   UNL     1      48.485   3.765  17.301  0.00  0.00    +0.000 A 
ATOM     11  N   UNL     1      47.600   3.287  16.370  0.00  0.00    +0.000 N 
ATOM     12  C   UNL     1      47.286   3.973  15.224  0.00  0.00    +0.000 A 
ATOM     13  O   UNL     1      46.632   3.443  14.333  0.00  0.00    +0.000 OA
ATOM     14  C   UNL     1      47.829   5.317  15.155  0.00  0.00    +0.000 A 
ATOM     15  H   UNL     1      47.232   2.349  16.445  0.00  0.00    +0.000 HD
ENDBRANCH   2   5
BRANCH   3  16
ATOM     16  CA  UNL     1      44.430   6.254  12.143  0.00  0.00    +0.000 C 
BRANCH  16  17
ATOM     17  C   UNL     1      44.474   5.053  11.215  0.00  0.00    +0.000 A 
ATOM     18  C   UNL     1      45.122   5.048   9.973  0.00  0.00    +0.000 A 
ATOM     19  C   UNL     1      45.054   3.931   9.147  0.00  0.00    +0.000 A 
ATOM     20  C   UNL     1      44.337   2.835   9.590  0.00  0.00    +0.000 A 
ATOM     21  N   UNL     1      43.702   2.790  10.778  0.00  0.00    +0.000 NA
ATOM     22  C   UNL     1      43.790   3.892  11.560  0.00  0.00    +0.000 A 
ENDBRANCH  16  17
BRANCH  16  23
ATOM     23  C   UNL     1      44.616   7.571  11.352  0.00  0.00    +0.000 C 
BRANCH  23  24
ATOM     24  O   UNL     1      43.372   8.175  10.981  0.00  0.00    +0.000 OA
ATOM     25  H   UNL     1      42.667   7.769  11.516  0.00  0.00    +0.000 HD
ENDBRANCH  23  24
ENDBRANCH  16  23
ENDBRANCH   3  16
TORSDOF 5
ENDMDL
MODEL 7
REMARK VINA RESULT:    -6.116      3.059      3.539
REMARK INTER + INTRA:          -8.291
REMARK INTER:                  -7.698
REMARK INTRA:                  -0.592
REMARK UNBOUND:                -0.565
REMARK  Name = 
REMARK  5 active torsions:
REMARK  status: ('A' for Active; 'I' for Inactive)
REMARK    1  A    between atoms: C_2  and  C_13
REMARK    2  A    between atoms: N_3  and  CA_4
REMARK    3  A    between atoms: CA_4  and  C_5
REMARK    4  A    between atoms: CA_4  and  C_7
REMARK    5  A    between atoms: C_5  and  O_6
REMARK                            x       y       z     vdW  Elec       q    Type
REMARK                         _______ _______ _______ _____ _____    ______ ____
ROOT
ATOM      1  O   UNL     1      44.775   7.278  13.138  0.00  0.00    +0.000 OA
ATOM      2  C   UNL     1      45.642   7.272  12.268  0.00  0.00    +0.000 C 
ATOM      3  N   UNL     1      45.642   6.365  11.246  0.00  0.00    +0.000 N 
ATOM      4  H   UNL     1      46.407   6.353  10.576  0.00  0.00    +0.000 HD
ENDROOT
BRANCH   2   5
ATOM      5  C   UNL     1      46.716   8.274  12.251  0.00  0.00    +0.000 A 
ATOM      6  C   UNL     1      46.427   9.593  11.931  0.00  0.00    +0.000 A 
ATOM      7  S   UNL     1      47.786  10.622  11.977  0.00  0.00    +0.000 S 
ATOM      8  C   UNL     1      48.804   9.351  12.473  0.00  0.00    +0.000 A 
ATOM      9  N   UNL     1      50.117   9.569  12.744  0.00  0.00    +0.000 NA
ATOM     10  C   UNL     1      50.758   8.530  13.164  0.00  0.00    +0.000 A 
ATOM     11  N   UNL     1      50.204   7.287  13.322  0.00  0.00    +0.000 N 
ATOM     12  C   UNL     1      48.913   6.998  12.959  0.00  0.00    +0.000 A 
ATOM     13  O   UNL     1      48.506   5.841  12.947  0.00  0.00    +0.000 OA
ATOM     14  C   UNL     1      48.125   8.149  12.556  0.00  0.00    +0.000 A 
ATOM     15  H   UNL     1      50.774   6.503  13.609  0.00  0.00    +0.000 HD
ENDBRANCH   2   5
BRANCH   3  16
ATOM     16  CA  UNL     1      44.689   5.269  11.152  0.00  0.00    +0.000 C 
BRANCH  16  17
ATOM     17  C   UNL     1      44.999   4.324  10.005  0.00  0.00    +0.000 A 
ATOM     18  C   UNL     1      44.711   2.954  10.021  0.00  0.00    +0.000 A 
ATOM     19  C   UNL     1      45.093   2.141   8.958  0.00  0.00    +0.000 A 
ATOM     20  C   UNL     1      45.756   2.725   7.895  0.00  0.00    +0.000 A 
ATOM     21  N   UNL     1      46.051   4.039   7.832  0.00  0.00    +0.000 NA
ATOM     22  C   UNL     1      45.662   4.804   8.879  0.00  0.00    +0.000 A 
ENDBRANCH  16  17
BRANCH  16  23
ATOM     23  C   UNL     1      43.254   5.836  11.029  0.00  0.00    +0.000 C 
BRANCH  23  24
ATOM     24  O   UNL     1      42.498   5.695  12.235  0.00  0.00    +0.000 OA
ATOM     25  H   UNL     1      42.651   6.485  12.783  0.00  0.00    +0.000 HD
ENDBRANCH  23  24
ENDBRANCH  16  23
ENDBRANCH   3  16
TORSDOF 5
ENDMDL
MODEL 8
REMARK VINA RESULT:    -6.061      3.455      6.530
REMARK INTER + INTRA:          -8.221
REMARK INTER:                  -7.508
REMARK INTRA:                  -0.713
REMARK UNBOUND:                -0.565
REMARK  Name = 
REMARK  5 active torsions:
REMARK  status: ('A' for Active; 'I' for Inactive)
REMARK    1  A    between atoms: C_2  and  C_13
REMARK    2  A    between atoms: N_3  and  CA_4
REMARK    3  A    between atoms: CA_4  and  C_5
REMARK    4  A    between atoms: CA_4  and  C_7
REMARK    5  A    between atoms: C_5  and  O_6
REMARK                            x       y       z     vdW  Elec       q    Type
REMARK                         _______ _______ _______ _____ _____    ______ ____
ROOT
ATOM      1  O   UNL     1      45.382   7.927  12.086  0.00  0.00    +0.000 OA
ATOM      2  C   UNL     1      46.119   7.031  11.679  0.00  0.00    +0.000 C 
ATOM      3  N   UNL     1      47.467   7.035  11.911  0.00  0.00    +0.000 N 
ATOM      4  H   UNL     1      48.054   6.309  11.509  0.00  0.00    +0.000 HD
ENDROOT
BRANCH   2   5
ATOM      5  C   UNL     1      45.586   5.874  10.948  0.00  0.00    +0.000 A 
ATOM      6  C   UNL     1      45.913   5.690   9.612  0.00  0.00    +0.000 A 
ATOM      7  S   UNL     1      45.224   4.290   8.925  0.00  0.00    +0.000 S 
ATOM      8  C   UNL     1      44.500   3.852  10.403  0.00  0.00    +0.000 A 
ATOM      9  N   UNL     1      43.787   2.701  10.521  0.00  0.00    +0.000 NA
ATOM     10  C   UNL     1      43.342   2.466  11.710  0.00  0.00    +0.000 A 
ATOM     11  N   UNL     1      43.533   3.289  12.788  0.00  0.00    +0.000 N 
ATOM     12  C   UNL     1      44.153   4.509  12.690  0.00  0.00    +0.000 A 
ATOM     13  O   UNL     1      44.150   5.294  13.632  0.00  0.00    +0.000 OA
ATOM     14  C   UNL     1      44.742   4.786  11.393  0.00  0.00    +0.000 A 
ATOM     15  H   UNL     1      43.116   3.070  13.682  0.00  0.00    +0.000 HD
ENDBRANCH   2   5
BRANCH   3  16
ATOM     16  CA  UNL     1      48.161   8.137  12.559  0.00  0.00    +0.000 C 
BRANCH  16  17
ATOM     17  C   UNL     1      49.628   8.208  12.174  0.00  0.00    +0.000 A 
ATOM     18  C   UNL     1      50.161   7.633  11.014  0.00  0.00    +0.000 A 
ATOM     19  C   UNL     1      51.530   7.678  10.769  0.00  0.00    +0.000 A 
ATOM     20  C   UNL     1      52.338   8.309  11.697  0.00  0.00    +0.000 A 
ATOM     21  N   UNL     1      51.872   8.881  12.826  0.00  0.00    +0.000 NA
ATOM     22  C   UNL     1      50.535   8.823  13.033  0.00  0.00    +0.000 A 
ENDBRANCH  16  17
BRANCH  16  23
ATOM     23  C   UNL     1      47.998   8.023  14.094  0.00  0.00    +0.000 C 
BRANCH  23  24
ATOM     24  O   UNL     1      46.975   8.882  14.607  0.00  0.00    +0.000 OA
ATOM     25  H   UNL     1      47.188   9.088  15.535  0.00  0.00    +0.000 HD
ENDBRANCH  23  24
ENDBRANCH  16  23
ENDBRANCH   3  16
TORSDOF 5
ENDMDL
MODEL 9
REMARK VINA RESULT:    -5.835      2.824      4.003
REMARK INTER + INTRA:          -7.935
REMARK INTER:                  -7.008
REMARK INTRA:                  -0.927
REMARK UNBOUND:                -0.565
REMARK  Name = 
REMARK  5 active torsions:
REMARK  status: ('A' for Active; 'I' for Inactive)
REMARK    1  A    between atoms: C_2  and  C_13
REMARK    2  A    between atoms: N_3  and  CA_4
REMARK    3  A    between atoms: CA_4  and  C_5
REMARK    4  A    between atoms: CA_4  and  C_7
REMARK    5  A    between atoms: C_5  and  O_6
REMARK                            x       y       z     vdW  Elec       q    Type
REMARK                         _______ _______ _______ _____ _____    ______ ____
ROOT
ATOM      1  O   UNL     1      49.595   6.787  14.448  0.00  0.00    +0.000 OA
ATOM      2  C   UNL     1      48.712   6.468  15.240  0.00  0.00    +0.000 C 
ATOM      3  N   UNL     1      47.584   5.804  14.846  0.00  0.00    +0.000 N 
ATOM      4  H   UNL     1      46.848   5.608  15.519  0.00  0.00    +0.000 HD
ENDROOT
BRANCH   2   5
ATOM      5  C   UNL     1      48.836   6.747  16.677  0.00  0.00    +0.000 A 
ATOM      6  C   UNL     1      48.978   8.057  17.117  0.00  0.00    +0.000 A 
ATOM      7  S   UNL     1      49.090   8.201  18.812  0.00  0.00    +0.000 S 
ATOM      8  C   UNL     1      48.904   6.521  19.025  0.00  0.00    +0.000 A 
ATOM      9  N   UNL     1      48.861   5.972  20.266  0.00  0.00    +0.000 NA
ATOM     10  C   UNL     1      48.660   4.697  20.282  0.00  0.00    +0.000 A 
ATOM     11  N   UNL     1      48.515   3.919  19.163  0.00  0.00    +0.000 N 
ATOM     12  C   UNL     1      48.659   4.414  17.892  0.00  0.00    +0.000 A 
ATOM     13  O   UNL     1      48.700   3.662  16.924  0.00  0.00    +0.000 OA
ATOM     14  C   UNL     1      48.806   5.856  17.816  0.00  0.00    +0.000 A 
ATOM     15  H   UNL     1      48.409   2.918  19.244  0.00  0.00    +0.000 HD
ENDBRANCH   2   5
BRANCH   3  16
ATOM     16  CA  UNL     1      47.278   5.511  13.454  0.00  0.00    +0.000 C 
BRANCH  16  17
ATOM     17  C   UNL     1      46.390   6.566  12.818  0.00  0.00    +0.000 A 
ATOM     18  C   UNL     1      46.516   7.941  13.056  0.00  0.00    +0.000 A 
ATOM     19  C   UNL     1      45.616   8.839  12.492  0.00  0.00    +0.000 A 
ATOM     20  C   UNL     1      44.606   8.336  11.692  0.00  0.00    +0.000 A 
ATOM     21  N   UNL     1      44.447   7.023  11.430  0.00  0.00    +0.000 NA
ATOM     22  C   UNL     1      45.342   6.175  11.991  0.00  0.00    +0.000 A 
ENDBRANCH  16  17
BRANCH  16  23
ATOM     23  C   UNL     1      46.631   4.109  13.347  0.00  0.00    +0.000 C 
BRANCH  23  24
ATOM     24  O   UNL     1      47.269   3.140  14.186  0.00  0.00    +0.000 OA
ATOM     25  H   UNL     1      47.135   2.261  13.789  0.00  0.00    +0.000 HD
ENDBRANCH  23  24
ENDBRANCH  16  23
ENDBRANCH   3  16
TORSDOF 5
ENDMDL
