MODEL 1
REMARK VINA RESULT:    -7.571      0.000      0.000
REMARK INTER + INTRA:          -9.261
REMARK INTER:                  -8.899
REMARK INTRA:                  -0.362
REMARK UNBOUND:                -0.362
REMARK  Name = 
REMARK  3 active torsions:
REMARK  status: ('A' for Active; 'I' for Inactive)
REMARK    1  A    between atoms: C_11  and  C_12
REMARK    2  A    between atoms: C_12  and  S_13
REMARK    3  A    between atoms: S_13  and  C_14
REMARK                            x       y       z     vdW  Elec       q    Type
REMARK                         _______ _______ _______ _____ _____    ______ ____
ROOT
ATOM      1  F   UNL     1      49.456   4.193  18.480  0.00  0.00    +0.000 F 
ATOM      2  C   UNL     1      48.225   4.763  18.371  0.00  0.00    +0.000 C 
ATOM      3  F   UNL     1      47.808   4.998  19.643  0.00  0.00    +0.000 F 
ATOM      4  C   UNL     1      47.281   3.777  17.713  0.00  0.00    +0.000 C 
ATOM      5  C   UNL     1      47.652   3.589  16.249  0.00  0.00    +0.000 C 
ATOM      6  N   UNL     1      47.732   4.903  15.632  0.00  0.00    +0.000 N 
ATOM      7  C   UNL     1      47.163   5.137  14.404  0.00  0.00    +0.000 A 
ATOM      8  N   UNL     1      47.286   6.356  13.860  0.00  0.00    +0.000 NA
ATOM      9  C   UNL     1      46.626   6.601  12.716  0.00  0.00    +0.000 A 
ATOM     10  C   UNL     1      45.842   5.673  12.079  0.00  0.00    +0.000 A 
ATOM     11  C   UNL     1      45.785   4.426  12.664  0.00  0.00    +0.000 A 
ATOM     12  N   UNL     1      46.430   4.168  13.827  0.00  0.00    +0.000 NA
ATOM     13  C   UNL     1      48.709   5.829  16.182  0.00  0.00    +0.000 C 
ATOM     14  C   UNL     1      48.352   6.083  17.637  0.00  0.00    +0.000 C 
ENDROOT
BRANCH  11  15
ATOM     15  C   UNL     1      44.917   3.306  12.129  0.00  0.00    +0.000 C 
BRANCH  15  16
ATOM     16  S   UNL     1      43.868   3.750  10.698  0.00  0.00    +0.000 S 
BRANCH  16  17
ATOM     17  C   UNL     1      44.968   3.335   9.361  0.00  0.00    +0.000 A 
ATOM     18  C   UNL     1      45.551   4.317   8.552  0.00  0.00    +0.000 A 
ATOM     19  C   UNL     1      46.414   3.953   7.515  0.00  0.00    +0.000 A 
ATOM     20  C   UNL     1      46.707   2.608   7.291  0.00  0.00    +0.000 A 
ATOM     21  C   UNL     1      46.148   1.628   8.108  0.00  0.00    +0.000 A 
ATOM     22  C   UNL     1      45.287   1.992   9.144  0.00  0.00    +0.000 A 
ENDBRANCH  16  17
ENDBRANCH  15  16
ENDBRANCH  11  15
TORSDOF 3
ENDMDL
MODEL 2
REMARK VINA RESULT:    -7.026      3.623      4.395
REMARK INTER + INTRA:          -8.620
REMARK INTER:                  -8.362
REMARK INTRA:                  -0.258
REMARK UNBOUND:                -0.362
REMARK  Name = 
REMARK  3 active torsions:
REMARK  status: ('A' for Active; 'I' for Inactive)
REMARK    1  A    between atoms: C_11  and  C_12
REMARK    2  A    between atoms: C_12  and  S_13
REMARK    3  A    between atoms: S_13  and  C_14
REMARK                            x       y       z     vdW  Elec       q    Type
REMARK                         _______ _______ _______ _____ _____    ______ ____
ROOT
ATOM      1  F   UNL     1      48.269   9.783  12.306  0.00  0.00    +0.000 F 
ATOM      2  C   UNL     1      48.466   8.591  12.932  0.00  0.00    +0.000 C 
ATOM      3  F   UNL     1      49.662   8.696  13.569  0.00  0.00    +0.000 F 
ATOM      4  C   UNL     1      48.553   7.493  11.891  0.00  0.00    +0.000 C 
ATOM      5  C   UNL     1      47.192   7.269  11.247  0.00  0.00    +0.000 C 
ATOM      6  N   UNL     1      46.220   7.065  12.308  0.00  0.00    +0.000 N 
ATOM      7  C   UNL     1      45.292   6.055  12.224  0.00  0.00    +0.000 A 
ATOM      8  N   UNL     1      44.396   5.921  13.212  0.00  0.00    +0.000 NA
ATOM      9  C   UNL     1      43.573   4.861  13.172  0.00  0.00    +0.000 A 
ATOM     10  C   UNL     1      43.600   3.918  12.176  0.00  0.00    +0.000 A 
ATOM     11  C   UNL     1      44.514   4.129  11.167  0.00  0.00    +0.000 A 
ATOM     12  N   UNL     1      45.364   5.183  11.202  0.00  0.00    +0.000 NA
ATOM     13  C   UNL     1      46.045   8.151  13.258  0.00  0.00    +0.000 C 
ATOM     14  C   UNL     1      47.372   8.383  13.961  0.00  0.00    +0.000 C 
ENDROOT
BRANCH  11  15
ATOM     15  C   UNL     1      44.721   3.154  10.027  0.00  0.00    +0.000 C 
BRANCH  15  16
ATOM     16  S   UNL     1      44.711   3.897   8.356  0.00  0.00    +0.000 S 
BRANCH  16  17
ATOM     17  C   UNL     1      45.897   2.849   7.539  0.00  0.00    +0.000 A 
ATOM     18  C   UNL     1      46.245   1.592   8.046  0.00  0.00    +0.000 A 
ATOM     19  C   UNL     1      47.176   0.796   7.373  0.00  0.00    +0.000 A 
ATOM     20  C   UNL     1      47.753   1.248   6.187  0.00  0.00    +0.000 A 
ATOM     21  C   UNL     1      47.393   2.489   5.666  0.00  0.00    +0.000 A 
ATOM     22  C   UNL     1      46.463   3.283   6.338  0.00  0.00    +0.000 A 
ENDBRANCH  16  17
ENDBRANCH  15  16
ENDBRANCH  11  15
TORSDOF 3
ENDMDL
MODEL 3
REMARK VINA RESULT:    -6.971      2.690      3.678
REMARK INTER + INTRA:          -8.555
REMARK INTER:                  -8.174
REMARK INTRA:                  -0.381
REMARK UNBOUND:                -0.362
REMARK  Name = 
REMARK  3 active torsions:
REMARK  status: ('A' for Active; 'I' for Inactive)
REMARK    1  A    between atoms: C_11  and  C_12
REMARK    2  A    between atoms: C_12  and  S_13
REMARK    3  A    between atoms: S_13  and  C_14
REMARK                            x       y       z     vdW  Elec       q    Type
REMARK                         _______ _______ _______ _____ _____    ______ ____
ROOT
ATOM      1  F   UNL     1      49.702   9.938  14.907  0.00  0.00    +0.000 F 
ATOM      2  C   UNL     1      50.108   9.019  13.989  0.00  0.00    +0.000 C 
ATOM      3  F   UNL     1      51.325   9.439  13.553  0.00  0.00    +0.000 F 
ATOM      4  C   UNL     1      49.137   9.020  12.826  0.00  0.00    +0.000 C 
ATOM      5  C   UNL     1      47.799   8.437  13.257  0.00  0.00    +0.000 C 
ATOM      6  N   UNL     1      48.048   7.147  13.878  0.00  0.00    +0.000 N 
ATOM      7  C   UNL     1      47.269   6.058  13.569  0.00  0.00    +0.000 A 
ATOM      8  N   UNL     1      47.516   4.894  14.187  0.00  0.00    +0.000 NA
ATOM      9  C   UNL     1      46.825   3.815  13.789  0.00  0.00    +0.000 A 
ATOM     10  C   UNL     1      45.882   3.843  12.793  0.00  0.00    +0.000 A 
ATOM     11  C   UNL     1      45.642   5.074  12.221  0.00  0.00    +0.000 A 
ATOM     12  N   UNL     1      46.344   6.169  12.599  0.00  0.00    +0.000 NA
ATOM     13  C   UNL     1      48.893   7.139  15.061  0.00  0.00    +0.000 C 
ATOM     14  C   UNL     1      50.261   7.673  14.667  0.00  0.00    +0.000 C 
ENDROOT
BRANCH  11  15
ATOM     15  C   UNL     1      44.682   5.271  11.067  0.00  0.00    +0.000 C 
BRANCH  15  16
ATOM     16  S   UNL     1      43.872   3.749  10.459  0.00  0.00    +0.000 S 
BRANCH  16  17
ATOM     17  C   UNL     1      45.024   3.265   9.190  0.00  0.00    +0.000 A 
ATOM     18  C   UNL     1      45.632   4.203   8.348  0.00  0.00    +0.000 A 
ATOM     19  C   UNL     1      46.535   3.785   7.367  0.00  0.00    +0.000 A 
ATOM     20  C   UNL     1      46.843   2.432   7.232  0.00  0.00    +0.000 A 
ATOM     21  C   UNL     1      46.259   1.496   8.083  0.00  0.00    +0.000 A 
ATOM     22  C   UNL     1      45.357   1.914   9.063  0.00  0.00    +0.000 A 
ENDBRANCH  16  17
ENDBRANCH  15  16
ENDBRANCH  11  15
TORSDOF 3
ENDMDL
MODEL 4
REMARK VINA RESULT:    -6.725      3.959      5.435
REMARK INTER + INTRA:          -8.267
REMARK INTER:                  -7.709
REMARK INTRA:                  -0.558
REMARK UNBOUND:                -0.362
REMARK  Name = 
REMARK  3 active torsions:
REMARK  status: ('A' for Active; 'I' for Inactive)
REMARK    1  A    between atoms: C_11  and  C_12
REMARK    2  A    between atoms: C_12  and  S_13
REMARK    3  A    between atoms: S_13  and  C_14
REMARK                            x       y       z     vdW  Elec       q    Type
REMARK                         _______ _______ _______ _____ _____    ______ ____
ROOT
ATOM      1  F   UNL     1      45.999  11.996  12.364  0.00  0.00    +0.000 F 
ATOM      2  C   UNL     1      46.253  11.082  11.389  0.00  0.00    +0.000 C 
ATOM      3  F   UNL     1      46.413  11.794  10.242  0.00  0.00    +0.000 F 
ATOM      4  C   UNL     1      45.053  10.169  11.242  0.00  0.00    +0.000 C 
ATOM      5  C   UNL     1      44.923   9.270  12.464  0.00  0.00    +0.000 C 
ATOM      6  N   UNL     1      46.201   8.613  12.678  0.00  0.00    +0.000 N 
ATOM      7  C   UNL     1      46.260   7.270  12.960  0.00  0.00    +0.000 A 
ATOM      8  N   UNL     1      47.459   6.710  13.179  0.00  0.00    +0.000 NA
ATOM      9  C   UNL     1      47.509   5.378  13.338  0.00  0.00    +0.000 A 
ATOM     10  C   UNL     1      46.403   4.567  13.291  0.00  0.00    +0.000 A 
ATOM     11  C   UNL     1      45.195   5.201  13.102  0.00  0.00    +0.000 A 
ATOM     12  N   UNL     1      45.129   6.542  12.923  0.00  0.00    +0.000 NA
ATOM     13  C   UNL     1      47.348   9.471  12.927  0.00  0.00    +0.000 C 
ATOM     14  C   UNL     1      47.546  10.359  11.710  0.00  0.00    +0.000 C 
ENDROOT
BRANCH  11  15
ATOM     15  C   UNL     1      43.886   4.452  12.962  0.00  0.00    +0.000 C 
BRANCH  15  16
ATOM     16  S   UNL     1      42.957   4.789  11.423  0.00  0.00    +0.000 S 
BRANCH  16  17
ATOM     17  C   UNL     1      44.031   4.014  10.232  0.00  0.00    +0.000 A 
ATOM     18  C   UNL     1      44.121   2.623  10.115  0.00  0.00    +0.000 A 
ATOM     19  C   UNL     1      44.971   2.052   9.164  0.00  0.00    +0.000 A 
ATOM     20  C   UNL     1      45.724   2.868   8.320  0.00  0.00    +0.000 A 
ATOM     21  C   UNL     1      45.619   4.254   8.416  0.00  0.00    +0.000 A 
ATOM     22  C   UNL     1      44.770   4.824   9.366  0.00  0.00    +0.000 A 
ENDBRANCH  16  17
ENDBRANCH  15  16
ENDBRANCH  11  15
TORSDOF 3
ENDMDL
MODEL 5
REMARK VINA RESULT:    -6.620      3.996      7.322
REMARK INTER + INTRA:          -8.143
REMARK INTER:                  -7.766
REMARK INTRA:                  -0.377
REMARK UNBOUND:                -0.362
REMARK  Name = 
REMARK  3 active torsions:
REMARK  status: ('A' for Active; 'I' for Inactive)
REMARK    1  A    between atoms: C_11  and  C_12
REMARK    2  A    between atoms: C_12  and  S_13
REMARK    3  A    between atoms: S_13  and  C_14
REMARK                            x       y       z     vdW  Elec       q    Type
REMARK                         _______ _______ _______ _____ _____    ______ ____
ROOT
ATOM      1  F   UNL     1      42.976   2.778  11.797  0.00  0.00    +0.000 F 
ATOM      2  C   UNL     1      43.917   3.335  10.987  0.00  0.00    +0.000 C 
ATOM      3  F   UNL     1      43.907   2.602   9.843  0.00  0.00    +0.000 F 
ATOM      4  C   UNL     1      45.276   3.207  11.646  0.00  0.00    +0.000 C 
ATOM      5  C   UNL     1      45.357   4.116  12.865  0.00  0.00    +0.000 C 
ATOM      6  N   UNL     1      44.972   5.456  12.455  0.00  0.00    +0.000 N 
ATOM      7  C   UNL     1      45.699   6.549  12.857  0.00  0.00    +0.000 A 
ATOM      8  N   UNL     1      45.291   7.769  12.479  0.00  0.00    +0.000 NA
ATOM      9  C   UNL     1      46.077   8.814  12.783  0.00  0.00    +0.000 A 
ATOM     10  C   UNL     1      47.265   8.699  13.459  0.00  0.00    +0.000 A 
ATOM     11  C   UNL     1      47.614   7.427  13.856  0.00  0.00    +0.000 A 
ATOM     12  N   UNL     1      46.842   6.359  13.543  0.00  0.00    +0.000 NA
ATOM     13  C   UNL     1      43.631   5.619  11.917  0.00  0.00    +0.000 C 
ATOM     14  C   UNL     1      43.515   4.761  10.667  0.00  0.00    +0.000 C 
ENDROOT
BRANCH  11  15
ATOM     15  C   UNL     1      48.921   7.113  14.555  0.00  0.00    +0.000 C 
BRANCH  15  16
ATOM     16  S   UNL     1      48.865   7.189  16.380  0.00  0.00    +0.000 S 
BRANCH  16  17
ATOM     17  C   UNL     1      48.962   5.454  16.771  0.00  0.00    +0.000 A 
ATOM     18  C   UNL     1      50.115   4.884  17.322  0.00  0.00    +0.000 A 
ATOM     19  C   UNL     1      50.151   3.519  17.621  0.00  0.00    +0.000 A 
ATOM     20  C   UNL     1      49.032   2.722  17.380  0.00  0.00    +0.000 A 
ATOM     21  C   UNL     1      47.874   3.289  16.852  0.00  0.00    +0.000 A 
ATOM     22  C   UNL     1      47.838   4.652  16.555  0.00  0.00    +0.000 A 
ENDBRANCH  16  17
ENDBRANCH  15  16
ENDBRANCH  11  15
TORSDOF 3
ENDMDL
MODEL 6
REMARK VINA RESULT:    -6.266      3.847      8.156
REMARK INTER + INTRA:          -7.726
REMARK INTER:                  -7.485
REMARK INTRA:                  -0.241
REMARK UNBOUND:                -0.362
REMARK  Name = 
REMARK  3 active torsions:
REMARK  status: ('A' for Active; 'I' for Inactive)
REMARK    1  A    between atoms: C_11  and  C_12
REMARK    2  A    between atoms: C_12  and  S_13
REMARK    3  A    between atoms: S_13  and  C_14
REMARK                            x       y       z     vdW  Elec       q    Type
REMARK                         _______ _______ _______ _____ _____    ______ ____
ROOT
ATOM      1  F   UNL     1      42.926   4.282  10.995  0.00  0.00    +0.000 F 
ATOM      2  C   UNL     1      44.168   3.731  10.916  0.00  0.00    +0.000 C 
ATOM      3  F   UNL     1      44.014   2.556  10.250  0.00  0.00    +0.000 F 
ATOM      4  C   UNL     1      44.672   3.444  12.316  0.00  0.00    +0.000 C 
ATOM      5  C   UNL     1      44.971   4.747  13.044  0.00  0.00    +0.000 C 
ATOM      6  N   UNL     1      45.848   5.543  12.203  0.00  0.00    +0.000 N 
ATOM      7  C   UNL     1      46.944   6.178  12.734  0.00  0.00    +0.000 A 
ATOM      8  N   UNL     1      47.709   6.926  11.926  0.00  0.00    +0.000 NA
ATOM      9  C   UNL     1      48.838   7.444  12.436  0.00  0.00    +0.000 A 
ATOM     10  C   UNL     1      49.243   7.252  13.732  0.00  0.00    +0.000 A 
ATOM     11  C   UNL     1      48.397   6.508  14.526  0.00  0.00    +0.000 A 
ATOM     12  N   UNL     1      47.264   5.964  14.023  0.00  0.00    +0.000 NA
ATOM     13  C   UNL     1      45.340   5.919  10.893  0.00  0.00    +0.000 C 
ATOM     14  C   UNL     1      45.067   4.646  10.109  0.00  0.00    +0.000 C 
ENDROOT
BRANCH  11  15
ATOM     15  C   UNL     1      48.722   6.147  15.961  0.00  0.00    +0.000 C 
BRANCH  15  16
ATOM     16  S   UNL     1      47.837   4.687  16.615  0.00  0.00    +0.000 S 
BRANCH  16  17
ATOM     17  C   UNL     1      47.946   5.011  18.363  0.00  0.00    +0.000 A 
ATOM     18  C   UNL     1      47.218   6.039  18.970  0.00  0.00    +0.000 A 
ATOM     19  C   UNL     1      47.325   6.259  20.347  0.00  0.00    +0.000 A 
ATOM     20  C   UNL     1      48.150   5.444  21.121  0.00  0.00    +0.000 A 
ATOM     21  C   UNL     1      48.859   4.404  20.525  0.00  0.00    +0.000 A 
ATOM     22  C   UNL     1      48.751   4.184  19.151  0.00  0.00    +0.000 A 
ENDBRANCH  16  17
ENDBRANCH  15  16
ENDBRANCH  11  15
TORSDOF 3
ENDMDL
MODEL 7
REMARK VINA RESULT:    -6.201      4.321      7.875
REMARK INTER + INTRA:          -7.650
REMARK INTER:                  -7.360
REMARK INTRA:                  -0.290
REMARK UNBOUND:                -0.362
REMARK  Name = 
REMARK  3 active torsions:
REMARK  status: ('A' for Active; 'I' for Inactive)
REMARK    1  A    between atoms: C_11  and  C_12
REMARK    2  A    between atoms: C_12  and  S_13
REMARK    3  A    between atoms: S_13  and  C_14
REMARK                            x       y       z     vdW  Elec       q    Type
REMARK                         _______ _______ _______ _____ _____    ______ ____
ROOT
ATOM      1  F   UNL     1      42.860   4.315  10.608  0.00  0.00    +0.000 F 
ATOM      2  C   UNL     1      44.121   3.811  10.524  0.00  0.00    +0.000 C 
ATOM      3  F   UNL     1      44.089   2.890   9.524  0.00  0.00    +0.000 F 
ATOM      4  C   UNL     1      44.464   3.116  11.826  0.00  0.00    +0.000 C 
ATOM      5  C   UNL     1      44.628   4.139  12.941  0.00  0.00    +0.000 C 
ATOM      6  N   UNL     1      45.571   5.150  12.491  0.00  0.00    +0.000 N 
ATOM      7  C   UNL     1      46.571   5.594  13.320  0.00  0.00    +0.000 A 
ATOM      8  N   UNL     1      47.401   6.549  12.873  0.00  0.00    +0.000 NA
ATOM      9  C   UNL     1      48.442   6.887  13.650  0.00  0.00    +0.000 A 
ATOM     10  C   UNL     1      48.696   6.314  14.871  0.00  0.00    +0.000 A 
ATOM     11  C   UNL     1      47.788   5.369  15.295  0.00  0.00    +0.000 A 
ATOM     12  N   UNL     1      46.742   5.002  14.516  0.00  0.00    +0.000 NA
ATOM     13  C   UNL     1      45.209   5.902  11.300  0.00  0.00    +0.000 C 
ATOM     14  C   UNL     1      45.077   4.924  10.145  0.00  0.00    +0.000 C 
ENDROOT
BRANCH  11  15
ATOM     15  C   UNL     1      47.952   4.593  16.586  0.00  0.00    +0.000 C 
BRANCH  15  16
ATOM     16  S   UNL     1      49.224   5.241  17.728  0.00  0.00    +0.000 S 
BRANCH  16  17
ATOM     17  C   UNL     1      50.382   3.889  17.709  0.00  0.00    +0.000 A 
ATOM     18  C   UNL     1      50.005   2.599  17.319  0.00  0.00    +0.000 A 
ATOM     19  C   UNL     1      50.945   1.564  17.311  0.00  0.00    +0.000 A 
ATOM     20  C   UNL     1      52.265   1.817  17.682  0.00  0.00    +0.000 A 
ATOM     21  C   UNL     1      52.651   3.104  18.048  0.00  0.00    +0.000 A 
ATOM     22  C   UNL     1      51.713   4.138  18.055  0.00  0.00    +0.000 A 
ENDBRANCH  16  17
ENDBRANCH  15  16
ENDBRANCH  11  15
TORSDOF 3
ENDMDL
MODEL 8
REMARK VINA RESULT:    -6.133      4.187      6.800
REMARK INTER + INTRA:          -7.570
REMARK INTER:                  -7.067
REMARK INTRA:                  -0.503
REMARK UNBOUND:                -0.362
REMARK  Name = 
REMARK  3 active torsions:
REMARK  status: ('A' for Active; 'I' for Inactive)
REMARK    1  A    between atoms: C_11  and  C_12
REMARK    2  A    between atoms: C_12  and  S_13
REMARK    3  A    between atoms: S_13  and  C_14
REMARK                            x       y       z     vdW  Elec       q    Type
REMARK                         _______ _______ _______ _____ _____    ______ ____
ROOT
ATOM      1  F   UNL     1      44.878   4.810  10.192  0.00  0.00    +0.000 F 
ATOM      2  C   UNL     1      44.324   5.110  11.398  0.00  0.00    +0.000 C 
ATOM      3  F   UNL     1      43.034   5.454  11.141  0.00  0.00    +0.000 F 
ATOM      4  C   UNL     1      45.046   6.302  11.993  0.00  0.00    +0.000 C 
ATOM      5  C   UNL     1      46.458   5.910  12.405  0.00  0.00    +0.000 C 
ATOM      6  N   UNL     1      46.370   4.731  13.251  0.00  0.00    +0.000 N 
ATOM      7  C   UNL     1      47.100   4.645  14.411  0.00  0.00    +0.000 A 
ATOM      8  N   UNL     1      47.010   3.527  15.147  0.00  0.00    +0.000 NA
ATOM      9  C   UNL     1      47.637   3.506  16.333  0.00  0.00    +0.000 A 
ATOM     10  C   UNL     1      48.364   4.561  16.826  0.00  0.00    +0.000 A 
ATOM     11  C   UNL     1      48.455   5.667  16.009  0.00  0.00    +0.000 A 
ATOM     12  N   UNL     1      47.813   5.711  14.817  0.00  0.00    +0.000 NA
ATOM     13  C   UNL     1      45.774   3.542  12.663  0.00  0.00    +0.000 C 
ATOM     14  C   UNL     1      44.343   3.874  12.275  0.00  0.00    +0.000 C 
ENDROOT
BRANCH  11  15
ATOM     15  C   UNL     1      49.163   6.940  16.425  0.00  0.00    +0.000 C 
BRANCH  15  16
ATOM     16  S   UNL     1      50.566   7.432  15.361  0.00  0.00    +0.000 S 
BRANCH  16  17
ATOM     17  C   UNL     1      49.684   8.157  13.994  0.00  0.00    +0.000 A 
ATOM     18  C   UNL     1      48.759   9.190  14.176  0.00  0.00    +0.000 A 
ATOM     19  C   UNL     1      48.091   9.737  13.077  0.00  0.00    +0.000 A 
ATOM     20  C   UNL     1      48.354   9.263  11.793  0.00  0.00    +0.000 A 
ATOM     21  C   UNL     1      49.293   8.251  11.603  0.00  0.00    +0.000 A 
ATOM     22  C   UNL     1      49.960   7.705  12.701  0.00  0.00    +0.000 A 
ENDBRANCH  16  17
ENDBRANCH  15  16
ENDBRANCH  11  15
TORSDOF 3
ENDMDL
MODEL 9
REMARK VINA RESULT:    -5.979      4.281      8.719
REMARK INTER + INTRA:          -7.389
REMARK INTER:                  -6.975
REMARK INTRA:                  -0.414
REMARK UNBOUND:                -0.362
REMARK  Name = 
REMARK  3 active torsions:
REMARK  status: ('A' for Active; 'I' for Inactive)
REMARK    1  A    between atoms: C_11  and  C_12
REMARK    2  A    between atoms: C_12  and  S_13
REMARK    3  A    between atoms: S_13  and  C_14
REMARK                            x       y       z     vdW  Elec       q    Type
REMARK                         _______ _______ _______ _____ _____    ______ ____
ROOT
ATOM      1  F   UNL     1      45.959   5.709  10.881  0.00  0.00    +0.000 F 
ATOM      2  C   UNL     1      45.330   6.054  12.037  0.00  0.00    +0.000 C 
ATOM      3  F   UNL     1      44.218   6.742  11.666  0.00  0.00    +0.000 F 
ATOM      4  C   UNL     1      46.235   6.969  12.839  0.00  0.00    +0.000 C 
ATOM      5  C   UNL     1      47.429   6.191  13.372  0.00  0.00    +0.000 C 
ATOM      6  N   UNL     1      46.929   5.019  14.070  0.00  0.00    +0.000 N 
ATOM      7  C   UNL     1      47.441   4.660  15.293  0.00  0.00    +0.000 A 
ATOM      8  N   UNL     1      46.970   3.554  15.888  0.00  0.00    +0.000 NA
ATOM      9  C   UNL     1      47.396   3.283  17.132  0.00  0.00    +0.000 A 
ATOM     10  C   UNL     1      48.285   4.071  17.818  0.00  0.00    +0.000 A 
ATOM     11  C   UNL     1      48.765   5.171  17.142  0.00  0.00    +0.000 A 
ATOM     12  N   UNL     1      48.332   5.470  15.894  0.00  0.00    +0.000 NA
ATOM     13  C   UNL     1      46.147   4.074  13.291  0.00  0.00    +0.000 C 
ATOM     14  C   UNL     1      44.914   4.796  12.772  0.00  0.00    +0.000 C 
ENDROOT
BRANCH  11  15
ATOM     15  C   UNL     1      49.702   6.181  17.774  0.00  0.00    +0.000 C 
BRANCH  15  16
ATOM     16  S   UNL     1      49.324   7.931  17.404  0.00  0.00    +0.000 S 
BRANCH  16  17
ATOM     17  C   UNL     1      48.396   8.366  18.861  0.00  0.00    +0.000 A 
ATOM     18  C   UNL     1      48.433   7.586  20.021  0.00  0.00    +0.000 A 
ATOM     19  C   UNL     1      47.695   7.963  21.146  0.00  0.00    +0.000 A 
ATOM     20  C   UNL     1      46.928   9.127  21.120  0.00  0.00    +0.000 A 
ATOM     21  C   UNL     1      46.906   9.921  19.975  0.00  0.00    +0.000 A 
ATOM     22  C   UNL     1      47.644   9.544  18.851  0.00  0.00    +0.000 A 
ENDBRANCH  16  17
ENDBRANCH  15  16
ENDBRANCH  11  15
TORSDOF 3
ENDMDL
