MODEL 1
REMARK VINA RESULT:    -8.154      0.000      0.000
REMARK INTER + INTRA:         -12.008
REMARK INTER:                 -11.253
REMARK INTRA:                  -0.755
REMARK UNBOUND:                -0.755
REMARK  Name = 
REMARK  8 active torsions:
REMARK  status: ('A' for Active; 'I' for Inactive)
REMARK    1  A    between atoms: C_1  and  C_2
REMARK    2  A    between atoms: C_2  and  O_3
REMARK    3  A    between atoms: C_2  and  C_13
REMARK    4  A    between atoms: O_3  and  C_4
REMARK    5  A    between atoms: C_7  and  C_8
REMARK    6  A    between atoms: C_17  and  C_18
REMARK    7  A    between atoms: C_23  and  C_24
REMARK    8  A    between atoms: C_24  and  O_25
REMARK                            x       y       z     vdW  Elec       q    Type
REMARK                         _______ _______ _______ _____ _____    ______ ____
ROOT
ATOM      1  C   UNL     1      45.018   4.880  11.900  0.00  0.00    +0.000 A 
ATOM      2  C   UNL     1      45.539   3.931  12.779  0.00  0.00    +0.000 A 
ATOM      3  C   UNL     1      46.698   4.209  13.494  0.00  0.00    +0.000 A 
ATOM      4  C   UNL     1      47.366   5.428  13.317  0.00  0.00    +0.000 A 
ATOM      5  C   UNL     1      46.873   6.421  12.459  0.00  0.00    +0.000 A 
ATOM      6  C   UNL     1      45.680   6.109  11.764  0.00  0.00    +0.000 A 
ENDROOT
BRANCH   5   7
ATOM      7  C   UNL     1      47.519   7.754  12.242  0.00  0.00    +0.000 A 
ATOM      8  C   UNL     1      48.875   7.760  11.821  0.00  0.00    +0.000 A 
ATOM      9  C   UNL     1      49.530   8.916  11.398  0.00  0.00    +0.000 A 
ATOM     10  C   UNL     1      48.855  10.123  11.410  0.00  0.00    +0.000 A 
ATOM     11  C   UNL     1      47.549  10.172  11.886  0.00  0.00    +0.000 A 
ATOM     12  C   UNL     1      46.865   9.015  12.331  0.00  0.00    +0.000 A 
BRANCH  12  13
ATOM     13  C   UNL     1      45.458   9.175  12.872  0.00  0.00    +0.000 C 
BRANCH  13  14
ATOM     14  O   UNL     1      44.462   9.288  11.855  0.00  0.00    +0.000 OA
ATOM     15  H   UNL     1      43.927  10.066  12.084  0.00  0.00    +0.000 HD
ENDBRANCH  13  14
ENDBRANCH  12  13
ENDBRANCH   5   7
BRANCH   1  17
ATOM     16  C   UNL     1      42.469   5.020  11.730  0.00  0.00    +0.000 C 
ATOM     17  C   UNL     1      43.787   4.649  11.128  0.00  0.00    +0.000 C 
BRANCH  17  18
ATOM     18  O   UNL     1      43.941   4.879   9.767  0.00  0.00    +0.000 OA
BRANCH  18  19
ATOM     19  C   UNL     1      44.814   4.071   9.054  0.00  0.00    +0.000 A 
ATOM     20  C   UNL     1      44.707   2.695   9.264  0.00  0.00    +0.000 A 
ATOM     21  N   UNL     1      45.504   1.780   8.652  0.00  0.00    +0.000 NA
ATOM     22  C   UNL     1      46.413   2.315   7.788  0.00  0.00    +0.000 A 
ATOM     23  C   UNL     1      46.503   3.685   7.557  0.00  0.00    +0.000 A 
ATOM     24  N   UNL     1      45.710   4.596   8.186  0.00  0.00    +0.000 NA
BRANCH  22  25
ATOM     25  C   UNL     1      47.356   1.389   7.101  0.00  0.00    +0.000 C 
ATOM     26  N   UNL     1      48.479   1.957   6.557  0.00  0.00    +0.000 N 
ATOM     27  O   UNL     1      47.141   0.189   7.009  0.00  0.00    +0.000 OA
ATOM     28  H   UNL     1      48.636   2.956   6.638  0.00  0.00    +0.000 HD
ATOM     29  H   UNL     1      49.139   1.377   6.069  0.00  0.00    +0.000 HD
ENDBRANCH  22  25
ENDBRANCH  18  19
ENDBRANCH  17  18
ENDBRANCH   1  17
TORSDOF 7
ENDMDL
MODEL 2
REMARK VINA RESULT:    -8.013      1.393      1.927
REMARK INTER + INTRA:         -11.813
REMARK INTER:                 -10.854
REMARK INTRA:                  -0.959
REMARK UNBOUND:                -0.755
REMARK  Name = 
REMARK  8 active torsions:
REMARK  status: ('A' for Active; 'I' for Inactive)
REMARK    1  A    between atoms: C_1  and  C_2
REMARK    2  A    between atoms: C_2  and  O_3
REMARK    3  A    between atoms: C_2  and  C_13
REMARK    4  A    between atoms: O_3  and  C_4
REMARK    5  A    between atoms: C_7  and  C_8
REMARK    6  A    between atoms: C_17  and  C_18
REMARK    7  A    between atoms: C_23  and  C_24
REMARK    8  A    between atoms: C_24  and  O_25
REMARK                            x       y       z     vdW  Elec       q    Type
REMARK                         _______ _______ _______ _____ _____    ______ ____
ROOT
ATOM      1  C   UNL     1      45.327   4.760  12.069  0.00  0.00    +0.000 A 
ATOM      2  C   UNL     1      45.937   4.092  13.131  0.00  0.00    +0.000 A 
ATOM      3  C   UNL     1      46.937   4.720  13.865  0.00  0.00    +0.000 A 
ATOM      4  C   UNL     1      47.358   6.012  13.528  0.00  0.00    +0.000 A 
ATOM      5  C   UNL     1      46.765   6.733  12.482  0.00  0.00    +0.000 A 
ATOM      6  C   UNL     1      45.738   6.068  11.771  0.00  0.00    +0.000 A 
ENDROOT
BRANCH   5   7
ATOM      7  C   UNL     1      47.146   8.124  12.085  0.00  0.00    +0.000 A 
ATOM      8  C   UNL     1      46.145   9.127  12.184  0.00  0.00    +0.000 A 
ATOM      9  C   UNL     1      46.419  10.486  12.034  0.00  0.00    +0.000 A 
ATOM     10  C   UNL     1      47.709  10.892  11.748  0.00  0.00    +0.000 A 
ATOM     11  C   UNL     1      48.704   9.936  11.569  0.00  0.00    +0.000 A 
ATOM     12  C   UNL     1      48.450   8.550  11.705  0.00  0.00    +0.000 A 
BRANCH  12  13
ATOM     13  C   UNL     1      49.589   7.583  11.449  0.00  0.00    +0.000 C 
BRANCH  13  14
ATOM     14  O   UNL     1      50.377   7.306  12.606  0.00  0.00    +0.000 OA
ATOM     15  H   UNL     1      50.148   7.987  13.261  0.00  0.00    +0.000 HD
ENDBRANCH  13  14
ENDBRANCH  12  13
ENDBRANCH   5   7
BRANCH   1  17
ATOM     16  C   UNL     1      42.919   3.912  11.898  0.00  0.00    +0.000 C 
ATOM     17  C   UNL     1      44.254   4.154  11.267  0.00  0.00    +0.000 C 
BRANCH  17  18
ATOM     18  O   UNL     1      44.255   4.572   9.943  0.00  0.00    +0.000 OA
BRANCH  18  19
ATOM     19  C   UNL     1      45.095   3.929   9.046  0.00  0.00    +0.000 A 
ATOM     20  C   UNL     1      45.182   2.541   9.155  0.00  0.00    +0.000 A 
ATOM     21  N   UNL     1      45.976   1.775   8.360  0.00  0.00    +0.000 NA
ATOM     22  C   UNL     1      46.673   2.477   7.420  0.00  0.00    +0.000 A 
ATOM     23  C   UNL     1      46.566   3.858   7.292  0.00  0.00    +0.000 A 
ATOM     24  N   UNL     1      45.778   4.619   8.103  0.00  0.00    +0.000 NA
BRANCH  22  25
ATOM     25  C   UNL     1      47.598   1.723   6.529  0.00  0.00    +0.000 C 
ATOM     26  N   UNL     1      48.802   2.322   6.258  0.00  0.00    +0.000 N 
ATOM     27  O   UNL     1      47.304   0.639   6.049  0.00  0.00    +0.000 OA
ATOM     28  H   UNL     1      49.025   3.225   6.660  0.00  0.00    +0.000 HD
ATOM     29  H   UNL     1      49.456   1.862   5.649  0.00  0.00    +0.000 HD
ENDBRANCH  22  25
ENDBRANCH  18  19
ENDBRANCH  17  18
ENDBRANCH   1  17
TORSDOF 7
ENDMDL
MODEL 3
REMARK VINA RESULT:    -7.709      4.188      7.398
REMARK INTER + INTRA:         -11.394
REMARK INTER:                 -10.751
REMARK INTRA:                  -0.643
REMARK UNBOUND:                -0.755
REMARK  Name = 
REMARK  8 active torsions:
REMARK  status: ('A' for Active; 'I' for Inactive)
REMARK    1  A    between atoms: C_1  and  C_2
REMARK    2  A    between atoms: C_2  and  O_3
REMARK    3  A    between atoms: C_2  and  C_13
REMARK    4  A    between atoms: O_3  and  C_4
REMARK    5  A    between atoms: C_7  and  C_8
REMARK    6  A    between atoms: C_17  and  C_18
REMARK    7  A    between atoms: C_23  and  C_24
REMARK    8  A    between atoms: C_24  and  O_25
REMARK                            x       y       z     vdW  Elec       q    Type
REMARK                         _______ _______ _______ _____ _____    ______ ____
ROOT
ATOM      1  C   UNL     1      47.345   7.263  12.468  0.00  0.00    +0.000 A 
ATOM      2  C   UNL     1      46.501   8.343  12.723  0.00  0.00    +0.000 A 
ATOM      3  C   UNL     1      45.208   8.350  12.214  0.00  0.00    +0.000 A 
ATOM      4  C   UNL     1      44.753   7.290  11.420  0.00  0.00    +0.000 A 
ATOM      5  C   UNL     1      45.555   6.173  11.149  0.00  0.00    +0.000 A 
ATOM      6  C   UNL     1      46.858   6.194  11.701  0.00  0.00    +0.000 A 
ENDROOT
BRANCH   5   7
ATOM      7  C   UNL     1      45.126   4.995  10.332  0.00  0.00    +0.000 A 
ATOM      8  C   UNL     1      45.528   4.965   8.970  0.00  0.00    +0.000 A 
ATOM      9  C   UNL     1      45.364   3.843   8.158  0.00  0.00    +0.000 A 
ATOM     10  C   UNL     1      44.760   2.712   8.675  0.00  0.00    +0.000 A 
ATOM     11  C   UNL     1      44.284   2.727   9.983  0.00  0.00    +0.000 A 
ATOM     12  C   UNL     1      44.429   3.856  10.824  0.00  0.00    +0.000 A 
BRANCH  12  13
ATOM     13  C   UNL     1      43.841   3.791  12.219  0.00  0.00    +0.000 C 
BRANCH  13  14
ATOM     14  O   UNL     1      43.682   2.462  12.714  0.00  0.00    +0.000 OA
ATOM     15  H   UNL     1      43.273   1.951  11.995  0.00  0.00    +0.000 HD
ENDBRANCH  13  14
ENDBRANCH  12  13
ENDBRANCH   5   7
BRANCH   1  17
ATOM     16  C   UNL     1      49.840   7.749  12.174  0.00  0.00    +0.000 C 
ATOM     17  C   UNL     1      48.718   7.192  12.992  0.00  0.00    +0.000 C 
BRANCH  17  18
ATOM     18  O   UNL     1      48.791   7.377  14.366  0.00  0.00    +0.000 OA
BRANCH  18  19
ATOM     19  C   UNL     1      48.437   6.324  15.195  0.00  0.00    +0.000 A 
ATOM     20  C   UNL     1      48.830   6.421  16.531  0.00  0.00    +0.000 A 
ATOM     21  N   UNL     1      48.571   5.462  17.459  0.00  0.00    +0.000 NA
ATOM     22  C   UNL     1      47.871   4.393  16.982  0.00  0.00    +0.000 A 
ATOM     23  C   UNL     1      47.455   4.308  15.657  0.00  0.00    +0.000 A 
ATOM     24  N   UNL     1      47.730   5.268  14.731  0.00  0.00    +0.000 NA
BRANCH  22  25
ATOM     25  C   UNL     1      47.576   3.274  17.921  0.00  0.00    +0.000 C 
ATOM     26  N   UNL     1      48.417   3.146  18.996  0.00  0.00    +0.000 N 
ATOM     27  O   UNL     1      46.648   2.499  17.741  0.00  0.00    +0.000 OA
ATOM     28  H   UNL     1      49.186   3.794  19.124  0.00  0.00    +0.000 HD
ATOM     29  H   UNL     1      48.271   2.397  19.651  0.00  0.00    +0.000 HD
ENDBRANCH  22  25
ENDBRANCH  18  19
ENDBRANCH  17  18
ENDBRANCH   1  17
TORSDOF 7
ENDMDL
MODEL 4
REMARK VINA RESULT:    -7.703      1.900      2.656
REMARK INTER + INTRA:         -11.385
REMARK INTER:                 -10.357
REMARK INTRA:                  -1.028
REMARK UNBOUND:                -0.755
REMARK  Name = 
REMARK  8 active torsions:
REMARK  status: ('A' for Active; 'I' for Inactive)
REMARK    1  A    between atoms: C_1  and  C_2
REMARK    2  A    between atoms: C_2  and  O_3
REMARK    3  A    between atoms: C_2  and  C_13
REMARK    4  A    between atoms: O_3  and  C_4
REMARK    5  A    between atoms: C_7  and  C_8
REMARK    6  A    between atoms: C_17  and  C_18
REMARK    7  A    between atoms: C_23  and  C_24
REMARK    8  A    between atoms: C_24  and  O_25
REMARK                            x       y       z     vdW  Elec       q    Type
REMARK                         _______ _______ _______ _____ _____    ______ ____
ROOT
ATOM      1  C   UNL     1      44.568   4.985  11.426  0.00  0.00    +0.000 A 
ATOM      2  C   UNL     1      43.603   5.985  11.306  0.00  0.00    +0.000 A 
ATOM      3  C   UNL     1      43.951   7.315  11.515  0.00  0.00    +0.000 A 
ATOM      4  C   UNL     1      45.260   7.657  11.875  0.00  0.00    +0.000 A 
ATOM      5  C   UNL     1      46.270   6.692  11.992  0.00  0.00    +0.000 A 
ATOM      6  C   UNL     1      45.882   5.352  11.751  0.00  0.00    +0.000 A 
ENDROOT
BRANCH   5   7
ATOM      7  C   UNL     1      47.694   6.989  12.346  0.00  0.00    +0.000 A 
ATOM      8  C   UNL     1      48.482   7.655  11.370  0.00  0.00    +0.000 A 
ATOM      9  C   UNL     1      49.753   8.160  11.641  0.00  0.00    +0.000 A 
ATOM     10  C   UNL     1      50.297   7.991  12.901  0.00  0.00    +0.000 A 
ATOM     11  C   UNL     1      49.588   7.279  13.863  0.00  0.00    +0.000 A 
ATOM     12  C   UNL     1      48.301   6.747  13.609  0.00  0.00    +0.000 A 
BRANCH  12  13
ATOM     13  C   UNL     1      47.624   5.949  14.707  0.00  0.00    +0.000 C 
BRANCH  13  14
ATOM     14  O   UNL     1      47.738   4.536  14.543  0.00  0.00    +0.000 OA
ATOM     15  H   UNL     1      46.835   4.182  14.606  0.00  0.00    +0.000 HD
ENDBRANCH  13  14
ENDBRANCH  12  13
ENDBRANCH   5   7
BRANCH   1  17
ATOM     16  C   UNL     1      43.612   2.777  12.293  0.00  0.00    +0.000 C 
ATOM     17  C   UNL     1      44.264   3.564  11.201  0.00  0.00    +0.000 C 
BRANCH  17  18
ATOM     18  O   UNL     1      43.861   3.287   9.902  0.00  0.00    +0.000 OA
BRANCH  18  19
ATOM     19  C   UNL     1      44.822   2.903   8.978  0.00  0.00    +0.000 A 
ATOM     20  C   UNL     1      45.182   3.851   8.019  0.00  0.00    +0.000 A 
ATOM     21  N   UNL     1      46.095   3.615   7.040  0.00  0.00    +0.000 NA
ATOM     22  C   UNL     1      46.655   2.372   7.081  0.00  0.00    +0.000 A 
ATOM     23  C   UNL     1      46.317   1.435   8.053  0.00  0.00    +0.000 A 
ATOM     24  N   UNL     1      45.391   1.675   9.023  0.00  0.00    +0.000 NA
BRANCH  22  25
ATOM     25  C   UNL     1      47.638   2.012   6.021  0.00  0.00    +0.000 C 
ATOM     26  N   UNL     1      47.985   3.012   5.149  0.00  0.00    +0.000 N 
ATOM     27  O   UNL     1      48.104   0.887   5.918  0.00  0.00    +0.000 OA
ATOM     28  H   UNL     1      47.582   3.937   5.246  0.00  0.00    +0.000 HD
ATOM     29  H   UNL     1      48.633   2.816   4.406  0.00  0.00    +0.000 HD
ENDBRANCH  22  25
ENDBRANCH  18  19
ENDBRANCH  17  18
ENDBRANCH   1  17
TORSDOF 7
ENDMDL
MODEL 5
REMARK VINA RESULT:    -6.819      4.442      8.125
REMARK INTER + INTRA:         -10.166
REMARK INTER:                  -9.249
REMARK INTRA:                  -0.917
REMARK UNBOUND:                -0.755
REMARK  Name = 
REMARK  8 active torsions:
REMARK  status: ('A' for Active; 'I' for Inactive)
REMARK    1  A    between atoms: C_1  and  C_2
REMARK    2  A    between atoms: C_2  and  O_3
REMARK    3  A    between atoms: C_2  and  C_13
REMARK    4  A    between atoms: O_3  and  C_4
REMARK    5  A    between atoms: C_7  and  C_8
REMARK    6  A    between atoms: C_17  and  C_18
REMARK    7  A    between atoms: C_23  and  C_24
REMARK    8  A    between atoms: C_24  and  O_25
REMARK                            x       y       z     vdW  Elec       q    Type
REMARK                         _______ _______ _______ _____ _____    ______ ____
ROOT
ATOM      1  C   UNL     1      45.530   8.942  12.139  0.00  0.00    +0.000 A 
ATOM      2  C   UNL     1      46.562   8.828  13.070  0.00  0.00    +0.000 A 
ATOM      3  C   UNL     1      47.095   7.579  13.366  0.00  0.00    +0.000 A 
ATOM      4  C   UNL     1      46.584   6.426  12.755  0.00  0.00    +0.000 A 
ATOM      5  C   UNL     1      45.561   6.490  11.800  0.00  0.00    +0.000 A 
ATOM      6  C   UNL     1      45.057   7.780  11.511  0.00  0.00    +0.000 A 
ENDROOT
BRANCH   5   7
ATOM      7  C   UNL     1      44.986   5.305  11.090  0.00  0.00    +0.000 A 
ATOM      8  C   UNL     1      45.351   5.120   9.729  0.00  0.00    +0.000 A 
ATOM      9  C   UNL     1      45.047   3.963   9.015  0.00  0.00    +0.000 A 
ATOM     10  C   UNL     1      44.334   2.951   9.631  0.00  0.00    +0.000 A 
ATOM     11  C   UNL     1      43.892   3.124  10.940  0.00  0.00    +0.000 A 
ATOM     12  C   UNL     1      44.180   4.293  11.683  0.00  0.00    +0.000 A 
BRANCH  12  13
ATOM     13  C   UNL     1      43.620   4.407  13.087  0.00  0.00    +0.000 C 
BRANCH  13  14
ATOM     14  O   UNL     1      42.797   5.557  13.285  0.00  0.00    +0.000 OA
ATOM     15  H   UNL     1      42.791   6.036  12.440  0.00  0.00    +0.000 HD
ENDBRANCH  13  14
ENDBRANCH  12  13
ENDBRANCH   5   7
BRANCH   1  17
ATOM     16  C   UNL     1      45.824  11.433  11.633  0.00  0.00    +0.000 C 
ATOM     17  C   UNL     1      44.936  10.237  11.774  0.00  0.00    +0.000 C 
BRANCH  17  18
ATOM     18  O   UNL     1      43.887  10.125  10.871  0.00  0.00    +0.000 OA
BRANCH  18  19
ATOM     19  C   UNL     1      42.625  10.541  11.267  0.00  0.00    +0.000 A 
ATOM     20  C   UNL     1      41.540   9.877  10.693  0.00  0.00    +0.000 A 
ATOM     21  N   UNL     1      40.244  10.183  10.969  0.00  0.00    +0.000 NA
ATOM     22  C   UNL     1      40.085  11.188  11.878  0.00  0.00    +0.000 A 
ATOM     23  C   UNL     1      41.167  11.832  12.471  0.00  0.00    +0.000 A 
ATOM     24  N   UNL     1      42.462  11.527  12.179  0.00  0.00    +0.000 NA
BRANCH  22  25
ATOM     25  C   UNL     1      38.699  11.617  12.212  0.00  0.00    +0.000 C 
ATOM     26  N   UNL     1      38.481  12.015  13.506  0.00  0.00    +0.000 N 
ATOM     27  O   UNL     1      37.796  11.605  11.388  0.00  0.00    +0.000 OA
ATOM     28  H   UNL     1      39.241  12.012  14.176  0.00  0.00    +0.000 HD
ATOM     29  H   UNL     1      37.558  12.300  13.786  0.00  0.00    +0.000 HD
ENDBRANCH  22  25
ENDBRANCH  18  19
ENDBRANCH  17  18
ENDBRANCH   1  17
TORSDOF 7
ENDMDL
MODEL 6
REMARK VINA RESULT:    -6.775      3.820      6.120
REMARK INTER + INTRA:         -10.104
REMARK INTER:                  -9.267
REMARK INTRA:                  -0.837
REMARK UNBOUND:                -0.755
REMARK  Name = 
REMARK  8 active torsions:
REMARK  status: ('A' for Active; 'I' for Inactive)
REMARK    1  A    between atoms: C_1  and  C_2
REMARK    2  A    between atoms: C_2  and  O_3
REMARK    3  A    between atoms: C_2  and  C_13
REMARK    4  A    between atoms: O_3  and  C_4
REMARK    5  A    between atoms: C_7  and  C_8
REMARK    6  A    between atoms: C_17  and  C_18
REMARK    7  A    between atoms: C_23  and  C_24
REMARK    8  A    between atoms: C_24  and  O_25
REMARK                            x       y       z     vdW  Elec       q    Type
REMARK                         _______ _______ _______ _____ _____    ______ ____
ROOT
ATOM      1  C   UNL     1      48.042   7.998  14.429  0.00  0.00    +0.000 A 
ATOM      2  C   UNL     1      47.975   9.123  15.250  0.00  0.00    +0.000 A 
ATOM      3  C   UNL     1      48.417   9.050  16.567  0.00  0.00    +0.000 A 
ATOM      4  C   UNL     1      48.905   7.844  17.085  0.00  0.00    +0.000 A 
ATOM      5  C   UNL     1      49.009   6.690  16.296  0.00  0.00    +0.000 A 
ATOM      6  C   UNL     1      48.568   6.809  14.956  0.00  0.00    +0.000 A 
ENDROOT
BRANCH   5   7
ATOM      7  C   UNL     1      49.544   5.377  16.775  0.00  0.00    +0.000 A 
ATOM      8  C   UNL     1      50.933   5.306  17.063  0.00  0.00    +0.000 A 
ATOM      9  C   UNL     1      51.519   4.211  17.697  0.00  0.00    +0.000 A 
ATOM     10  C   UNL     1      50.735   3.126  18.042  0.00  0.00    +0.000 A 
ATOM     11  C   UNL     1      49.383   3.124  17.710  0.00  0.00    +0.000 A 
ATOM     12  C   UNL     1      48.767   4.219  17.057  0.00  0.00    +0.000 A 
BRANCH  12  13
ATOM     13  C   UNL     1      47.299   4.107  16.699  0.00  0.00    +0.000 C 
BRANCH  13  14
ATOM     14  O   UNL     1      46.571   3.209  17.536  0.00  0.00    +0.000 OA
ATOM     15  H   UNL     1      45.630   3.368  17.352  0.00  0.00    +0.000 HD
ENDBRANCH  13  14
ENDBRANCH  12  13
ENDBRANCH   5   7
BRANCH   1  17
ATOM     16  C   UNL     1      48.463   7.371  11.985  0.00  0.00    +0.000 C 
ATOM     17  C   UNL     1      47.604   8.018  13.025  0.00  0.00    +0.000 C 
BRANCH  17  18
ATOM     18  O   UNL     1      46.230   7.884  12.876  0.00  0.00    +0.000 OA
BRANCH  18  19
ATOM     19  C   UNL     1      45.723   6.653  12.490  0.00  0.00    +0.000 A 
ATOM     20  C   UNL     1      45.242   6.557  11.183  0.00  0.00    +0.000 A 
ATOM     21  N   UNL     1      44.700   5.422  10.667  0.00  0.00    +0.000 NA
ATOM     22  C   UNL     1      44.682   4.365  11.528  0.00  0.00    +0.000 A 
ATOM     23  C   UNL     1      45.187   4.452  12.822  0.00  0.00    +0.000 A 
ATOM     24  N   UNL     1      45.716   5.597  13.336  0.00  0.00    +0.000 NA
BRANCH  22  25
ATOM     25  C   UNL     1      44.070   3.090  11.060  0.00  0.00    +0.000 C 
ATOM     26  N   UNL     1      44.779   2.384  10.123  0.00  0.00    +0.000 N 
ATOM     27  O   UNL     1      42.989   2.696  11.471  0.00  0.00    +0.000 OA
ATOM     28  H   UNL     1      45.671   2.731   9.789  0.00  0.00    +0.000 HD
ATOM     29  H   UNL     1      44.402   1.524   9.763  0.00  0.00    +0.000 HD
ENDBRANCH  22  25
ENDBRANCH  18  19
ENDBRANCH  17  18
ENDBRANCH   1  17
TORSDOF 7
ENDMDL
MODEL 7
REMARK VINA RESULT:    -6.764      5.234      7.802
REMARK INTER + INTRA:         -10.089
REMARK INTER:                  -8.818
REMARK INTRA:                  -1.270
REMARK UNBOUND:                -0.755
REMARK  Name = 
REMARK  8 active torsions:
REMARK  status: ('A' for Active; 'I' for Inactive)
REMARK    1  A    between atoms: C_1  and  C_2
REMARK    2  A    between atoms: C_2  and  O_3
REMARK    3  A    between atoms: C_2  and  C_13
REMARK    4  A    between atoms: O_3  and  C_4
REMARK    5  A    between atoms: C_7  and  C_8
REMARK    6  A    between atoms: C_17  and  C_18
REMARK    7  A    between atoms: C_23  and  C_24
REMARK    8  A    between atoms: C_24  and  O_25
REMARK                            x       y       z     vdW  Elec       q    Type
REMARK                         _______ _______ _______ _____ _____    ______ ____
ROOT
ATOM      1  C   UNL     1      49.327   6.975  16.648  0.00  0.00    +0.000 A 
ATOM      2  C   UNL     1      49.125   7.588  17.884  0.00  0.00    +0.000 A 
ATOM      3  C   UNL     1      49.556   6.962  19.049  0.00  0.00    +0.000 A 
ATOM      4  C   UNL     1      50.169   5.704  18.993  0.00  0.00    +0.000 A 
ATOM      5  C   UNL     1      50.411   5.055  17.774  0.00  0.00    +0.000 A 
ATOM      6  C   UNL     1      49.976   5.732  16.610  0.00  0.00    +0.000 A 
ENDROOT
BRANCH   5   7
ATOM      7  C   UNL     1      51.084   3.725  17.638  0.00  0.00    +0.000 A 
ATOM      8  C   UNL     1      52.485   3.677  17.867  0.00  0.00    +0.000 A 
ATOM      9  C   UNL     1      53.195   2.481  17.964  0.00  0.00    +0.000 A 
ATOM     10  C   UNL     1      52.528   1.280  17.806  0.00  0.00    +0.000 A 
ATOM     11  C   UNL     1      51.169   1.285  17.506  0.00  0.00    +0.000 A 
ATOM     12  C   UNL     1      50.428   2.486  17.392  0.00  0.00    +0.000 A 
BRANCH  12  13
ATOM     13  C   UNL     1      48.961   2.392  17.021  0.00  0.00    +0.000 C 
BRANCH  13  14
ATOM     14  O   UNL     1      48.727   2.341  15.614  0.00  0.00    +0.000 OA
ATOM     15  H   UNL     1      48.596   3.260  15.327  0.00  0.00    +0.000 HD
ENDBRANCH  13  14
ENDBRANCH  12  13
ENDBRANCH   5   7
BRANCH   1  17
ATOM     16  C   UNL     1      49.317   9.002  15.088  0.00  0.00    +0.000 C 
ATOM     17  C   UNL     1      48.907   7.594  15.382  0.00  0.00    +0.000 C 
BRANCH  17  18
ATOM     18  O   UNL     1      48.899   6.708  14.313  0.00  0.00    +0.000 OA
BRANCH  18  19
ATOM     19  C   UNL     1      47.695   6.128  13.943  0.00  0.00    +0.000 A 
ATOM     20  C   UNL     1      46.811   6.931  13.220  0.00  0.00    +0.000 A 
ATOM     21  N   UNL     1      45.587   6.510  12.803  0.00  0.00    +0.000 NA
ATOM     22  C   UNL     1      45.296   5.218  13.131  0.00  0.00    +0.000 A 
ATOM     23  C   UNL     1      46.188   4.408  13.827  0.00  0.00    +0.000 A 
ATOM     24  N   UNL     1      47.407   4.843  14.253  0.00  0.00    +0.000 NA
BRANCH  22  25
ATOM     25  C   UNL     1      43.960   4.683  12.748  0.00  0.00    +0.000 C 
ATOM     26  N   UNL     1      42.874   5.424  13.139  0.00  0.00    +0.000 N 
ATOM     27  O   UNL     1      43.828   3.635  12.132  0.00  0.00    +0.000 OA
ATOM     28  H   UNL     1      43.003   6.287  13.655  0.00  0.00    +0.000 HD
ATOM     29  H   UNL     1      41.949   5.098  12.918  0.00  0.00    +0.000 HD
ENDBRANCH  22  25
ENDBRANCH  18  19
ENDBRANCH  17  18
ENDBRANCH   1  17
TORSDOF 7
ENDMDL
MODEL 8
REMARK VINA RESULT:    -6.725      5.445      8.342
REMARK INTER + INTRA:         -10.036
REMARK INTER:                  -9.433
REMARK INTRA:                  -0.602
REMARK UNBOUND:                -0.755
REMARK  Name = 
REMARK  8 active torsions:
REMARK  status: ('A' for Active; 'I' for Inactive)
REMARK    1  A    between atoms: C_1  and  C_2
REMARK    2  A    between atoms: C_2  and  O_3
REMARK    3  A    between atoms: C_2  and  C_13
REMARK    4  A    between atoms: O_3  and  C_4
REMARK    5  A    between atoms: C_7  and  C_8
REMARK    6  A    between atoms: C_17  and  C_18
REMARK    7  A    between atoms: C_23  and  C_24
REMARK    8  A    between atoms: C_24  and  O_25
REMARK                            x       y       z     vdW  Elec       q    Type
REMARK                         _______ _______ _______ _____ _____    ______ ____
ROOT
ATOM      1  C   UNL     1      47.400   7.008  13.681  0.00  0.00    +0.000 A 
ATOM      2  C   UNL     1      46.979   8.335  13.598  0.00  0.00    +0.000 A 
ATOM      3  C   UNL     1      45.953   8.686  12.729  0.00  0.00    +0.000 A 
ATOM      4  C   UNL     1      45.355   7.719  11.911  0.00  0.00    +0.000 A 
ATOM      5  C   UNL     1      45.729   6.370  11.969  0.00  0.00    +0.000 A 
ATOM      6  C   UNL     1      46.763   6.048  12.880  0.00  0.00    +0.000 A 
ENDROOT
BRANCH   5   7
ATOM      7  C   UNL     1      45.115   5.281  11.145  0.00  0.00    +0.000 A 
ATOM      8  C   UNL     1      45.510   5.194   9.783  0.00  0.00    +0.000 A 
ATOM      9  C   UNL     1      45.167   4.118   8.964  0.00  0.00    +0.000 A 
ATOM     10  C   UNL     1      44.387   3.097   9.474  0.00  0.00    +0.000 A 
ATOM     11  C   UNL     1      43.918   3.181  10.782  0.00  0.00    +0.000 A 
ATOM     12  C   UNL     1      44.243   4.267  11.630  0.00  0.00    +0.000 A 
BRANCH  12  13
ATOM     13  C   UNL     1      43.650   4.291  13.025  0.00  0.00    +0.000 C 
BRANCH  13  14
ATOM     14  O   UNL     1      42.804   5.414  13.269  0.00  0.00    +0.000 OA
ATOM     15  H   UNL     1      43.216   5.912  13.995  0.00  0.00    +0.000 HD
ENDBRANCH  13  14
ENDBRANCH  12  13
ENDBRANCH   5   7
BRANCH   1  17
ATOM     16  C   UNL     1      49.168   7.593  15.434  0.00  0.00    +0.000 C 
ATOM     17  C   UNL     1      48.469   6.573  14.592  0.00  0.00    +0.000 C 
BRANCH  17  18
ATOM     18  O   UNL     1      48.224   5.338  15.177  0.00  0.00    +0.000 OA
BRANCH  18  19
ATOM     19  C   UNL     1      48.518   5.173  16.522  0.00  0.00    +0.000 A 
ATOM     20  C   UNL     1      47.452   5.298  17.415  0.00  0.00    +0.000 A 
ATOM     21  N   UNL     1      47.586   5.180  18.763  0.00  0.00    +0.000 NA
ATOM     22  C   UNL     1      48.856   4.905  19.179  0.00  0.00    +0.000 A 
ATOM     23  C   UNL     1      49.914   4.753  18.288  0.00  0.00    +0.000 A 
ATOM     24  N   UNL     1      49.773   4.886  16.940  0.00  0.00    +0.000 NA
BRANCH  22  25
ATOM     25  C   UNL     1      49.104   4.798  20.644  0.00  0.00    +0.000 C 
ATOM     26  N   UNL     1      47.995   4.794  21.449  0.00  0.00    +0.000 N 
ATOM     27  O   UNL     1      50.231   4.731  21.111  0.00  0.00    +0.000 OA
ATOM     28  H   UNL     1      47.068   4.857  21.043  0.00  0.00    +0.000 HD
ATOM     29  H   UNL     1      48.109   4.739  22.447  0.00  0.00    +0.000 HD
ENDBRANCH  22  25
ENDBRANCH  18  19
ENDBRANCH  17  18
ENDBRANCH   1  17
TORSDOF 7
ENDMDL
MODEL 9
REMARK VINA RESULT:    -6.715      4.485      8.048
REMARK INTER + INTRA:         -10.021
REMARK INTER:                  -8.980
REMARK INTRA:                  -1.041
REMARK UNBOUND:                -0.755
REMARK  Name = 
REMARK  8 active torsions:
REMARK  status: ('A' for Active; 'I' for Inactive)
REMARK    1  A    between atoms: C_1  and  C_2
REMARK    2  A    between atoms: C_2  and  O_3
REMARK    3  A    between atoms: C_2  and  C_13
REMARK    4  A    between atoms: O_3  and  C_4
REMARK    5  A    between atoms: C_7  and  C_8
REMARK    6  A    between atoms: C_17  and  C_18
REMARK    7  A    between atoms: C_23  and  C_24
REMARK    8  A    between atoms: C_24  and  O_25
REMARK                            x       y       z     vdW  Elec       q    Type
REMARK                         _______ _______ _______ _____ _____    ______ ____
ROOT
ATOM      1  C   UNL     1      47.868   7.739  12.420  0.00  0.00    +0.000 A 
ATOM      2  C   UNL     1      47.183   8.952  12.371  0.00  0.00    +0.000 A 
ATOM      3  C   UNL     1      45.820   8.970  12.095  0.00  0.00    +0.000 A 
ATOM      4  C   UNL     1      45.133   7.777  11.838  0.00  0.00    +0.000 A 
ATOM      5  C   UNL     1      45.773   6.530  11.893  0.00  0.00    +0.000 A 
ATOM      6  C   UNL     1      47.155   6.552  12.197  0.00  0.00    +0.000 A 
ENDROOT
BRANCH   5   7
ATOM      7  C   UNL     1      45.096   5.217  11.657  0.00  0.00    +0.000 A 
ATOM      8  C   UNL     1      44.448   4.609  12.765  0.00  0.00    +0.000 A 
ATOM      9  C   UNL     1      43.622   3.492  12.638  0.00  0.00    +0.000 A 
ATOM     10  C   UNL     1      43.437   2.921  11.393  0.00  0.00    +0.000 A 
ATOM     11  C   UNL     1      44.114   3.442  10.293  0.00  0.00    +0.000 A 
ATOM     12  C   UNL     1      44.965   4.567  10.397  0.00  0.00    +0.000 A 
BRANCH  12  13
ATOM     13  C   UNL     1      45.692   5.035   9.152  0.00  0.00    +0.000 C 
BRANCH  13  14
ATOM     14  O   UNL     1      45.349   4.299   7.978  0.00  0.00    +0.000 OA
ATOM     15  H   UNL     1      46.008   4.539   7.305  0.00  0.00    +0.000 HD
ENDBRANCH  13  14
ENDBRANCH  12  13
ENDBRANCH   5   7
BRANCH   1  17
ATOM     16  C   UNL     1      50.294   7.808  11.609  0.00  0.00    +0.000 C 
ATOM     17  C   UNL     1      49.305   7.656  12.722  0.00  0.00    +0.000 C 
BRANCH  17  18
ATOM     18  O   UNL     1      49.644   8.223  13.943  0.00  0.00    +0.000 OA
BRANCH  18  19
ATOM     19  C   UNL     1      49.227   7.592  15.105  0.00  0.00    +0.000 A 
ATOM     20  C   UNL     1      48.873   8.418  16.173  0.00  0.00    +0.000 A 
ATOM     21  N   UNL     1      48.462   7.946  17.380  0.00  0.00    +0.000 NA
ATOM     22  C   UNL     1      48.399   6.586  17.460  0.00  0.00    +0.000 A 
ATOM     23  C   UNL     1      48.725   5.762  16.387  0.00  0.00    +0.000 A 
ATOM     24  N   UNL     1      49.149   6.243  15.185  0.00  0.00    +0.000 NA
BRANCH  22  25
ATOM     25  C   UNL     1      47.996   5.979  18.759  0.00  0.00    +0.000 C 
ATOM     26  N   UNL     1      46.702   5.533  18.845  0.00  0.00    +0.000 N 
ATOM     27  O   UNL     1      48.764   5.894  19.706  0.00  0.00    +0.000 OA
ATOM     28  H   UNL     1      46.078   5.619  18.051  0.00  0.00    +0.000 HD
ATOM     29  H   UNL     1      46.375   5.129  19.706  0.00  0.00    +0.000 HD
ENDBRANCH  22  25
ENDBRANCH  18  19
ENDBRANCH  17  18
ENDBRANCH   1  17
TORSDOF 7
ENDMDL
