MODEL 1
REMARK VINA RESULT:    -8.090      0.000      0.000
REMARK INTER + INTRA:         -10.332
REMARK INTER:                  -9.982
REMARK INTRA:                  -0.350
REMARK UNBOUND:                -0.350
REMARK  Name = 
REMARK  4 active torsions:
REMARK  status: ('A' for Active; 'I' for Inactive)
REMARK    1  A    between atoms: C_3  and  C_4
REMARK    2  A    between atoms: C_11  and  C_12
REMARK    3  A    between atoms: C_12  and  O_13
REMARK    4  A    between atoms: O_13  and  C_14
REMARK                            x       y       z     vdW  Elec       q    Type
REMARK                         _______ _______ _______ _____ _____    ______ ____
ROOT
ATOM      1  C   UNL     1      46.972   6.880  11.663  0.00  0.00    +0.000 A 
ATOM      2  C   UNL     1      47.499   6.407  12.862  0.00  0.00    +0.000 A 
ATOM      3  C   UNL     1      46.950   5.293  13.515  0.00  0.00    +0.000 A 
ATOM      4  C   UNL     1      45.848   4.650  12.898  0.00  0.00    +0.000 A 
ATOM      5  C   UNL     1      45.276   5.121  11.698  0.00  0.00    +0.000 A 
ATOM      6  C   UNL     1      45.886   6.235  11.091  0.00  0.00    +0.000 A 
ENDROOT
BRANCH   3   7
ATOM      7  C   UNL     1      47.495   4.831  14.806  0.00  0.00    +0.000 A 
ATOM      8  C   UNL     1      48.150   5.690  15.696  0.00  0.00    +0.000 A 
ATOM      9  N   UNL     1      48.682   5.296  16.878  0.00  0.00    +0.000 NA
ATOM     10  C   UNL     1      48.531   3.985  17.158  0.00  0.00    +0.000 A 
ATOM     11  C   UNL     1      47.880   3.119  16.299  0.00  0.00    +0.000 A 
ATOM     12  N   UNL     1      47.351   3.516  15.114  0.00  0.00    +0.000 NA
ENDBRANCH   3   7
BRANCH   5  13
ATOM     13  C   UNL     1      44.047   4.487  11.053  0.00  0.00    +0.000 C 
ATOM     14  C   UNL     1      42.724   4.761  11.776  0.00  0.00    +0.000 C 
ATOM     15  C   UNL     1      43.260   3.371  11.707  0.00  0.00    +0.000 C 
BRANCH  13  16
ATOM     16  O   UNL     1      43.922   4.618   9.611  0.00  0.00    +0.000 OA
BRANCH  16  17
ATOM     17  C   UNL     1      44.872   3.928   8.880  0.00  0.00    +0.000 A 
ATOM     18  C   UNL     1      44.969   2.567   9.101  0.00  0.00    +0.000 A 
ATOM     19  C   UNL     1      45.912   1.851   8.377  0.00  0.00    +0.000 A 
ATOM     20  C   UNL     1      46.716   2.545   7.493  0.00  0.00    +0.000 A 
ATOM     21  N   UNL     1      46.623   3.880   7.320  0.00  0.00    +0.000 NA
ATOM     22  N   UNL     1      45.689   4.582   8.026  0.00  0.00    +0.000 NA
ENDBRANCH  16  17
ENDBRANCH  13  16
ENDBRANCH   5  13
TORSDOF 4
ENDMDL
MODEL 2
REMARK VINA RESULT:    -7.483      3.217      5.001
REMARK INTER + INTRA:          -9.583
REMARK INTER:                  -9.018
REMARK INTRA:                  -0.565
REMARK UNBOUND:                -0.350
REMARK  Name = 
REMARK  4 active torsions:
REMARK  status: ('A' for Active; 'I' for Inactive)
REMARK    1  A    between atoms: C_3  and  C_4
REMARK    2  A    between atoms: C_11  and  C_12
REMARK    3  A    between atoms: C_12  and  O_13
REMARK    4  A    between atoms: O_13  and  C_14
REMARK                            x       y       z     vdW  Elec       q    Type
REMARK                         _______ _______ _______ _____ _____    ______ ____
ROOT
ATOM      1  C   UNL     1      47.099   7.131  12.402  0.00  0.00    +0.000 A 
ATOM      2  C   UNL     1      46.371   8.294  12.163  0.00  0.00    +0.000 A 
ATOM      3  C   UNL     1      45.054   8.247  11.679  0.00  0.00    +0.000 A 
ATOM      4  C   UNL     1      44.481   6.969  11.462  0.00  0.00    +0.000 A 
ATOM      5  C   UNL     1      45.202   5.775  11.670  0.00  0.00    +0.000 A 
ATOM      6  C   UNL     1      46.513   5.896  12.169  0.00  0.00    +0.000 A 
ENDROOT
BRANCH   3   7
ATOM      7  C   UNL     1      44.313   9.491  11.390  0.00  0.00    +0.000 A 
ATOM      8  C   UNL     1      44.760  10.748  11.812  0.00  0.00    +0.000 A 
ATOM      9  N   UNL     1      44.094  11.905  11.584  0.00  0.00    +0.000 NA
ATOM     10  C   UNL     1      42.940  11.769  10.898  0.00  0.00    +0.000 A 
ATOM     11  C   UNL     1      42.483  10.539  10.464  0.00  0.00    +0.000 A 
ATOM     12  N   UNL     1      43.151   9.380  10.696  0.00  0.00    +0.000 NA
ENDBRANCH   3   7
BRANCH   5  13
ATOM     13  C   UNL     1      44.629   4.392  11.376  0.00  0.00    +0.000 C 
ATOM     14  C   UNL     1      43.723   3.822  12.472  0.00  0.00    +0.000 C 
ATOM     15  C   UNL     1      45.020   3.158  12.162  0.00  0.00    +0.000 C 
BRANCH  13  16
ATOM     16  O   UNL     1      44.085   4.176  10.046  0.00  0.00    +0.000 OA
BRANCH  16  17
ATOM     17  C   UNL     1      45.017   3.817   9.088  0.00  0.00    +0.000 A 
ATOM     18  C   UNL     1      45.238   2.466   8.903  0.00  0.00    +0.000 A 
ATOM     19  C   UNL     1      46.165   2.079   7.944  0.00  0.00    +0.000 A 
ATOM     20  C   UNL     1      46.830   3.069   7.247  0.00  0.00    +0.000 A 
ATOM     21  N   UNL     1      46.619   4.383   7.471  0.00  0.00    +0.000 NA
ATOM     22  N   UNL     1      45.701   4.763   8.408  0.00  0.00    +0.000 NA
ENDBRANCH  16  17
ENDBRANCH  13  16
ENDBRANCH   5  13
TORSDOF 4
ENDMDL
MODEL 3
REMARK VINA RESULT:    -7.417      2.332      3.624
REMARK INTER + INTRA:          -9.501
REMARK INTER:                  -9.034
REMARK INTRA:                  -0.467
REMARK UNBOUND:                -0.350
REMARK  Name = 
REMARK  4 active torsions:
REMARK  status: ('A' for Active; 'I' for Inactive)
REMARK    1  A    between atoms: C_3  and  C_4
REMARK    2  A    between atoms: C_11  and  C_12
REMARK    3  A    between atoms: C_12  and  O_13
REMARK    4  A    between atoms: O_13  and  C_14
REMARK                            x       y       z     vdW  Elec       q    Type
REMARK                         _______ _______ _______ _____ _____    ______ ____
ROOT
ATOM      1  C   UNL     1      46.979   4.505  13.611  0.00  0.00    +0.000 A 
ATOM      2  C   UNL     1      47.554   5.745  13.343  0.00  0.00    +0.000 A 
ATOM      3  C   UNL     1      47.027   6.599  12.362  0.00  0.00    +0.000 A 
ATOM      4  C   UNL     1      45.871   6.164  11.666  0.00  0.00    +0.000 A 
ATOM      5  C   UNL     1      45.283   4.904  11.897  0.00  0.00    +0.000 A 
ATOM      6  C   UNL     1      45.855   4.103  12.904  0.00  0.00    +0.000 A 
ENDROOT
BRANCH   3   7
ATOM      7  C   UNL     1      47.675   7.891  12.062  0.00  0.00    +0.000 A 
ATOM      8  C   UNL     1      49.023   7.991  11.703  0.00  0.00    +0.000 A 
ATOM      9  N   UNL     1      49.655   9.161  11.442  0.00  0.00    +0.000 NA
ATOM     10  C   UNL     1      48.878  10.259  11.547  0.00  0.00    +0.000 A 
ATOM     11  C   UNL     1      47.541  10.185  11.892  0.00  0.00    +0.000 A 
ATOM     12  N   UNL     1      46.912   9.011  12.155  0.00  0.00    +0.000 NA
ENDBRANCH   3   7
BRANCH   5  13
ATOM     13  C   UNL     1      44.082   4.386  11.112  0.00  0.00    +0.000 C 
ATOM     14  C   UNL     1      42.724   4.616  11.783  0.00  0.00    +0.000 C 
ATOM     15  C   UNL     1      43.229   3.228  11.584  0.00  0.00    +0.000 C 
BRANCH  13  16
ATOM     16  O   UNL     1      44.050   4.685   9.690  0.00  0.00    +0.000 OA
BRANCH  16  17
ATOM     17  C   UNL     1      44.967   3.983   8.928  0.00  0.00    +0.000 A 
ATOM     18  C   UNL     1      45.046   2.620   9.138  0.00  0.00    +0.000 A 
ATOM     19  C   UNL     1      45.956   1.892   8.384  0.00  0.00    +0.000 A 
ATOM     20  C   UNL     1      46.746   2.577   7.481  0.00  0.00    +0.000 A 
ATOM     21  N   UNL     1      46.671   3.915   7.318  0.00  0.00    +0.000 NA
ATOM     22  N   UNL     1      45.770   4.628   8.054  0.00  0.00    +0.000 NA
ENDBRANCH  16  17
ENDBRANCH  13  16
ENDBRANCH   5  13
TORSDOF 4
ENDMDL
MODEL 4
REMARK VINA RESULT:    -7.211      1.793      2.442
REMARK INTER + INTRA:          -9.247
REMARK INTER:                  -8.691
REMARK INTRA:                  -0.556
REMARK UNBOUND:                -0.350
REMARK  Name = 
REMARK  4 active torsions:
REMARK  status: ('A' for Active; 'I' for Inactive)
REMARK    1  A    between atoms: C_3  and  C_4
REMARK    2  A    between atoms: C_11  and  C_12
REMARK    3  A    between atoms: C_12  and  O_13
REMARK    4  A    between atoms: O_13  and  C_14
REMARK                            x       y       z     vdW  Elec       q    Type
REMARK                         _______ _______ _______ _____ _____    ______ ____
ROOT
ATOM      1  C   UNL     1      44.786   8.125  11.613  0.00  0.00    +0.000 A 
ATOM      2  C   UNL     1      45.980   8.263  12.316  0.00  0.00    +0.000 A 
ATOM      3  C   UNL     1      46.724   7.144  12.720  0.00  0.00    +0.000 A 
ATOM      4  C   UNL     1      46.227   5.864  12.370  0.00  0.00    +0.000 A 
ATOM      5  C   UNL     1      45.008   5.692  11.681  0.00  0.00    +0.000 A 
ATOM      6  C   UNL     1      44.320   6.858  11.294  0.00  0.00    +0.000 A 
ENDROOT
BRANCH   3   7
ATOM      7  C   UNL     1      47.966   7.308  13.502  0.00  0.00    +0.000 A 
ATOM      8  C   UNL     1      48.305   6.460  14.562  0.00  0.00    +0.000 A 
ATOM      9  N   UNL     1      49.424   6.595  15.314  0.00  0.00    +0.000 NA
ATOM     10  C   UNL     1      50.221   7.625  14.963  0.00  0.00    +0.000 A 
ATOM     11  C   UNL     1      49.912   8.471  13.913  0.00  0.00    +0.000 A 
ATOM     12  N   UNL     1      48.788   8.335  13.164  0.00  0.00    +0.000 NA
ENDBRANCH   3   7
BRANCH   5  13
ATOM     13  C   UNL     1      44.419   4.323  11.355  0.00  0.00    +0.000 C 
ATOM     14  C   UNL     1      43.448   3.772  12.404  0.00  0.00    +0.000 C 
ATOM     15  C   UNL     1      44.743   3.079  12.153  0.00  0.00    +0.000 C 
BRANCH  13  16
ATOM     16  O   UNL     1      43.935   4.124   9.999  0.00  0.00    +0.000 OA
BRANCH  16  17
ATOM     17  C   UNL     1      44.913   3.801   9.075  0.00  0.00    +0.000 A 
ATOM     18  C   UNL     1      45.165   2.458   8.871  0.00  0.00    +0.000 A 
ATOM     19  C   UNL     1      46.139   2.107   7.946  0.00  0.00    +0.000 A 
ATOM     20  C   UNL     1      46.815   3.122   7.298  0.00  0.00    +0.000 A 
ATOM     21  N   UNL     1      46.572   4.428   7.540  0.00  0.00    +0.000 NA
ATOM     22  N   UNL     1      45.608   4.772   8.443  0.00  0.00    +0.000 NA
ENDBRANCH  16  17
ENDBRANCH  13  16
ENDBRANCH   5  13
TORSDOF 4
ENDMDL
MODEL 5
REMARK VINA RESULT:    -6.603      2.793      6.984
REMARK INTER + INTRA:          -8.496
REMARK INTER:                  -8.281
REMARK INTRA:                  -0.215
REMARK UNBOUND:                -0.350
REMARK  Name = 
REMARK  4 active torsions:
REMARK  status: ('A' for Active; 'I' for Inactive)
REMARK    1  A    between atoms: C_3  and  C_4
REMARK    2  A    between atoms: C_11  and  C_12
REMARK    3  A    between atoms: C_12  and  O_13
REMARK    4  A    between atoms: O_13  and  C_14
REMARK                            x       y       z     vdW  Elec       q    Type
REMARK                         _______ _______ _______ _____ _____    ______ ____
ROOT
ATOM      1  C   UNL     1      48.399   7.301  12.170  0.00  0.00    +0.000 A 
ATOM      2  C   UNL     1      47.265   6.596  11.774  0.00  0.00    +0.000 A 
ATOM      3  C   UNL     1      46.542   5.804  12.680  0.00  0.00    +0.000 A 
ATOM      4  C   UNL     1      46.996   5.763  14.022  0.00  0.00    +0.000 A 
ATOM      5  C   UNL     1      48.156   6.446  14.446  0.00  0.00    +0.000 A 
ATOM      6  C   UNL     1      48.823   7.232  13.488  0.00  0.00    +0.000 A 
ENDROOT
BRANCH   3   7
ATOM      7  C   UNL     1      45.368   5.029  12.234  0.00  0.00    +0.000 A 
ATOM      8  C   UNL     1      44.905   5.059  10.914  0.00  0.00    +0.000 A 
ATOM      9  N   UNL     1      43.818   4.379  10.475  0.00  0.00    +0.000 NA
ATOM     10  C   UNL     1      43.194   3.642  11.416  0.00  0.00    +0.000 A 
ATOM     11  C   UNL     1      43.638   3.589  12.725  0.00  0.00    +0.000 A 
ATOM     12  N   UNL     1      44.725   4.274  13.162  0.00  0.00    +0.000 NA
ENDBRANCH   3   7
BRANCH   5  13
ATOM     13  C   UNL     1      48.702   6.360  15.869  0.00  0.00    +0.000 C 
ATOM     14  C   UNL     1      48.854   7.707  16.583  0.00  0.00    +0.000 C 
ATOM     15  C   UNL     1      50.062   6.897  16.259  0.00  0.00    +0.000 C 
BRANCH  13  16
ATOM     16  O   UNL     1      48.128   5.342  16.731  0.00  0.00    +0.000 OA
BRANCH  16  17
ATOM     17  C   UNL     1      48.839   4.156  16.784  0.00  0.00    +0.000 A 
ATOM     18  C   UNL     1      49.929   4.115  17.633  0.00  0.00    +0.000 A 
ATOM     19  C   UNL     1      50.657   2.935  17.707  0.00  0.00    +0.000 A 
ATOM     20  C   UNL     1      50.264   1.878  16.910  0.00  0.00    +0.000 A 
ATOM     21  N   UNL     1      49.214   1.955  16.065  0.00  0.00    +0.000 NA
ATOM     22  N   UNL     1      48.493   3.112  15.999  0.00  0.00    +0.000 NA
ENDBRANCH  16  17
ENDBRANCH  13  16
ENDBRANCH   5  13
TORSDOF 4
ENDMDL
MODEL 6
REMARK VINA RESULT:    -6.296      3.084      8.254
REMARK INTER + INTRA:          -8.118
REMARK INTER:                  -7.743
REMARK INTRA:                  -0.375
REMARK UNBOUND:                -0.350
REMARK  Name = 
REMARK  4 active torsions:
REMARK  status: ('A' for Active; 'I' for Inactive)
REMARK    1  A    between atoms: C_3  and  C_4
REMARK    2  A    between atoms: C_11  and  C_12
REMARK    3  A    between atoms: C_12  and  O_13
REMARK    4  A    between atoms: O_13  and  C_14
REMARK                            x       y       z     vdW  Elec       q    Type
REMARK                         _______ _______ _______ _____ _____    ______ ____
ROOT
ATOM      1  C   UNL     1      48.107   6.782  14.156  0.00  0.00    +0.000 A 
ATOM      2  C   UNL     1      47.130   6.299  13.289  0.00  0.00    +0.000 A 
ATOM      3  C   UNL     1      46.437   5.108  13.558  0.00  0.00    +0.000 A 
ATOM      4  C   UNL     1      46.751   4.424  14.758  0.00  0.00    +0.000 A 
ATOM      5  C   UNL     1      47.754   4.874  15.643  0.00  0.00    +0.000 A 
ATOM      6  C   UNL     1      48.399   6.082  15.317  0.00  0.00    +0.000 A 
ENDROOT
BRANCH   3   7
ATOM      7  C   UNL     1      45.435   4.589  12.607  0.00  0.00    +0.000 A 
ATOM      8  C   UNL     1      45.261   5.129  11.328  0.00  0.00    +0.000 A 
ATOM      9  N   UNL     1      44.336   4.692  10.439  0.00  0.00    +0.000 NA
ATOM     10  C   UNL     1      43.575   3.666  10.872  0.00  0.00    +0.000 A 
ATOM     11  C   UNL     1      43.735   3.110  12.128  0.00  0.00    +0.000 A 
ATOM     12  N   UNL     1      44.659   3.552  13.018  0.00  0.00    +0.000 NA
ENDBRANCH   3   7
BRANCH   5  13
ATOM     13  C   UNL     1      48.157   4.117  16.904  0.00  0.00    +0.000 C 
ATOM     14  C   UNL     1      48.493   2.638  16.689  0.00  0.00    +0.000 C 
ATOM     15  C   UNL     1      47.308   3.019  17.509  0.00  0.00    +0.000 C 
BRANCH  13  16
ATOM     16  O   UNL     1      49.106   4.773  17.788  0.00  0.00    +0.000 OA
BRANCH  16  17
ATOM     17  C   UNL     1      48.625   5.051  19.054  0.00  0.00    +0.000 A 
ATOM     18  C   UNL     1      47.823   6.168  19.191  0.00  0.00    +0.000 A 
ATOM     19  C   UNL     1      47.324   6.467  20.451  0.00  0.00    +0.000 A 
ATOM     20  C   UNL     1      47.677   5.642  21.501  0.00  0.00    +0.000 A 
ATOM     21  N   UNL     1      48.489   4.575  21.347  0.00  0.00    +0.000 NA
ATOM     22  N   UNL     1      48.972   4.277  20.106  0.00  0.00    +0.000 NA
ENDBRANCH  16  17
ENDBRANCH  13  16
ENDBRANCH   5  13
TORSDOF 4
ENDMDL
MODEL 7
REMARK VINA RESULT:    -6.241      2.478      7.141
REMARK INTER + INTRA:          -8.050
REMARK INTER:                  -7.513
REMARK INTRA:                  -0.537
REMARK UNBOUND:                -0.350
REMARK  Name = 
REMARK  4 active torsions:
REMARK  status: ('A' for Active; 'I' for Inactive)
REMARK    1  A    between atoms: C_3  and  C_4
REMARK    2  A    between atoms: C_11  and  C_12
REMARK    3  A    between atoms: C_12  and  O_13
REMARK    4  A    between atoms: O_13  and  C_14
REMARK                            x       y       z     vdW  Elec       q    Type
REMARK                         _______ _______ _______ _____ _____    ______ ____
ROOT
ATOM      1  C   UNL     1      44.874   8.306  12.153  0.00  0.00    +0.000 A 
ATOM      2  C   UNL     1      44.580   7.172  11.400  0.00  0.00    +0.000 A 
ATOM      3  C   UNL     1      45.576   6.246  11.052  0.00  0.00    +0.000 A 
ATOM      4  C   UNL     1      46.893   6.495  11.515  0.00  0.00    +0.000 A 
ATOM      5  C   UNL     1      47.226   7.647  12.257  0.00  0.00    +0.000 A 
ATOM      6  C   UNL     1      46.175   8.526  12.581  0.00  0.00    +0.000 A 
ENDROOT
BRANCH   3   7
ATOM      7  C   UNL     1      45.255   5.072  10.217  0.00  0.00    +0.000 A 
ATOM      8  C   UNL     1      44.504   3.993  10.694  0.00  0.00    +0.000 A 
ATOM      9  N   UNL     1      44.210   2.891   9.962  0.00  0.00    +0.000 NA
ATOM     10  C   UNL     1      44.695   2.901   8.703  0.00  0.00    +0.000 A 
ATOM     11  C   UNL     1      45.432   3.960   8.207  0.00  0.00    +0.000 A 
ATOM     12  N   UNL     1      45.727   5.061   8.943  0.00  0.00    +0.000 NA
ENDBRANCH   3   7
BRANCH   5  13
ATOM     13  C   UNL     1      48.648   7.970  12.705  0.00  0.00    +0.000 C 
ATOM     14  C   UNL     1      49.445   8.851  11.738  0.00  0.00    +0.000 C 
ATOM     15  C   UNL     1      49.873   7.446  11.987  0.00  0.00    +0.000 C 
BRANCH  13  16
ATOM     16  O   UNL     1      48.823   8.375  14.089  0.00  0.00    +0.000 OA
BRANCH  16  17
ATOM     17  C   UNL     1      49.074   7.339  14.971  0.00  0.00    +0.000 A 
ATOM     18  C   UNL     1      50.152   7.487  15.823  0.00  0.00    +0.000 A 
ATOM     19  C   UNL     1      50.423   6.464  16.721  0.00  0.00    +0.000 A 
ATOM     20  C   UNL     1      49.613   5.345  16.694  0.00  0.00    +0.000 A 
ATOM     21  N   UNL     1      48.585   5.212  15.830  0.00  0.00    +0.000 NA
ATOM     22  N   UNL     1      48.314   6.223  14.953  0.00  0.00    +0.000 NA
ENDBRANCH  16  17
ENDBRANCH  13  16
ENDBRANCH   5  13
TORSDOF 4
ENDMDL
MODEL 8
REMARK VINA RESULT:    -6.060      3.177      7.749
REMARK INTER + INTRA:          -7.827
REMARK INTER:                  -7.950
REMARK INTRA:                   0.123
REMARK UNBOUND:                -0.350
REMARK  Name = 
REMARK  4 active torsions:
REMARK  status: ('A' for Active; 'I' for Inactive)
REMARK    1  A    between atoms: C_3  and  C_4
REMARK    2  A    between atoms: C_11  and  C_12
REMARK    3  A    between atoms: C_12  and  O_13
REMARK    4  A    between atoms: O_13  and  C_14
REMARK                            x       y       z     vdW  Elec       q    Type
REMARK                         _______ _______ _______ _____ _____    ______ ____
ROOT
ATOM      1  C   UNL     1      48.393   6.605  14.880  0.00  0.00    +0.000 A 
ATOM      2  C   UNL     1      47.493   6.306  13.860  0.00  0.00    +0.000 A 
ATOM      3  C   UNL     1      46.840   5.065  13.800  0.00  0.00    +0.000 A 
ATOM      4  C   UNL     1      47.113   4.130  14.830  0.00  0.00    +0.000 A 
ATOM      5  C   UNL     1      48.038   4.395  15.862  0.00  0.00    +0.000 A 
ATOM      6  C   UNL     1      48.646   5.664  15.868  0.00  0.00    +0.000 A 
ENDROOT
BRANCH   3   7
ATOM      7  C   UNL     1      45.923   4.749  12.688  0.00  0.00    +0.000 A 
ATOM      8  C   UNL     1      45.645   5.658  11.661  0.00  0.00    +0.000 A 
ATOM      9  N   UNL     1      44.792   5.410  10.638  0.00  0.00    +0.000 NA
ATOM     10  C   UNL     1      44.213   4.192  10.666  0.00  0.00    +0.000 A 
ATOM     11  C   UNL     1      44.478   3.274  11.666  0.00  0.00    +0.000 A 
ATOM     12  N   UNL     1      45.331   3.526  12.691  0.00  0.00    +0.000 NA
ENDBRANCH   3   7
BRANCH   5  13
ATOM     13  C   UNL     1      48.399   3.378  16.941  0.00  0.00    +0.000 C 
ATOM     14  C   UNL     1      47.226   2.917  17.811  0.00  0.00    +0.000 C 
ATOM     15  C   UNL     1      48.342   3.695  18.419  0.00  0.00    +0.000 C 
BRANCH  13  16
ATOM     16  O   UNL     1      49.255   2.273  16.541  0.00  0.00    +0.000 OA
BRANCH  16  17
ATOM     17  C   UNL     1      50.490   2.239  17.163  0.00  0.00    +0.000 A 
ATOM     18  C   UNL     1      51.070   3.454  17.473  0.00  0.00    +0.000 A 
ATOM     19  C   UNL     1      52.308   3.448  18.102  0.00  0.00    +0.000 A 
ATOM     20  C   UNL     1      52.898   2.226  18.360  0.00  0.00    +0.000 A 
ATOM     21  N   UNL     1      52.324   1.054  18.018  0.00  0.00    +0.000 NA
ATOM     22  N   UNL     1      51.103   1.061  17.407  0.00  0.00    +0.000 NA
ENDBRANCH  16  17
ENDBRANCH  13  16
ENDBRANCH   5  13
TORSDOF 4
ENDMDL
MODEL 9
REMARK VINA RESULT:    -5.576      3.217      7.584
REMARK INTER + INTRA:          -7.230
REMARK INTER:                  -6.879
REMARK INTRA:                  -0.351
REMARK UNBOUND:                -0.350
REMARK  Name = 
REMARK  4 active torsions:
REMARK  status: ('A' for Active; 'I' for Inactive)
REMARK    1  A    between atoms: C_3  and  C_4
REMARK    2  A    between atoms: C_11  and  C_12
REMARK    3  A    between atoms: C_12  and  O_13
REMARK    4  A    between atoms: O_13  and  C_14
REMARK                            x       y       z     vdW  Elec       q    Type
REMARK                         _______ _______ _______ _____ _____    ______ ____
ROOT
ATOM      1  C   UNL     1      50.290   7.826  14.231  0.00  0.00    +0.000 A 
ATOM      2  C   UNL     1      49.258   7.391  13.403  0.00  0.00    +0.000 A 
ATOM      3  C   UNL     1      48.238   6.555  13.883  0.00  0.00    +0.000 A 
ATOM      4  C   UNL     1      48.283   6.184  15.250  0.00  0.00    +0.000 A 
ATOM      5  C   UNL     1      49.329   6.588  16.106  0.00  0.00    +0.000 A 
ATOM      6  C   UNL     1      50.312   7.437  15.562  0.00  0.00    +0.000 A 
ENDROOT
BRANCH   3   7
ATOM      7  C   UNL     1      47.176   6.069  12.980  0.00  0.00    +0.000 A 
ATOM      8  C   UNL     1      46.952   6.623  11.715  0.00  0.00    +0.000 A 
ATOM      9  N   UNL     1      45.973   6.216  10.871  0.00  0.00    +0.000 NA
ATOM     10  C   UNL     1      45.206   5.209  11.337  0.00  0.00    +0.000 A 
ATOM     11  C   UNL     1      45.414   4.640  12.580  0.00  0.00    +0.000 A 
ATOM     12  N   UNL     1      46.394   5.051  13.424  0.00  0.00    +0.000 NA
ENDBRANCH   3   7
BRANCH   5  13
ATOM     13  C   UNL     1      49.435   6.144  17.562  0.00  0.00    +0.000 C 
ATOM     14  C   UNL     1      49.090   7.223  18.592  0.00  0.00    +0.000 C 
ATOM     15  C   UNL     1      50.479   6.690  18.512  0.00  0.00    +0.000 C 
BRANCH  13  16
ATOM     16  O   UNL     1      48.853   4.856  17.898  0.00  0.00    +0.000 OA
BRANCH  16  17
ATOM     17  C   UNL     1      49.627   3.761  17.557  0.00  0.00    +0.000 A 
ATOM     18  C   UNL     1      50.894   3.691  18.105  0.00  0.00    +0.000 A 
ATOM     19  C   UNL     1      51.689   2.600  17.781  0.00  0.00    +0.000 A 
ATOM     20  C   UNL     1      51.175   1.658  16.911  0.00  0.00    +0.000 A 
ATOM     21  N   UNL     1      49.946   1.766  16.364  0.00  0.00    +0.000 NA
ATOM     22  N   UNL     1      49.162   2.835  16.690  0.00  0.00    +0.000 NA
ENDBRANCH  16  17
ENDBRANCH  13  16
ENDBRANCH   5  13
TORSDOF 4
ENDMDL
