MODEL 1
REMARK VINA RESULT:    -7.619      0.000      0.000
REMARK INTER + INTRA:         -11.613
REMARK INTER:                 -10.736
REMARK INTRA:                  -0.877
REMARK UNBOUND:                -0.877
REMARK  Name = 
REMARK  8 active torsions:
REMARK  status: ('A' for Active; 'I' for Inactive)
REMARK    1  A    between atoms: C_1  and  N_2
REMARK    2  A    between atoms: N_2  and  C_3
REMARK    3  A    between atoms: C_3  and  C_4
REMARK    4  A    between atoms: C_8  and  C_9
REMARK    5  A    between atoms: C_9  and  C_10
REMARK    6  A    between atoms: C_13  and  C_14
REMARK    7  A    between atoms: C_14  and  N_15
REMARK    8  A    between atoms: C_16  and  C_18
REMARK                            x       y       z     vdW  Elec       q    Type
REMARK                         _______ _______ _______ _____ _____    ______ ____
ROOT
ATOM      1  C   UNL     1      44.494   6.105  11.312  0.00  0.00    +0.000 A 
ATOM      2  C   UNL     1      44.418   7.503  11.388  0.00  0.00    +0.000 A 
ATOM      3  C   UNL     1      45.325   8.226  12.168  0.00  0.00    +0.000 A 
ATOM      4  C   UNL     1      46.320   7.564  12.898  0.00  0.00    +0.000 A 
ATOM      5  C   UNL     1      46.344   6.164  12.886  0.00  0.00    +0.000 A 
ATOM      6  C   UNL     1      45.450   5.440  12.090  0.00  0.00    +0.000 A 
ENDROOT
BRANCH   1   7
ATOM      7  C   UNL     1      43.589   5.336  10.375  0.00  0.00    +0.000 C 
BRANCH   7  12
ATOM      8  C   UNL     1      45.806   3.523   8.028  0.00  0.00    +0.000 A 
ATOM      9  C   UNL     1      45.639   2.182   8.363  0.00  0.00    +0.000 A 
ATOM     10  C   UNL     1      44.727   1.852   9.356  0.00  0.00    +0.000 A 
ATOM     11  C   UNL     1      44.026   2.866   9.999  0.00  0.00    +0.000 A 
ATOM     12  C   UNL     1      44.258   4.193   9.637  0.00  0.00    +0.000 A 
ATOM     13  N   UNL     1      45.139   4.526   8.658  0.00  0.00    +0.000 NA
BRANCH   8  14
ATOM     14  C   UNL     1      46.713   3.906   6.875  0.00  0.00    +0.000 C 
BRANCH  14  16
ATOM     15  C   UNL     1      47.605   2.393   5.204  0.00  0.00    +0.000 C 
ATOM     16  N   UNL     1      47.753   2.904   6.565  0.00  0.00    +0.000 NA
ATOM     17  H   UNL     1      48.660   3.359   6.644  0.00  0.00    +0.000 HD
ENDBRANCH  14  16
ENDBRANCH   8  14
ENDBRANCH   7  12
ENDBRANCH   1   7
BRANCH   4  18
ATOM     18  C   UNL     1      47.348   8.335  13.684  0.00  0.00    +0.000 C 
BRANCH  18  19
ATOM     19  N   UNL     1      47.726   7.645  14.891  0.00  0.00    +0.000 N 
ATOM     20  C   UNL     1      48.884   6.913  14.950  0.00  0.00    +0.000 C 
ATOM     21  O   UNL     1      49.669   6.856  14.006  0.00  0.00    +0.000 OA
ATOM     22  H   UNL     1      46.992   7.473  15.571  0.00  0.00    +0.000 HD
BRANCH  20  23
ATOM     23  C   UNL     1      49.173   6.244  16.224  0.00  0.00    +0.000 A 
ATOM     24  C   UNL     1      50.168   6.742  17.055  0.00  0.00    +0.000 A 
ATOM     25  S   UNL     1      50.355   5.861  18.503  0.00  0.00    +0.000 S 
ATOM     26  C   UNL     1      49.143   4.756  18.051  0.00  0.00    +0.000 A 
ATOM     27  N   UNL     1      48.821   3.705  18.851  0.00  0.00    +0.000 NA
ATOM     28  C   UNL     1      47.901   2.934  18.376  0.00  0.00    +0.000 A 
ATOM     29  N   UNL     1      47.269   3.124  17.175  0.00  0.00    +0.000 N 
ATOM     30  C   UNL     1      47.542   4.181  16.346  0.00  0.00    +0.000 A 
ATOM     31  O   UNL     1      46.925   4.347  15.296  0.00  0.00    +0.000 OA
ATOM     32  C   UNL     1      48.584   5.072  16.824  0.00  0.00    +0.000 A 
ATOM     33  H   UNL     1      46.545   2.491  16.866  0.00  0.00    +0.000 HD
ENDBRANCH  20  23
ENDBRANCH  18  19
ENDBRANCH   4  18
TORSDOF 7
ENDMDL
MODEL 2
REMARK VINA RESULT:    -7.276      1.985      2.359
REMARK INTER + INTRA:         -11.131
REMARK INTER:                 -10.037
REMARK INTRA:                  -1.094
REMARK UNBOUND:                -0.877
REMARK  Name = 
REMARK  8 active torsions:
REMARK  status: ('A' for Active; 'I' for Inactive)
REMARK    1  A    between atoms: C_1  and  N_2
REMARK    2  A    between atoms: N_2  and  C_3
REMARK    3  A    between atoms: C_3  and  C_4
REMARK    4  A    between atoms: C_8  and  C_9
REMARK    5  A    between atoms: C_9  and  C_10
REMARK    6  A    between atoms: C_13  and  C_14
REMARK    7  A    between atoms: C_14  and  N_15
REMARK    8  A    between atoms: C_16  and  C_18
REMARK                            x       y       z     vdW  Elec       q    Type
REMARK                         _______ _______ _______ _____ _____    ______ ____
ROOT
ATOM      1  C   UNL     1      45.049   5.739  11.447  0.00  0.00    +0.000 A 
ATOM      2  C   UNL     1      45.410   7.092  11.366  0.00  0.00    +0.000 A 
ATOM      3  C   UNL     1      46.401   7.618  12.199  0.00  0.00    +0.000 A 
ATOM      4  C   UNL     1      47.043   6.804  13.140  0.00  0.00    +0.000 A 
ATOM      5  C   UNL     1      46.626   5.473  13.276  0.00  0.00    +0.000 A 
ATOM      6  C   UNL     1      45.649   4.940  12.428  0.00  0.00    +0.000 A 
ENDROOT
BRANCH   1   7
ATOM      7  C   UNL     1      44.064   5.146  10.464  0.00  0.00    +0.000 C 
BRANCH   7  12
ATOM      8  C   UNL     1      46.040   3.385   7.874  0.00  0.00    +0.000 A 
ATOM      9  C   UNL     1      45.791   2.036   8.109  0.00  0.00    +0.000 A 
ATOM     10  C   UNL     1      44.901   1.688   9.116  0.00  0.00    +0.000 A 
ATOM     11  C   UNL     1      44.304   2.691   9.871  0.00  0.00    +0.000 A 
ATOM     12  C   UNL     1      44.616   4.025   9.605  0.00  0.00    +0.000 A 
ATOM     13  N   UNL     1      45.475   4.376   8.614  0.00  0.00    +0.000 NA
BRANCH   8  14
ATOM     14  C   UNL     1      46.922   3.799   6.712  0.00  0.00    +0.000 C 
BRANCH  14  16
ATOM     15  C   UNL     1      47.636   2.207   5.029  0.00  0.00    +0.000 C 
ATOM     16  N   UNL     1      47.935   2.793   6.334  0.00  0.00    +0.000 NA
ATOM     17  H   UNL     1      48.837   3.262   6.280  0.00  0.00    +0.000 HD
ENDBRANCH  14  16
ENDBRANCH   8  14
ENDBRANCH   7  12
ENDBRANCH   1   7
BRANCH   4  18
ATOM     18  C   UNL     1      48.163   7.339  13.994  0.00  0.00    +0.000 C 
BRANCH  18  19
ATOM     19  N   UNL     1      48.039   6.917  15.366  0.00  0.00    +0.000 N 
ATOM     20  C   UNL     1      49.132   6.473  16.067  0.00  0.00    +0.000 C 
ATOM     21  O   UNL     1      50.261   6.467  15.581  0.00  0.00    +0.000 OA
ATOM     22  H   UNL     1      47.108   6.678  15.691  0.00  0.00    +0.000 HD
BRANCH  20  23
ATOM     23  C   UNL     1      48.897   6.060  17.455  0.00  0.00    +0.000 A 
ATOM     24  C   UNL     1      49.169   4.754  17.842  0.00  0.00    +0.000 A 
ATOM     25  S   UNL     1      48.862   4.451  19.491  0.00  0.00    +0.000 S 
ATOM     26  C   UNL     1      48.312   6.042  19.737  0.00  0.00    +0.000 A 
ATOM     27  N   UNL     1      47.858   6.445  20.955  0.00  0.00    +0.000 NA
ATOM     28  C   UNL     1      47.451   7.669  20.994  0.00  0.00    +0.000 A 
ATOM     29  N   UNL     1      47.464   8.529  19.927  0.00  0.00    +0.000 N 
ATOM     30  C   UNL     1      47.933   8.177  18.688  0.00  0.00    +0.000 A 
ATOM     31  O   UNL     1      47.973   8.985  17.765  0.00  0.00    +0.000 OA
ATOM     32  C   UNL     1      48.388   6.802  18.582  0.00  0.00    +0.000 A 
ATOM     33  H   UNL     1      47.144   9.483  20.028  0.00  0.00    +0.000 HD
ENDBRANCH  20  23
ENDBRANCH  18  19
ENDBRANCH   4  18
TORSDOF 7
ENDMDL
MODEL 3
REMARK VINA RESULT:    -7.071      3.428      7.929
REMARK INTER + INTRA:         -10.842
REMARK INTER:                  -9.195
REMARK INTRA:                  -1.647
REMARK UNBOUND:                -0.877
REMARK  Name = 
REMARK  8 active torsions:
REMARK  status: ('A' for Active; 'I' for Inactive)
REMARK    1  A    between atoms: C_1  and  N_2
REMARK    2  A    between atoms: N_2  and  C_3
REMARK    3  A    between atoms: C_3  and  C_4
REMARK    4  A    between atoms: C_8  and  C_9
REMARK    5  A    between atoms: C_9  and  C_10
REMARK    6  A    between atoms: C_13  and  C_14
REMARK    7  A    between atoms: C_14  and  N_15
REMARK    8  A    between atoms: C_16  and  C_18
REMARK                            x       y       z     vdW  Elec       q    Type
REMARK                         _______ _______ _______ _____ _____    ______ ____
ROOT
ATOM      1  C   UNL     1      50.983   6.513  17.460  0.00  0.00    +0.000 A 
ATOM      2  C   UNL     1      49.795   7.047  17.977  0.00  0.00    +0.000 A 
ATOM      3  C   UNL     1      48.960   7.836  17.181  0.00  0.00    +0.000 A 
ATOM      4  C   UNL     1      49.303   8.118  15.853  0.00  0.00    +0.000 A 
ATOM      5  C   UNL     1      50.530   7.651  15.361  0.00  0.00    +0.000 A 
ATOM      6  C   UNL     1      51.356   6.844  16.151  0.00  0.00    +0.000 A 
ENDROOT
BRANCH   1   7
ATOM      7  C   UNL     1      51.823   5.563  18.284  0.00  0.00    +0.000 C 
BRANCH   7  12
ATOM      8  C   UNL     1      50.202   2.447  17.114  0.00  0.00    +0.000 A 
ATOM      9  C   UNL     1      51.183   1.470  17.263  0.00  0.00    +0.000 A 
ATOM     10  C   UNL     1      52.403   1.832  17.818  0.00  0.00    +0.000 A 
ATOM     11  C   UNL     1      52.616   3.155  18.187  0.00  0.00    +0.000 A 
ATOM     12  C   UNL     1      51.602   4.092  17.987  0.00  0.00    +0.000 A 
ATOM     13  N   UNL     1      50.401   3.747  17.456  0.00  0.00    +0.000 NA
BRANCH   8  14
ATOM     14  C   UNL     1      48.824   2.061  16.612  0.00  0.00    +0.000 C 
BRANCH  14  16
ATOM     15  C   UNL     1      47.099   3.705  17.056  0.00  0.00    +0.000 C 
ATOM     16  N   UNL     1      48.042   3.187  16.066  0.00  0.00    +0.000 NA
ATOM     17  H   UNL     1      48.692   3.931  15.819  0.00  0.00    +0.000 HD
ENDBRANCH  14  16
ENDBRANCH   8  14
ENDBRANCH   7  12
ENDBRANCH   1   7
BRANCH   4  18
ATOM     18  C   UNL     1      48.378   8.905  14.962  0.00  0.00    +0.000 C 
BRANCH  18  19
ATOM     19  N   UNL     1      47.371   8.067  14.364  0.00  0.00    +0.000 N 
ATOM     20  C   UNL     1      47.140   8.101  13.012  0.00  0.00    +0.000 C 
ATOM     21  O   UNL     1      47.810   8.797  12.253  0.00  0.00    +0.000 OA
ATOM     22  H   UNL     1      46.658   7.691  14.982  0.00  0.00    +0.000 HD
BRANCH  20  23
ATOM     23  C   UNL     1      46.087   7.213  12.504  0.00  0.00    +0.000 A 
ATOM     24  C   UNL     1      45.018   7.746  11.795  0.00  0.00    +0.000 A 
ATOM     25  S   UNL     1      43.901   6.575  11.258  0.00  0.00    +0.000 S 
ATOM     26  C   UNL     1      44.782   5.319  11.993  0.00  0.00    +0.000 A 
ATOM     27  N   UNL     1      44.344   4.032  11.940  0.00  0.00    +0.000 NA
ATOM     28  C   UNL     1      45.097   3.186  12.558  0.00  0.00    +0.000 A 
ATOM     29  N   UNL     1      46.253   3.509  13.220  0.00  0.00    +0.000 N 
ATOM     30  C   UNL     1      46.747   4.786  13.281  0.00  0.00    +0.000 A 
ATOM     31  O   UNL     1      47.810   5.035  13.844  0.00  0.00    +0.000 OA
ATOM     32  C   UNL     1      45.928   5.784  12.616  0.00  0.00    +0.000 A 
ATOM     33  H   UNL     1      46.807   2.795  13.672  0.00  0.00    +0.000 HD
ENDBRANCH  20  23
ENDBRANCH  18  19
ENDBRANCH   4  18
TORSDOF 7
ENDMDL
MODEL 4
REMARK VINA RESULT:    -7.027      4.598      9.755
REMARK INTER + INTRA:         -10.780
REMARK INTER:                  -9.955
REMARK INTRA:                  -0.824
REMARK UNBOUND:                -0.877
REMARK  Name = 
REMARK  8 active torsions:
REMARK  status: ('A' for Active; 'I' for Inactive)
REMARK    1  A    between atoms: C_1  and  N_2
REMARK    2  A    between atoms: N_2  and  C_3
REMARK    3  A    between atoms: C_3  and  C_4
REMARK    4  A    between atoms: C_8  and  C_9
REMARK    5  A    between atoms: C_9  and  C_10
REMARK    6  A    between atoms: C_13  and  C_14
REMARK    7  A    between atoms: C_14  and  N_15
REMARK    8  A    between atoms: C_16  and  C_18
REMARK                            x       y       z     vdW  Elec       q    Type
REMARK                         _______ _______ _______ _____ _____    ______ ____
ROOT
ATOM      1  C   UNL     1      51.828   3.006  17.956  0.00  0.00    +0.000 A 
ATOM      2  C   UNL     1      51.162   1.992  17.255  0.00  0.00    +0.000 A 
ATOM      3  C   UNL     1      49.791   2.079  17.003  0.00  0.00    +0.000 A 
ATOM      4  C   UNL     1      49.053   3.180  17.458  0.00  0.00    +0.000 A 
ATOM      5  C   UNL     1      49.704   4.153  18.228  0.00  0.00    +0.000 A 
ATOM      6  C   UNL     1      51.081   4.077  18.463  0.00  0.00    +0.000 A 
ENDROOT
BRANCH   1   7
ATOM      7  C   UNL     1      53.331   2.967  18.123  0.00  0.00    +0.000 C 
BRANCH   7  12
ATOM      8  C   UNL     1      54.239  -0.606  18.473  0.00  0.00    +0.000 A 
ATOM      9  C   UNL     1      54.955  -0.895  17.314  0.00  0.00    +0.000 A 
ATOM     10  C   UNL     1      55.198   0.129  16.409  0.00  0.00    +0.000 A 
ATOM     11  C   UNL     1      54.704   1.402  16.674  0.00  0.00    +0.000 A 
ATOM     12  C   UNL     1      53.970   1.621  17.840  0.00  0.00    +0.000 A 
ATOM     13  N   UNL     1      53.738   0.629  18.738  0.00  0.00    +0.000 NA
BRANCH   8  14
ATOM     14  C   UNL     1      54.052  -1.676  19.531  0.00  0.00    +0.000 C 
BRANCH  14  16
ATOM     15  C   UNL     1      53.024  -3.856  19.271  0.00  0.00    +0.000 C 
ATOM     16  N   UNL     1      52.783  -2.422  19.417  0.00  0.00    +0.000 NA
ATOM     17  H   UNL     1      52.251  -2.269  20.272  0.00  0.00    +0.000 HD
ENDBRANCH  14  16
ENDBRANCH   8  14
ENDBRANCH   7  12
ENDBRANCH   1   7
BRANCH   4  18
ATOM     18  C   UNL     1      47.590   3.323  17.130  0.00  0.00    +0.000 C 
BRANCH  18  19
ATOM     19  N   UNL     1      47.351   4.408  16.213  0.00  0.00    +0.000 N 
ATOM     20  C   UNL     1      47.275   4.182  14.861  0.00  0.00    +0.000 C 
ATOM     21  O   UNL     1      47.351   3.053  14.383  0.00  0.00    +0.000 OA
ATOM     22  H   UNL     1      47.537   5.346  16.551  0.00  0.00    +0.000 HD
BRANCH  20  23
ATOM     23  C   UNL     1      47.035   5.355  14.013  0.00  0.00    +0.000 A 
ATOM     24  C   UNL     1      47.975   6.377  13.967  0.00  0.00    +0.000 A 
ATOM     25  S   UNL     1      47.551   7.650  12.915  0.00  0.00    +0.000 S 
ATOM     26  C   UNL     1      46.075   6.903  12.519  0.00  0.00    +0.000 A 
ATOM     27  N   UNL     1      45.195   7.499  11.668  0.00  0.00    +0.000 NA
ATOM     28  C   UNL     1      44.107   6.833  11.474  0.00  0.00    +0.000 A 
ATOM     29  N   UNL     1      43.822   5.621  12.047  0.00  0.00    +0.000 N 
ATOM     30  C   UNL     1      44.686   4.971  12.890  0.00  0.00    +0.000 A 
ATOM     31  O   UNL     1      44.419   3.864  13.351  0.00  0.00    +0.000 OA
ATOM     32  C   UNL     1      45.921   5.685  13.159  0.00  0.00    +0.000 A 
ATOM     33  H   UNL     1      42.956   5.143  11.841  0.00  0.00    +0.000 HD
ENDBRANCH  20  23
ENDBRANCH  18  19
ENDBRANCH   4  18
TORSDOF 7
ENDMDL
MODEL 5
REMARK VINA RESULT:    -6.992      1.561      2.582
REMARK INTER + INTRA:         -10.731
REMARK INTER:                  -9.380
REMARK INTRA:                  -1.351
REMARK UNBOUND:                -0.877
REMARK  Name = 
REMARK  8 active torsions:
REMARK  status: ('A' for Active; 'I' for Inactive)
REMARK    1  A    between atoms: C_1  and  N_2
REMARK    2  A    between atoms: N_2  and  C_3
REMARK    3  A    between atoms: C_3  and  C_4
REMARK    4  A    between atoms: C_8  and  C_9
REMARK    5  A    between atoms: C_9  and  C_10
REMARK    6  A    between atoms: C_13  and  C_14
REMARK    7  A    between atoms: C_14  and  N_15
REMARK    8  A    between atoms: C_16  and  C_18
REMARK                            x       y       z     vdW  Elec       q    Type
REMARK                         _______ _______ _______ _____ _____    ______ ____
ROOT
ATOM      1  C   UNL     1      45.833   7.618  11.930  0.00  0.00    +0.000 A 
ATOM      2  C   UNL     1      46.984   6.825  11.825  0.00  0.00    +0.000 A 
ATOM      3  C   UNL     1      48.139   7.143  12.543  0.00  0.00    +0.000 A 
ATOM      4  C   UNL     1      48.172   8.269  13.375  0.00  0.00    +0.000 A 
ATOM      5  C   UNL     1      47.049   9.106  13.418  0.00  0.00    +0.000 A 
ATOM      6  C   UNL     1      45.885   8.778  12.715  0.00  0.00    +0.000 A 
ENDROOT
BRANCH   1   7
ATOM      7  C   UNL     1      44.549   7.206  11.246  0.00  0.00    +0.000 C 
BRANCH   7  12
ATOM      8  C   UNL     1      44.186   3.583  10.573  0.00  0.00    +0.000 A 
ATOM      9  C   UNL     1      43.658   3.064  11.752  0.00  0.00    +0.000 A 
ATOM     10  C   UNL     1      43.357   3.938  12.788  0.00  0.00    +0.000 A 
ATOM     11  C   UNL     1      43.611   5.295  12.627  0.00  0.00    +0.000 A 
ATOM     12  C   UNL     1      44.166   5.750  11.431  0.00  0.00    +0.000 A 
ATOM     13  N   UNL     1      44.453   4.905  10.406  0.00  0.00    +0.000 NA
BRANCH   8  14
ATOM     14  C   UNL     1      44.422   2.669   9.386  0.00  0.00    +0.000 C 
BRANCH  14  16
ATOM     15  C   UNL     1      45.698   3.317   7.430  0.00  0.00    +0.000 C 
ATOM     16  N   UNL     1      44.390   3.354   8.079  0.00  0.00    +0.000 NA
ATOM     17  H   UNL     1      43.719   2.868   7.486  0.00  0.00    +0.000 HD
ENDBRANCH  14  16
ENDBRANCH   8  14
ENDBRANCH   7  12
ENDBRANCH   1   7
BRANCH   4  18
ATOM     18  C   UNL     1      49.385   8.582  14.211  0.00  0.00    +0.000 C 
BRANCH  18  19
ATOM     19  N   UNL     1      49.452   7.753  15.387  0.00  0.00    +0.000 N 
ATOM     20  C   UNL     1      48.865   8.150  16.562  0.00  0.00    +0.000 C 
ATOM     21  O   UNL     1      48.217   9.190  16.649  0.00  0.00    +0.000 OA
ATOM     22  H   UNL     1      50.175   7.041  15.407  0.00  0.00    +0.000 HD
BRANCH  20  23
ATOM     23  C   UNL     1      48.998   7.236  17.702  0.00  0.00    +0.000 A 
ATOM     24  C   UNL     1      49.445   7.718  18.925  0.00  0.00    +0.000 A 
ATOM     25  S   UNL     1      49.517   6.530  20.146  0.00  0.00    +0.000 S 
ATOM     26  C   UNL     1      48.996   5.319  19.072  0.00  0.00    +0.000 A 
ATOM     27  N   UNL     1      48.872   4.026  19.480  0.00  0.00    +0.000 NA
ATOM     28  C   UNL     1      48.490   3.209  18.558  0.00  0.00    +0.000 A 
ATOM     29  N   UNL     1      48.212   3.568  17.264  0.00  0.00    +0.000 N 
ATOM     30  C   UNL     1      48.298   4.859  16.812  0.00  0.00    +0.000 A 
ATOM     31  O   UNL     1      47.999   5.155  15.658  0.00  0.00    +0.000 OA
ATOM     32  C   UNL     1      48.743   5.820  17.806  0.00  0.00    +0.000 A 
ATOM     33  H   UNL     1      47.901   2.880  16.593  0.00  0.00    +0.000 HD
ENDBRANCH  20  23
ENDBRANCH  18  19
ENDBRANCH   4  18
TORSDOF 7
ENDMDL
MODEL 6
REMARK VINA RESULT:    -6.928      2.923      8.474
REMARK INTER + INTRA:         -10.640
REMARK INTER:                  -9.383
REMARK INTRA:                  -1.257
REMARK UNBOUND:                -0.877
REMARK  Name = 
REMARK  8 active torsions:
REMARK  status: ('A' for Active; 'I' for Inactive)
REMARK    1  A    between atoms: C_1  and  N_2
REMARK    2  A    between atoms: N_2  and  C_3
REMARK    3  A    between atoms: C_3  and  C_4
REMARK    4  A    between atoms: C_8  and  C_9
REMARK    5  A    between atoms: C_9  and  C_10
REMARK    6  A    between atoms: C_13  and  C_14
REMARK    7  A    between atoms: C_14  and  N_15
REMARK    8  A    between atoms: C_16  and  C_18
REMARK                            x       y       z     vdW  Elec       q    Type
REMARK                         _______ _______ _______ _____ _____    ______ ____
ROOT
ATOM      1  C   UNL     1      49.302   8.174  15.700  0.00  0.00    +0.000 A 
ATOM      2  C   UNL     1      48.163   8.904  15.330  0.00  0.00    +0.000 A 
ATOM      3  C   UNL     1      47.652   8.820  14.033  0.00  0.00    +0.000 A 
ATOM      4  C   UNL     1      48.276   8.012  13.074  0.00  0.00    +0.000 A 
ATOM      5  C   UNL     1      49.459   7.347  13.421  0.00  0.00    +0.000 A 
ATOM      6  C   UNL     1      49.961   7.415  14.725  0.00  0.00    +0.000 A 
ENDROOT
BRANCH   1   7
ATOM      7  C   UNL     1      49.782   8.174  17.135  0.00  0.00    +0.000 C 
BRANCH   7  12
ATOM      8  C   UNL     1      48.062   5.299  18.711  0.00  0.00    +0.000 A 
ATOM      9  C   UNL     1      47.518   5.822  19.881  0.00  0.00    +0.000 A 
ATOM     10  C   UNL     1      47.671   7.177  20.139  0.00  0.00    +0.000 A 
ATOM     11  C   UNL     1      48.378   7.964  19.237  0.00  0.00    +0.000 A 
ATOM     12  C   UNL     1      48.923   7.375  18.096  0.00  0.00    +0.000 A 
ATOM     13  N   UNL     1      48.768   6.053  17.828  0.00  0.00    +0.000 NA
BRANCH   8  14
ATOM     14  C   UNL     1      47.818   3.846  18.349  0.00  0.00    +0.000 C 
BRANCH  14  16
ATOM     15  C   UNL     1      47.689   3.247  16.003  0.00  0.00    +0.000 C 
ATOM     16  N   UNL     1      46.931   3.654  17.185  0.00  0.00    +0.000 NA
ATOM     17  H   UNL     1      46.267   2.917  17.414  0.00  0.00    +0.000 HD
ENDBRANCH  14  16
ENDBRANCH   8  14
ENDBRANCH   7  12
ENDBRANCH   1   7
BRANCH   4  18
ATOM     18  C   UNL     1      47.694   7.855  11.693  0.00  0.00    +0.000 C 
BRANCH  18  19
ATOM     19  N   UNL     1      46.970   6.617  11.556  0.00  0.00    +0.000 N 
ATOM     20  C   UNL     1      45.598   6.599  11.572  0.00  0.00    +0.000 C 
ATOM     21  O   UNL     1      44.933   7.629  11.649  0.00  0.00    +0.000 OA
ATOM     22  H   UNL     1      47.482   5.761  11.745  0.00  0.00    +0.000 HD
BRANCH  20  23
ATOM     23  C   UNL     1      44.958   5.286  11.432  0.00  0.00    +0.000 A 
ATOM     24  C   UNL     1      44.251   4.745  12.498  0.00  0.00    +0.000 A 
ATOM     25  S   UNL     1      43.552   3.228  12.157  0.00  0.00    +0.000 S 
ATOM     26  C   UNL     1      44.207   3.219  10.587  0.00  0.00    +0.000 A 
ATOM     27  N   UNL     1      44.010   2.162   9.753  0.00  0.00    +0.000 NA
ATOM     28  C   UNL     1      44.581   2.278   8.602  0.00  0.00    +0.000 A 
ATOM     29  N   UNL     1      45.326   3.358   8.206  0.00  0.00    +0.000 N 
ATOM     30  C   UNL     1      45.532   4.456   9.001  0.00  0.00    +0.000 A 
ATOM     31  O   UNL     1      46.167   5.428   8.599  0.00  0.00    +0.000 OA
ATOM     32  C   UNL     1      44.926   4.371  10.318  0.00  0.00    +0.000 A 
ATOM     33  H   UNL     1      45.735   3.394   7.282  0.00  0.00    +0.000 HD
ENDBRANCH  20  23
ENDBRANCH  18  19
ENDBRANCH   4  18
TORSDOF 7
ENDMDL
MODEL 7
REMARK VINA RESULT:    -6.898      2.338      3.257
REMARK INTER + INTRA:         -10.598
REMARK INTER:                  -9.592
REMARK INTRA:                  -1.006
REMARK UNBOUND:                -0.877
REMARK  Name = 
REMARK  8 active torsions:
REMARK  status: ('A' for Active; 'I' for Inactive)
REMARK    1  A    between atoms: C_1  and  N_2
REMARK    2  A    between atoms: N_2  and  C_3
REMARK    3  A    between atoms: C_3  and  C_4
REMARK    4  A    between atoms: C_8  and  C_9
REMARK    5  A    between atoms: C_9  and  C_10
REMARK    6  A    between atoms: C_13  and  C_14
REMARK    7  A    between atoms: C_14  and  N_15
REMARK    8  A    between atoms: C_16  and  C_18
REMARK                            x       y       z     vdW  Elec       q    Type
REMARK                         _______ _______ _______ _____ _____    ______ ____
ROOT
ATOM      1  C   UNL     1      46.880   6.869  12.621  0.00  0.00    +0.000 A 
ATOM      2  C   UNL     1      46.886   8.194  13.078  0.00  0.00    +0.000 A 
ATOM      3  C   UNL     1      47.640   8.561  14.195  0.00  0.00    +0.000 A 
ATOM      4  C   UNL     1      48.395   7.606  14.888  0.00  0.00    +0.000 A 
ATOM      5  C   UNL     1      48.324   6.267  14.479  0.00  0.00    +0.000 A 
ATOM      6  C   UNL     1      47.586   5.903  13.348  0.00  0.00    +0.000 A 
ENDROOT
BRANCH   1   7
ATOM      7  C   UNL     1      46.160   6.500  11.342  0.00  0.00    +0.000 C 
BRANCH   7  12
ATOM      8  C   UNL     1      44.382   3.337  10.601  0.00  0.00    +0.000 A 
ATOM      9  C   UNL     1      43.562   3.135  11.708  0.00  0.00    +0.000 A 
ATOM     10  C   UNL     1      43.547   4.096  12.711  0.00  0.00    +0.000 A 
ATOM     11  C   UNL     1      44.364   5.215  12.591  0.00  0.00    +0.000 A 
ATOM     12  C   UNL     1      45.184   5.346  11.469  0.00  0.00    +0.000 A 
ATOM     13  N   UNL     1      45.196   4.418  10.477  0.00  0.00    +0.000 NA
BRANCH   8  14
ATOM     14  C   UNL     1      44.338   2.361   9.441  0.00  0.00    +0.000 C 
BRANCH  14  16
ATOM     15  C   UNL     1      46.202   2.192   7.902  0.00  0.00    +0.000 C 
ATOM     16  N   UNL     1      45.628   1.704   9.155  0.00  0.00    +0.000 NA
ATOM     17  H   UNL     1      46.270   1.928   9.914  0.00  0.00    +0.000 HD
ENDBRANCH  14  16
ENDBRANCH   8  14
ENDBRANCH   7  12
ENDBRANCH   1   7
BRANCH   4  18
ATOM     18  C   UNL     1      49.269   8.000  16.049  0.00  0.00    +0.000 C 
BRANCH  18  19
ATOM     19  N   UNL     1      50.228   6.974  16.370  0.00  0.00    +0.000 N 
ATOM     20  C   UNL     1      50.168   6.304  17.565  0.00  0.00    +0.000 C 
ATOM     21  O   UNL     1      49.274   6.507  18.383  0.00  0.00    +0.000 OA
ATOM     22  H   UNL     1      51.094   6.972  15.840  0.00  0.00    +0.000 HD
BRANCH  20  23
ATOM     23  C   UNL     1      51.196   5.282  17.796  0.00  0.00    +0.000 A 
ATOM     24  C   UNL     1      52.453   5.658  18.251  0.00  0.00    +0.000 A 
ATOM     25  S   UNL     1      53.516   4.347  18.489  0.00  0.00    +0.000 S 
ATOM     26  C   UNL     1      52.349   3.233  17.950  0.00  0.00    +0.000 A 
ATOM     27  N   UNL     1      52.632   1.904  17.873  0.00  0.00    +0.000 NA
ATOM     28  C   UNL     1      51.664   1.178  17.426  0.00  0.00    +0.000 A 
ATOM     29  N   UNL     1      50.434   1.658  17.056  0.00  0.00    +0.000 N 
ATOM     30  C   UNL     1      50.094   2.983  17.139  0.00  0.00    +0.000 A 
ATOM     31  O   UNL     1      48.968   3.375  16.843  0.00  0.00    +0.000 OA
ATOM     32  C   UNL     1      51.155   3.852  17.619  0.00  0.00    +0.000 A 
ATOM     33  H   UNL     1      49.712   1.032  16.729  0.00  0.00    +0.000 HD
ENDBRANCH  20  23
ENDBRANCH  18  19
ENDBRANCH   4  18
TORSDOF 7
ENDMDL
MODEL 8
REMARK VINA RESULT:    -6.643      2.083      3.079
REMARK INTER + INTRA:         -10.238
REMARK INTER:                  -9.170
REMARK INTRA:                  -1.068
REMARK UNBOUND:                -0.877
REMARK  Name = 
REMARK  8 active torsions:
REMARK  status: ('A' for Active; 'I' for Inactive)
REMARK    1  A    between atoms: C_1  and  N_2
REMARK    2  A    between atoms: N_2  and  C_3
REMARK    3  A    between atoms: C_3  and  C_4
REMARK    4  A    between atoms: C_8  and  C_9
REMARK    5  A    between atoms: C_9  and  C_10
REMARK    6  A    between atoms: C_13  and  C_14
REMARK    7  A    between atoms: C_14  and  N_15
REMARK    8  A    between atoms: C_16  and  C_18
REMARK                            x       y       z     vdW  Elec       q    Type
REMARK                         _______ _______ _______ _____ _____    ______ ____
ROOT
ATOM      1  C   UNL     1      46.135   7.516  12.256  0.00  0.00    +0.000 A 
ATOM      2  C   UNL     1      47.245   6.752  11.870  0.00  0.00    +0.000 A 
ATOM      3  C   UNL     1      48.479   6.915  12.504  0.00  0.00    +0.000 A 
ATOM      4  C   UNL     1      48.633   7.855  13.530  0.00  0.00    +0.000 A 
ATOM      5  C   UNL     1      47.545   8.675  13.860  0.00  0.00    +0.000 A 
ATOM      6  C   UNL     1      46.303   8.498  13.240  0.00  0.00    +0.000 A 
ENDROOT
BRANCH   1   7
ATOM      7  C   UNL     1      44.773   7.254  11.652  0.00  0.00    +0.000 C 
BRANCH   7  12
ATOM      8  C   UNL     1      44.242   3.746  10.594  0.00  0.00    +0.000 A 
ATOM      9  C   UNL     1      43.706   3.124  11.718  0.00  0.00    +0.000 A 
ATOM     10  C   UNL     1      43.456   3.891  12.848  0.00  0.00    +0.000 A 
ATOM     11  C   UNL     1      43.768   5.246  12.831  0.00  0.00    +0.000 A 
ATOM     12  C   UNL     1      44.329   5.805  11.683  0.00  0.00    +0.000 A 
ATOM     13  N   UNL     1      44.565   5.066  10.568  0.00  0.00    +0.000 NA
BRANCH   8  14
ATOM     14  C   UNL     1      44.423   2.958   9.310  0.00  0.00    +0.000 C 
BRANCH  14  16
ATOM     15  C   UNL     1      46.035   3.220   7.519  0.00  0.00    +0.000 C 
ATOM     16  N   UNL     1      44.841   3.775   8.154  0.00  0.00    +0.000 NA
ATOM     17  H   UNL     1      44.082   3.771   7.476  0.00  0.00    +0.000 HD
ENDBRANCH  14  16
ENDBRANCH   8  14
ENDBRANCH   7  12
ENDBRANCH   1   7
BRANCH   4  18
ATOM     18  C   UNL     1      49.937   7.990  14.271  0.00  0.00    +0.000 C 
BRANCH  18  19
ATOM     19  N   UNL     1      49.732   8.176  15.685  0.00  0.00    +0.000 N 
ATOM     20  C   UNL     1      49.916   7.139  16.565  0.00  0.00    +0.000 C 
ATOM     21  O   UNL     1      50.310   6.035  16.199  0.00  0.00    +0.000 OA
ATOM     22  H   UNL     1      49.177   8.978  15.968  0.00  0.00    +0.000 HD
BRANCH  20  23
ATOM     23  C   UNL     1      49.675   7.432  17.982  0.00  0.00    +0.000 A 
ATOM     24  C   UNL     1      50.423   8.412  18.622  0.00  0.00    +0.000 A 
ATOM     25  S   UNL     1      49.997   8.640  20.257  0.00  0.00    +0.000 S 
ATOM     26  C   UNL     1      48.828   7.408  20.181  0.00  0.00    +0.000 A 
ATOM     27  N   UNL     1      48.102   7.062  21.279  0.00  0.00    +0.000 NA
ATOM     28  C   UNL     1      47.268   6.097  21.085  0.00  0.00    +0.000 A 
ATOM     29  N   UNL     1      47.087   5.451  19.890  0.00  0.00    +0.000 N 
ATOM     30  C   UNL     1      47.776   5.779  18.752  0.00  0.00    +0.000 A 
ATOM     31  O   UNL     1      47.558   5.210  17.685  0.00  0.00    +0.000 OA
ATOM     32  C   UNL     1      48.744   6.849  18.917  0.00  0.00    +0.000 A 
ATOM     33  H   UNL     1      46.404   4.712  19.801  0.00  0.00    +0.000 HD
ENDBRANCH  20  23
ENDBRANCH  18  19
ENDBRANCH   4  18
TORSDOF 7
ENDMDL
MODEL 9
REMARK VINA RESULT:    -6.529      3.846     10.340
REMARK INTER + INTRA:         -10.078
REMARK INTER:                  -9.033
REMARK INTRA:                  -1.045
REMARK UNBOUND:                -0.877
REMARK  Name = 
REMARK  8 active torsions:
REMARK  status: ('A' for Active; 'I' for Inactive)
REMARK    1  A    between atoms: C_1  and  N_2
REMARK    2  A    between atoms: N_2  and  C_3
REMARK    3  A    between atoms: C_3  and  C_4
REMARK    4  A    between atoms: C_8  and  C_9
REMARK    5  A    between atoms: C_9  and  C_10
REMARK    6  A    between atoms: C_13  and  C_14
REMARK    7  A    between atoms: C_14  and  N_15
REMARK    8  A    between atoms: C_16  and  C_18
REMARK                            x       y       z     vdW  Elec       q    Type
REMARK                         _______ _______ _______ _____ _____    ______ ____
ROOT
ATOM      1  C   UNL     1      51.484   3.796  17.716  0.00  0.00    +0.000 A 
ATOM      2  C   UNL     1      50.942   2.542  17.398  0.00  0.00    +0.000 A 
ATOM      3  C   UNL     1      49.576   2.399  17.144  0.00  0.00    +0.000 A 
ATOM      4  C   UNL     1      48.720   3.505  17.215  0.00  0.00    +0.000 A 
ATOM      5  C   UNL     1      49.248   4.740  17.611  0.00  0.00    +0.000 A 
ATOM      6  C   UNL     1      50.619   4.890  17.846  0.00  0.00    +0.000 A 
ENDROOT
BRANCH   1   7
ATOM      7  C   UNL     1      52.978   3.970  17.873  0.00  0.00    +0.000 C 
BRANCH   7  12
ATOM      8  C   UNL     1      54.147   6.185  20.600  0.00  0.00    +0.000 A 
ATOM      9  C   UNL     1      54.096   5.387  21.739  0.00  0.00    +0.000 A 
ATOM     10  C   UNL     1      53.718   4.058  21.604  0.00  0.00    +0.000 A 
ATOM     11  C   UNL     1      53.382   3.572  20.345  0.00  0.00    +0.000 A 
ATOM     12  C   UNL     1      53.428   4.430  19.246  0.00  0.00    +0.000 A 
ATOM     13  N   UNL     1      53.808   5.728  19.366  0.00  0.00    +0.000 NA
BRANCH   8  14
ATOM     14  C   UNL     1      54.661   7.609  20.699  0.00  0.00    +0.000 C 
BRANCH  14  16
ATOM     15  C   UNL     1      52.775   9.102  20.402  0.00  0.00    +0.000 C 
ATOM     16  N   UNL     1      53.728   8.543  21.359  0.00  0.00    +0.000 NA
ATOM     17  H   UNL     1      53.210   8.024  22.066  0.00  0.00    +0.000 HD
ENDBRANCH  14  16
ENDBRANCH   8  14
ENDBRANCH   7  12
ENDBRANCH   1   7
BRANCH   4  18
ATOM     18  C   UNL     1      47.259   3.378  16.872  0.00  0.00    +0.000 C 
BRANCH  18  19
ATOM     19  N   UNL     1      46.845   4.376  15.918  0.00  0.00    +0.000 N 
ATOM     20  C   UNL     1      46.941   4.142  14.569  0.00  0.00    +0.000 C 
ATOM     21  O   UNL     1      47.328   3.067  14.119  0.00  0.00    +0.000 OA
ATOM     22  H   UNL     1      46.769   5.331  16.255  0.00  0.00    +0.000 HD
BRANCH  20  23
ATOM     23  C   UNL     1      46.499   5.226  13.684  0.00  0.00    +0.000 A 
ATOM     24  C   UNL     1      47.312   6.335  13.492  0.00  0.00    +0.000 A 
ATOM     25  S   UNL     1      46.658   7.485  12.416  0.00  0.00    +0.000 S 
ATOM     26  C   UNL     1      45.246   6.562  12.202  0.00  0.00    +0.000 A 
ATOM     27  N   UNL     1      44.234   7.005  11.407  0.00  0.00    +0.000 NA
ATOM     28  C   UNL     1      43.214   6.217  11.354  0.00  0.00    +0.000 A 
ATOM     29  N   UNL     1      43.116   5.022  12.018  0.00  0.00    +0.000 N 
ATOM     30  C   UNL     1      44.117   4.523  12.810  0.00  0.00    +0.000 A 
ATOM     31  O   UNL     1      44.016   3.427  13.356  0.00  0.00    +0.000 OA
ATOM     32  C   UNL     1      45.285   5.380  12.921  0.00  0.00    +0.000 A 
ATOM     33  H   UNL     1      42.293   4.442  11.921  0.00  0.00    +0.000 HD
ENDBRANCH  20  23
ENDBRANCH  18  19
ENDBRANCH   4  18
TORSDOF 7
ENDMDL
