MODEL 1
REMARK VINA RESULT:    -7.424      0.000      0.000
REMARK INTER + INTRA:          -9.927
REMARK INTER:                  -9.160
REMARK INTRA:                  -0.767
REMARK UNBOUND:                -0.767
REMARK  Name = 
REMARK  4 active torsions:
REMARK  status: ('A' for Active; 'I' for Inactive)
REMARK    1  A    between atoms: C_2  and  C_4
REMARK    2  A    between atoms: C_7  and  C_8
REMARK    3  A    between atoms: C_9  and  C_10
REMARK    4  A    between atoms: C_14  and  C_15
REMARK                            x       y       z     vdW  Elec       q    Type
REMARK                         _______ _______ _______ _____ _____    ______ ____
ROOT
ATOM      1  C   UNL     1      46.782   4.576  14.182  0.00  0.00    +0.000 C 
ATOM      2  C   UNL     1      45.447   4.654  14.036  0.00  0.00    +0.000 C 
ENDROOT
BRANCH   1   6
ATOM      3  C   UNL     1      48.676   4.496  18.052  0.00  0.00    +0.000 A 
ATOM      4  C   UNL     1      47.850   3.448  17.641  0.00  0.00    +0.000 A 
ATOM      5  C   UNL     1      47.244   3.491  16.383  0.00  0.00    +0.000 A 
ATOM      6  C   UNL     1      47.461   4.564  15.498  0.00  0.00    +0.000 A 
ATOM      7  C   UNL     1      48.281   5.622  15.939  0.00  0.00    +0.000 A 
ATOM      8 CL   UNL     1      48.617   7.003  14.948  0.00  0.00    +0.000 Cl
ATOM      9  C   UNL     1      48.877   5.590  17.206  0.00  0.00    +0.000 A 
BRANCH   3  11
ATOM     10  N   UNL     1      48.660   3.859  20.403  0.00  0.00    +0.000 N 
ATOM     11  C   UNL     1      49.317   4.500  19.390  0.00  0.00    +0.000 C 
ATOM     12  O   UNL     1      50.406   5.026  19.577  0.00  0.00    +0.000 OA
ATOM     13  H   UNL     1      49.155   3.786  21.283  0.00  0.00    +0.000 HD
ATOM     14  H   UNL     1      47.899   3.215  20.239  0.00  0.00    +0.000 HD
ENDBRANCH   3  11
ENDBRANCH   1   6
BRANCH   2  15
ATOM     15  C   UNL     1      44.704   4.670  12.765  0.00  0.00    +0.000 A 
ATOM     16  C   UNL     1      43.536   5.412  12.576  0.00  0.00    +0.000 A 
ATOM     17  C   UNL     1      42.928   5.461  11.321  0.00  0.00    +0.000 A 
ATOM     18  C   UNL     1      43.502   4.794  10.236  0.00  0.00    +0.000 A 
ATOM     19  C   UNL     1      44.696   4.068  10.375  0.00  0.00    +0.000 A 
ATOM     20  C   UNL     1      45.260   3.994  11.664  0.00  0.00    +0.000 A 
BRANCH  19  21
ATOM     21  C   UNL     1      45.381   3.457   9.216  0.00  0.00    +0.000 A 
ATOM     22  C   UNL     1      45.951   4.229   8.202  0.00  0.00    +0.000 A 
ATOM     23  C   UNL     1      46.634   3.605   7.162  0.00  0.00    +0.000 A 
ATOM     24  C   UNL     1      46.734   2.222   7.153  0.00  0.00    +0.000 A 
ATOM     25  C   UNL     1      46.146   1.520   8.189  0.00  0.00    +0.000 A 
ATOM     26  N   UNL     1      45.483   2.103   9.215  0.00  0.00    +0.000 NA
ENDBRANCH  19  21
ENDBRANCH   2  15
TORSDOF 4
ENDMDL
MODEL 2
REMARK VINA RESULT:    -6.338      3.514      9.549
REMARK INTER + INTRA:          -8.587
REMARK INTER:                  -7.824
REMARK INTRA:                  -0.763
REMARK UNBOUND:                -0.767
REMARK  Name = 
REMARK  4 active torsions:
REMARK  status: ('A' for Active; 'I' for Inactive)
REMARK    1  A    between atoms: C_2  and  C_4
REMARK    2  A    between atoms: C_7  and  C_8
REMARK    3  A    between atoms: C_9  and  C_10
REMARK    4  A    between atoms: C_14  and  C_15
REMARK                            x       y       z     vdW  Elec       q    Type
REMARK                         _______ _______ _______ _____ _____    ______ ____
ROOT
ATOM      1  C   UNL     1      47.228   5.066  14.799  0.00  0.00    +0.000 C 
ATOM      2  C   UNL     1      47.299   4.253  15.867  0.00  0.00    +0.000 C 
ENDROOT
BRANCH   1   6
ATOM      3  C   UNL     1      44.998   4.063  11.250  0.00  0.00    +0.000 A 
ATOM      4  C   UNL     1      45.362   3.075  12.166  0.00  0.00    +0.000 A 
ATOM      5  C   UNL     1      46.085   3.418  13.311  0.00  0.00    +0.000 A 
ATOM      6  C   UNL     1      46.444   4.752  13.582  0.00  0.00    +0.000 A 
ATOM      7  C   UNL     1      46.086   5.732  12.636  0.00  0.00    +0.000 A 
ATOM      8 CL   UNL     1      46.478   7.406  12.848  0.00  0.00    +0.000 Cl
ATOM      9  C   UNL     1      45.375   5.389  11.478  0.00  0.00    +0.000 A 
BRANCH   3  11
ATOM     10  N   UNL     1      43.896   4.778   9.199  0.00  0.00    +0.000 N 
ATOM     11  C   UNL     1      44.252   3.736  10.010  0.00  0.00    +0.000 C 
ATOM     12  O   UNL     1      43.993   2.580   9.704  0.00  0.00    +0.000 OA
ATOM     13  H   UNL     1      43.475   4.532   8.311  0.00  0.00    +0.000 HD
ATOM     14  H   UNL     1      44.297   5.701   9.288  0.00  0.00    +0.000 HD
ENDBRANCH   3  11
ENDBRANCH   1   6
BRANCH   2  15
ATOM     15  C   UNL     1      48.055   4.498  17.107  0.00  0.00    +0.000 A 
ATOM     16  C   UNL     1      49.252   3.845  17.410  0.00  0.00    +0.000 A 
ATOM     17  C   UNL     1      49.970   4.187  18.557  0.00  0.00    +0.000 A 
ATOM     18  C   UNL     1      49.514   5.210  19.392  0.00  0.00    +0.000 A 
ATOM     19  C   UNL     1      48.335   5.916  19.103  0.00  0.00    +0.000 A 
ATOM     20  C   UNL     1      47.605   5.515  17.967  0.00  0.00    +0.000 A 
BRANCH  19  21
ATOM     21  C   UNL     1      47.901   7.079  19.907  0.00  0.00    +0.000 A 
ATOM     22  C   UNL     1      47.496   8.277  19.317  0.00  0.00    +0.000 A 
ATOM     23  C   UNL     1      47.042   9.321  20.119  0.00  0.00    +0.000 A 
ATOM     24  C   UNL     1      47.005   9.150  21.494  0.00  0.00    +0.000 A 
ATOM     25  C   UNL     1      47.423   7.937  22.010  0.00  0.00    +0.000 A 
ATOM     26  N   UNL     1      47.859   6.904  21.253  0.00  0.00    +0.000 NA
ENDBRANCH  19  21
ENDBRANCH   2  15
TORSDOF 4
ENDMDL
MODEL 3
REMARK VINA RESULT:    -6.327      5.121      5.836
REMARK INTER + INTRA:          -8.574
REMARK INTER:                  -7.830
REMARK INTRA:                  -0.744
REMARK UNBOUND:                -0.767
REMARK  Name = 
REMARK  4 active torsions:
REMARK  status: ('A' for Active; 'I' for Inactive)
REMARK    1  A    between atoms: C_2  and  C_4
REMARK    2  A    between atoms: C_7  and  C_8
REMARK    3  A    between atoms: C_9  and  C_10
REMARK    4  A    between atoms: C_14  and  C_15
REMARK                            x       y       z     vdW  Elec       q    Type
REMARK                         _______ _______ _______ _____ _____    ______ ____
ROOT
ATOM      1  C   UNL     1      45.954   6.433  11.506  0.00  0.00    +0.000 C 
ATOM      2  C   UNL     1      45.457   5.954  10.352  0.00  0.00    +0.000 C 
ENDROOT
BRANCH   1   6
ATOM      3  C   UNL     1      46.455  10.653  12.223  0.00  0.00    +0.000 A 
ATOM      4  C   UNL     1      45.182  10.104  12.063  0.00  0.00    +0.000 A 
ATOM      5  C   UNL     1      45.038   8.734  11.831  0.00  0.00    +0.000 A 
ATOM      6  C   UNL     1      46.153   7.876  11.774  0.00  0.00    +0.000 A 
ATOM      7  C   UNL     1      47.431   8.453  11.916  0.00  0.00    +0.000 A 
ATOM      8 CL   UNL     1      48.882   7.507  11.855  0.00  0.00    +0.000 Cl
ATOM      9  C   UNL     1      47.580   9.829  12.133  0.00  0.00    +0.000 A 
BRANCH   3  11
ATOM     10  N   UNL     1      45.540  12.902  12.412  0.00  0.00    +0.000 N 
ATOM     11  C   UNL     1      46.652  12.107  12.445  0.00  0.00    +0.000 C 
ATOM     12  O   UNL     1      47.757  12.575  12.683  0.00  0.00    +0.000 OA
ATOM     13  H   UNL     1      45.677  13.874  12.662  0.00  0.00    +0.000 HD
ATOM     14  H   UNL     1      44.602  12.532  12.465  0.00  0.00    +0.000 HD
ENDBRANCH   3  11
ENDBRANCH   1   6
BRANCH   2  15
ATOM     15  C   UNL     1      45.231   4.539  10.015  0.00  0.00    +0.000 A 
ATOM     16  C   UNL     1      44.291   3.741  10.672  0.00  0.00    +0.000 A 
ATOM     17  C   UNL     1      44.058   2.432  10.246  0.00  0.00    +0.000 A 
ATOM     18  C   UNL     1      44.738   1.923   9.138  0.00  0.00    +0.000 A 
ATOM     19  C   UNL     1      45.663   2.704   8.428  0.00  0.00    +0.000 A 
ATOM     20  C   UNL     1      45.917   4.003   8.910  0.00  0.00    +0.000 A 
BRANCH  19  21
ATOM     21  C   UNL     1      46.303   2.224   7.184  0.00  0.00    +0.000 A 
ATOM     22  C   UNL     1      46.525   3.066   6.093  0.00  0.00    +0.000 A 
ATOM     23  C   UNL     1      47.183   2.577   4.968  0.00  0.00    +0.000 A 
ATOM     24  C   UNL     1      47.603   1.255   4.951  0.00  0.00    +0.000 A 
ATOM     25  C   UNL     1      47.349   0.478   6.067  0.00  0.00    +0.000 A 
ATOM     26  N   UNL     1      46.720   0.931   7.175  0.00  0.00    +0.000 NA
ENDBRANCH  19  21
ENDBRANCH   2  15
TORSDOF 4
ENDMDL
MODEL 4
REMARK VINA RESULT:    -6.234      3.992      4.710
REMARK INTER + INTRA:          -8.459
REMARK INTER:                  -7.752
REMARK INTRA:                  -0.708
REMARK UNBOUND:                -0.767
REMARK  Name = 
REMARK  4 active torsions:
REMARK  status: ('A' for Active; 'I' for Inactive)
REMARK    1  A    between atoms: C_2  and  C_4
REMARK    2  A    between atoms: C_7  and  C_8
REMARK    3  A    between atoms: C_9  and  C_10
REMARK    4  A    between atoms: C_14  and  C_15
REMARK                            x       y       z     vdW  Elec       q    Type
REMARK                         _______ _______ _______ _____ _____    ______ ____
ROOT
ATOM      1  C   UNL     1      46.741   6.419  12.469  0.00  0.00    +0.000 C 
ATOM      2  C   UNL     1      45.838   6.278  11.483  0.00  0.00    +0.000 C 
ENDROOT
BRANCH   1   6
ATOM      3  C   UNL     1      48.349  10.252  13.609  0.00  0.00    +0.000 A 
ATOM      4  C   UNL     1      47.546  10.125  12.475  0.00  0.00    +0.000 A 
ATOM      5  C   UNL     1      47.032   8.875  12.120  0.00  0.00    +0.000 A 
ATOM      6  C   UNL     1      47.289   7.728  12.895  0.00  0.00    +0.000 A 
ATOM      7  C   UNL     1      48.120   7.872  14.024  0.00  0.00    +0.000 A 
ATOM      8 CL   UNL     1      48.519   6.536  15.052  0.00  0.00    +0.000 Cl
ATOM      9  C   UNL     1      48.649   9.121  14.373  0.00  0.00    +0.000 A 
BRANCH   3  11
ATOM     10  N   UNL     1      48.651  12.015  15.262  0.00  0.00    +0.000 N 
ATOM     11  C   UNL     1      48.933  11.557  14.005  0.00  0.00    +0.000 C 
ATOM     12  O   UNL     1      49.665  12.186  13.253  0.00  0.00    +0.000 OA
ATOM     13  H   UNL     1      49.135  12.856  15.552  0.00  0.00    +0.000 HD
ATOM     14  H   UNL     1      48.265  11.424  15.985  0.00  0.00    +0.000 HD
ENDBRANCH   3  11
ENDBRANCH   1   6
BRANCH   2  15
ATOM     15  C   UNL     1      45.250   5.014  11.008  0.00  0.00    +0.000 A 
ATOM     16  C   UNL     1      44.041   4.508  11.491  0.00  0.00    +0.000 A 
ATOM     17  C   UNL     1      43.490   3.353  10.935  0.00  0.00    +0.000 A 
ATOM     18  C   UNL     1      44.125   2.714   9.867  0.00  0.00    +0.000 A 
ATOM     19  C   UNL     1      45.322   3.212   9.328  0.00  0.00    +0.000 A 
ATOM     20  C   UNL     1      45.883   4.349   9.942  0.00  0.00    +0.000 A 
BRANCH  19  21
ATOM     21  C   UNL     1      45.945   2.620   8.125  0.00  0.00    +0.000 A 
ATOM     22  C   UNL     1      46.125   3.351   6.949  0.00  0.00    +0.000 A 
ATOM     23  C   UNL     1      46.769   2.763   5.864  0.00  0.00    +0.000 A 
ATOM     24  C   UNL     1      47.219   1.456   5.972  0.00  0.00    +0.000 A 
ATOM     25  C   UNL     1      47.006   0.791   7.166  0.00  0.00    +0.000 A 
ATOM     26  N   UNL     1      46.391   1.343   8.238  0.00  0.00    +0.000 NA
ENDBRANCH  19  21
ENDBRANCH   2  15
TORSDOF 4
ENDMDL
MODEL 5
REMARK VINA RESULT:    -6.093      3.435      9.052
REMARK INTER + INTRA:          -8.285
REMARK INTER:                  -7.553
REMARK INTRA:                  -0.731
REMARK UNBOUND:                -0.767
REMARK  Name = 
REMARK  4 active torsions:
REMARK  status: ('A' for Active; 'I' for Inactive)
REMARK    1  A    between atoms: C_2  and  C_4
REMARK    2  A    between atoms: C_7  and  C_8
REMARK    3  A    between atoms: C_9  and  C_10
REMARK    4  A    between atoms: C_14  and  C_15
REMARK                            x       y       z     vdW  Elec       q    Type
REMARK                         _______ _______ _______ _____ _____    ______ ____
ROOT
ATOM      1  C   UNL     1      46.893   5.175  14.616  0.00  0.00    +0.000 C 
ATOM      2  C   UNL     1      47.313   4.284  15.530  0.00  0.00    +0.000 C 
ENDROOT
BRANCH   1   6
ATOM      3  C   UNL     1      45.029   3.973  10.921  0.00  0.00    +0.000 A 
ATOM      4  C   UNL     1      45.117   3.087  11.995  0.00  0.00    +0.000 A 
ATOM      5  C   UNL     1      45.724   3.494  13.186  0.00  0.00    +0.000 A 
ATOM      6  C   UNL     1      46.239   4.795  13.342  0.00  0.00    +0.000 A 
ATOM      7  C   UNL     1      46.160   5.668  12.239  0.00  0.00    +0.000 A 
ATOM      8 CL   UNL     1      46.766   7.290  12.300  0.00  0.00    +0.000 Cl
ATOM      9  C   UNL     1      45.566   5.258  11.038  0.00  0.00    +0.000 A 
BRANCH   3  11
ATOM     10  N   UNL     1      43.930   4.568   8.830  0.00  0.00    +0.000 N 
ATOM     11  C   UNL     1      44.414   3.571   9.631  0.00  0.00    +0.000 C 
ATOM     12  O   UNL     1      44.369   2.400   9.280  0.00  0.00    +0.000 OA
ATOM     13  H   UNL     1      43.604   4.288   7.914  0.00  0.00    +0.000 HD
ATOM     14  H   UNL     1      44.165   5.541   8.966  0.00  0.00    +0.000 HD
ENDBRANCH   3  11
ENDBRANCH   1   6
BRANCH   2  15
ATOM     15  C   UNL     1      47.968   4.587  16.814  0.00  0.00    +0.000 A 
ATOM     16  C   UNL     1      47.309   5.209  17.876  0.00  0.00    +0.000 A 
ATOM     17  C   UNL     1      47.956   5.387  19.100  0.00  0.00    +0.000 A 
ATOM     18  C   UNL     1      49.257   4.911  19.281  0.00  0.00    +0.000 A 
ATOM     19  C   UNL     1      49.941   4.247  18.250  0.00  0.00    +0.000 A 
ATOM     20  C   UNL     1      49.283   4.128  17.011  0.00  0.00    +0.000 A 
BRANCH  19  21
ATOM     21  C   UNL     1      51.270   3.633  18.461  0.00  0.00    +0.000 A 
ATOM     22  C   UNL     1      51.714   2.552  17.698  0.00  0.00    +0.000 A 
ATOM     23  C   UNL     1      52.997   2.048  17.899  0.00  0.00    +0.000 A 
ATOM     24  C   UNL     1      53.809   2.631  18.859  0.00  0.00    +0.000 A 
ATOM     25  C   UNL     1      53.304   3.699  19.578  0.00  0.00    +0.000 A 
ATOM     26  N   UNL     1      52.065   4.213  19.397  0.00  0.00    +0.000 NA
ENDBRANCH  19  21
ENDBRANCH   2  15
TORSDOF 4
ENDMDL
MODEL 6
REMARK VINA RESULT:    -6.090      2.431      3.094
REMARK INTER + INTRA:          -8.282
REMARK INTER:                  -7.550
REMARK INTRA:                  -0.732
REMARK UNBOUND:                -0.767
REMARK  Name = 
REMARK  4 active torsions:
REMARK  status: ('A' for Active; 'I' for Inactive)
REMARK    1  A    between atoms: C_2  and  C_4
REMARK    2  A    between atoms: C_7  and  C_8
REMARK    3  A    between atoms: C_9  and  C_10
REMARK    4  A    between atoms: C_14  and  C_15
REMARK                            x       y       z     vdW  Elec       q    Type
REMARK                         _______ _______ _______ _____ _____    ______ ____
ROOT
ATOM      1  C   UNL     1      48.018   5.866  15.550  0.00  0.00    +0.000 C 
ATOM      2  C   UNL     1      48.150   6.365  14.308  0.00  0.00    +0.000 C 
ENDROOT
BRANCH   1   6
ATOM      3  C   UNL     1      51.420   4.976  18.040  0.00  0.00    +0.000 A 
ATOM      4  C   UNL     1      51.398   6.125  17.249  0.00  0.00    +0.000 A 
ATOM      5  C   UNL     1      50.286   6.399  16.447  0.00  0.00    +0.000 A 
ATOM      6  C   UNL     1      49.165   5.548  16.431  0.00  0.00    +0.000 A 
ATOM      7  C   UNL     1      49.215   4.381  17.220  0.00  0.00    +0.000 A 
ATOM      8 CL   UNL     1      47.905   3.250  17.278  0.00  0.00    +0.000 Cl
ATOM      9  C   UNL     1      50.335   4.097  18.013  0.00  0.00    +0.000 A 
BRANCH   3  11
ATOM     10  N   UNL     1      52.615   3.397  19.458  0.00  0.00    +0.000 N 
ATOM     11  C   UNL     1      52.592   4.638  18.886  0.00  0.00    +0.000 C 
ATOM     12  O   UNL     1      53.517   5.423  19.041  0.00  0.00    +0.000 OA
ATOM     13  H   UNL     1      53.464   3.145  19.950  0.00  0.00    +0.000 HD
ATOM     14  H   UNL     1      52.006   2.647  19.161  0.00  0.00    +0.000 HD
ENDBRANCH   3  11
ENDBRANCH   1   6
BRANCH   2  15
ATOM     15  C   UNL     1      47.060   6.705  13.379  0.00  0.00    +0.000 A 
ATOM     16  C   UNL     1      46.572   8.004  13.221  0.00  0.00    +0.000 A 
ATOM     17  C   UNL     1      45.601   8.280  12.258  0.00  0.00    +0.000 A 
ATOM     18  C   UNL     1      45.134   7.263  11.420  0.00  0.00    +0.000 A 
ATOM     19  C   UNL     1      45.625   5.952  11.522  0.00  0.00    +0.000 A 
ATOM     20  C   UNL     1      46.567   5.692  12.536  0.00  0.00    +0.000 A 
BRANCH  19  21
ATOM     21  C   UNL     1      45.233   4.892  10.568  0.00  0.00    +0.000 A 
ATOM     22  C   UNL     1      45.494   4.993   9.201  0.00  0.00    +0.000 A 
ATOM     23  C   UNL     1      45.154   3.941   8.355  0.00  0.00    +0.000 A 
ATOM     24  C   UNL     1      44.557   2.809   8.890  0.00  0.00    +0.000 A 
ATOM     25  C   UNL     1      44.328   2.778  10.253  0.00  0.00    +0.000 A 
ATOM     26  N   UNL     1      44.656   3.782  11.098  0.00  0.00    +0.000 NA
ENDBRANCH  19  21
ENDBRANCH   2  15
TORSDOF 4
ENDMDL
MODEL 7
REMARK VINA RESULT:    -5.885      2.892      3.561
REMARK INTER + INTRA:          -8.028
REMARK INTER:                  -7.310
REMARK INTRA:                  -0.718
REMARK UNBOUND:                -0.767
REMARK  Name = 
REMARK  4 active torsions:
REMARK  status: ('A' for Active; 'I' for Inactive)
REMARK    1  A    between atoms: C_2  and  C_4
REMARK    2  A    between atoms: C_7  and  C_8
REMARK    3  A    between atoms: C_9  and  C_10
REMARK    4  A    between atoms: C_14  and  C_15
REMARK                            x       y       z     vdW  Elec       q    Type
REMARK                         _______ _______ _______ _____ _____    ______ ____
ROOT
ATOM      1  C   UNL     1      48.721   7.181  15.080  0.00  0.00    +0.000 C 
ATOM      2  C   UNL     1      48.274   6.453  14.041  0.00  0.00    +0.000 C 
ENDROOT
BRANCH   1   6
ATOM      3  C   UNL     1      52.269   6.146  17.298  0.00  0.00    +0.000 A 
ATOM      4  C   UNL     1      52.335   7.030  16.220  0.00  0.00    +0.000 A 
ATOM      5  C   UNL     1      51.174   7.355  15.512  0.00  0.00    +0.000 A 
ATOM      6  C   UNL     1      49.921   6.825  15.872  0.00  0.00    +0.000 A 
ATOM      7  C   UNL     1      49.878   5.917  16.949  0.00  0.00    +0.000 A 
ATOM      8 CL   UNL     1      48.399   5.188  17.482  0.00  0.00    +0.000 Cl
ATOM      9  C   UNL     1      51.042   5.577  17.651  0.00  0.00    +0.000 A 
BRANCH   3  11
ATOM     10  N   UNL     1      54.118   6.738  18.767  0.00  0.00    +0.000 N 
ATOM     11  C   UNL     1      53.481   5.757  18.059  0.00  0.00    +0.000 C 
ATOM     12  O   UNL     1      53.880   4.601  18.082  0.00  0.00    +0.000 OA
ATOM     13  H   UNL     1      54.884   6.439  19.358  0.00  0.00    +0.000 HD
ATOM     14  H   UNL     1      53.691   7.630  18.970  0.00  0.00    +0.000 HD
ENDBRANCH   3  11
ENDBRANCH   1   6
BRANCH   2  15
ATOM     15  C   UNL     1      47.094   6.745  13.210  0.00  0.00    +0.000 A 
ATOM     16  C   UNL     1      46.501   8.008  13.146  0.00  0.00    +0.000 A 
ATOM     17  C   UNL     1      45.441   8.245  12.269  0.00  0.00    +0.000 A 
ATOM     18  C   UNL     1      44.989   7.229  11.424  0.00  0.00    +0.000 A 
ATOM     19  C   UNL     1      45.582   5.956  11.430  0.00  0.00    +0.000 A 
ATOM     20  C   UNL     1      46.615   5.731  12.361  0.00  0.00    +0.000 A 
BRANCH  19  21
ATOM     21  C   UNL     1      45.197   4.908  10.461  0.00  0.00    +0.000 A 
ATOM     22  C   UNL     1      45.552   4.980   9.113  0.00  0.00    +0.000 A 
ATOM     23  C   UNL     1      45.213   3.937   8.255  0.00  0.00    +0.000 A 
ATOM     24  C   UNL     1      44.524   2.844   8.759  0.00  0.00    +0.000 A 
ATOM     25  C   UNL     1      44.206   2.839  10.105  0.00  0.00    +0.000 A 
ATOM     26  N   UNL     1      44.530   3.835  10.961  0.00  0.00    +0.000 NA
ENDBRANCH  19  21
ENDBRANCH   2  15
TORSDOF 4
ENDMDL
MODEL 8
REMARK VINA RESULT:    -5.782      3.296      9.363
REMARK INTER + INTRA:          -7.901
REMARK INTER:                  -7.219
REMARK INTRA:                  -0.682
REMARK UNBOUND:                -0.767
REMARK  Name = 
REMARK  4 active torsions:
REMARK  status: ('A' for Active; 'I' for Inactive)
REMARK    1  A    between atoms: C_2  and  C_4
REMARK    2  A    between atoms: C_7  and  C_8
REMARK    3  A    between atoms: C_9  and  C_10
REMARK    4  A    between atoms: C_14  and  C_15
REMARK                            x       y       z     vdW  Elec       q    Type
REMARK                         _______ _______ _______ _____ _____    ______ ____
ROOT
ATOM      1  C   UNL     1      47.061   5.488  14.625  0.00  0.00    +0.000 C 
ATOM      2  C   UNL     1      48.244   6.124  14.562  0.00  0.00    +0.000 C 
ENDROOT
BRANCH   1   6
ATOM      3  C   UNL     1      44.943   4.090  11.142  0.00  0.00    +0.000 A 
ATOM      4  C   UNL     1      45.455   3.187  12.074  0.00  0.00    +0.000 A 
ATOM      5  C   UNL     1      46.139   3.658  13.198  0.00  0.00    +0.000 A 
ATOM      6  C   UNL     1      46.311   5.036  13.431  0.00  0.00    +0.000 A 
ATOM      7  C   UNL     1      45.806   5.931  12.467  0.00  0.00    +0.000 A 
ATOM      8 CL   UNL     1      45.962   7.649  12.632  0.00  0.00    +0.000 Cl
ATOM      9  C   UNL     1      45.133   5.461  11.331  0.00  0.00    +0.000 A 
BRANCH   3  11
ATOM     10  N   UNL     1      43.946   4.569   8.972  0.00  0.00    +0.000 N 
ATOM     11  C   UNL     1      44.232   3.630   9.923  0.00  0.00    +0.000 C 
ATOM     12  O   UNL     1      43.942   2.453   9.758  0.00  0.00    +0.000 OA
ATOM     13  H   UNL     1      43.550   4.223   8.106  0.00  0.00    +0.000 HD
ATOM     14  H   UNL     1      44.377   5.482   8.958  0.00  0.00    +0.000 HD
ENDBRANCH   3  11
ENDBRANCH   1   6
BRANCH   2  15
ATOM     15  C   UNL     1      49.044   6.601  15.702  0.00  0.00    +0.000 A 
ATOM     16  C   UNL     1      50.065   7.546  15.574  0.00  0.00    +0.000 A 
ATOM     17  C   UNL     1      50.726   8.027  16.705  0.00  0.00    +0.000 A 
ATOM     18  C   UNL     1      50.348   7.592  17.977  0.00  0.00    +0.000 A 
ATOM     19  C   UNL     1      49.303   6.671  18.153  0.00  0.00    +0.000 A 
ATOM     20  C   UNL     1      48.688   6.164  16.991  0.00  0.00    +0.000 A 
BRANCH  19  21
ATOM     21  C   UNL     1      48.810   6.291  19.494  0.00  0.00    +0.000 A 
ATOM     22  C   UNL     1      47.846   7.043  20.169  0.00  0.00    +0.000 A 
ATOM     23  C   UNL     1      47.376   6.609  21.405  0.00  0.00    +0.000 A 
ATOM     24  C   UNL     1      47.878   5.434  21.945  0.00  0.00    +0.000 A 
ATOM     25  C   UNL     1      48.831   4.741  21.222  0.00  0.00    +0.000 A 
ATOM     26  N   UNL     1      49.299   5.136  20.015  0.00  0.00    +0.000 NA
ENDBRANCH  19  21
ENDBRANCH   2  15
TORSDOF 4
ENDMDL
MODEL 9
REMARK VINA RESULT:    -5.629      4.631      9.787
REMARK INTER + INTRA:          -7.712
REMARK INTER:                  -6.954
REMARK INTRA:                  -0.758
REMARK UNBOUND:                -0.767
REMARK  Name = 
REMARK  4 active torsions:
REMARK  status: ('A' for Active; 'I' for Inactive)
REMARK    1  A    between atoms: C_2  and  C_4
REMARK    2  A    between atoms: C_7  and  C_8
REMARK    3  A    between atoms: C_9  and  C_10
REMARK    4  A    between atoms: C_14  and  C_15
REMARK                            x       y       z     vdW  Elec       q    Type
REMARK                         _______ _______ _______ _____ _____    ______ ____
ROOT
ATOM      1  C   UNL     1      47.812   7.016  13.582  0.00  0.00    +0.000 C 
ATOM      2  C   UNL     1      47.570   8.291  13.934  0.00  0.00    +0.000 C 
ENDROOT
BRANCH   1   6
ATOM      3  C   UNL     1      45.104   4.759  11.103  0.00  0.00    +0.000 A 
ATOM      4  C   UNL     1      45.663   5.953  10.644  0.00  0.00    +0.000 A 
ATOM      5  C   UNL     1      46.540   6.672  11.461  0.00  0.00    +0.000 A 
ATOM      6  C   UNL     1      46.896   6.210  12.743  0.00  0.00    +0.000 A 
ATOM      7  C   UNL     1      46.305   5.014  13.197  0.00  0.00    +0.000 A 
ATOM      8 CL   UNL     1      46.653   4.347  14.757  0.00  0.00    +0.000 Cl
ATOM      9  C   UNL     1      45.413   4.299  12.386  0.00  0.00    +0.000 A 
BRANCH   3  11
ATOM     10  N   UNL     1      43.983   4.371   8.976  0.00  0.00    +0.000 N 
ATOM     11  C   UNL     1      44.151   3.980  10.275  0.00  0.00    +0.000 C 
ATOM     12  O   UNL     1      43.561   3.006  10.723  0.00  0.00    +0.000 OA
ATOM     13  H   UNL     1      43.405   3.772   8.399  0.00  0.00    +0.000 HD
ATOM     14  H   UNL     1      44.620   5.000   8.508  0.00  0.00    +0.000 HD
ENDBRANCH   3  11
ENDBRANCH   1   6
BRANCH   2  15
ATOM     15  C   UNL     1      48.432   9.151  14.762  0.00  0.00    +0.000 A 
ATOM     16  C   UNL     1      49.360  10.043  14.222  0.00  0.00    +0.000 A 
ATOM     17  C   UNL     1      50.083  10.898  15.055  0.00  0.00    +0.000 A 
ATOM     18  C   UNL     1      49.857  10.892  16.434  0.00  0.00    +0.000 A 
ATOM     19  C   UNL     1      48.906  10.036  17.013  0.00  0.00    +0.000 A 
ATOM     20  C   UNL     1      48.228   9.149  16.154  0.00  0.00    +0.000 A 
BRANCH  19  21
ATOM     21  C   UNL     1      48.567  10.100  18.451  0.00  0.00    +0.000 A 
ATOM     22  C   UNL     1      47.425   9.488  18.970  0.00  0.00    +0.000 A 
ATOM     23  C   UNL     1      47.185   9.530  20.341  0.00  0.00    +0.000 A 
ATOM     24  C   UNL     1      48.087  10.184  21.166  0.00  0.00    +0.000 A 
ATOM     25  C   UNL     1      49.197  10.767  20.583  0.00  0.00    +0.000 A 
ATOM     26  N   UNL     1      49.458  10.734  19.256  0.00  0.00    +0.000 NA
ENDBRANCH  19  21
ENDBRANCH   2  15
TORSDOF 4
ENDMDL
