MODEL 1
REMARK VINA RESULT:    -6.995      0.000      0.000
REMARK INTER + INTRA:          -9.533
REMARK INTER:                  -9.244
REMARK INTRA:                  -0.288
REMARK UNBOUND:                -0.288
REMARK  Name = 
REMARK  7 active torsions:
REMARK  status: ('A' for Active; 'I' for Inactive)
REMARK    1  A    between atoms: C_1  and  C_2
REMARK    2  A    between atoms: C_6  and  C_7
REMARK    3  A    between atoms: C_7  and  C_8
REMARK    4  A    between atoms: C_8  and  C_9
REMARK    5  A    between atoms: C_13  and  C_14
REMARK    6  A    between atoms: C_14  and  C_15
REMARK    7  A    between atoms: C_15  and  O_16
REMARK                            x       y       z     vdW  Elec       q    Type
REMARK                         _______ _______ _______ _____ _____    ______ ____
ROOT
ATOM      1  C   UNL     1      44.858   2.956   9.458  0.00  0.00    +0.000 A 
ATOM      2  C   UNL     1      45.085   4.249   8.960  0.00  0.00    +0.000 A 
ATOM      3  C   UNL     1      45.949   4.458   7.884  0.00  0.00    +0.000 A 
ATOM      4  C   UNL     1      46.610   3.381   7.297  0.00  0.00    +0.000 A 
ATOM      5  C   UNL     1      46.399   2.081   7.770  0.00  0.00    +0.000 A 
ATOM      6  C   UNL     1      45.491   1.877   8.821  0.00  0.00    +0.000 A 
ENDROOT
BRANCH   1   7
ATOM      7  C   UNL     1      43.918   2.778  10.635  0.00  0.00    +0.000 C 
BRANCH   7   8
ATOM      8  C   UNL     1      43.567   4.067  11.390  0.00  0.00    +0.000 C 
BRANCH   8  14
ATOM      9  C   UNL     1      45.961   7.993  12.940  0.00  0.00    +0.000 C 
ATOM     10  C   UNL     1      45.878   6.498  12.914  0.00  0.00    +0.000 A 
ATOM     11  C   UNL     1      46.798   5.715  13.603  0.00  0.00    +0.000 A 
ATOM     12  C   UNL     1      46.667   4.333  13.549  0.00  0.00    +0.000 A 
ATOM     13  C   UNL     1      45.625   3.768  12.819  0.00  0.00    +0.000 A 
ATOM     14  C   UNL     1      44.738   4.614  12.164  0.00  0.00    +0.000 A 
ATOM     15  N   UNL     1      44.859   5.963  12.197  0.00  0.00    +0.000 NA
ENDBRANCH   8  14
ENDBRANCH   7   8
ENDBRANCH   1   7
BRANCH   5  16
ATOM     16  C   UNL     1      47.174   0.918   7.190  0.00  0.00    +0.000 C 
BRANCH  16  17
ATOM     17  C   UNL     1      47.356   0.972   5.675  0.00  0.00    +0.000 C 
BRANCH  17  18
ATOM     18  O   UNL     1      48.576   1.611   5.318  0.00  0.00    +0.000 OA
ATOM     19  H   UNL     1      48.670   1.511   4.353  0.00  0.00    +0.000 HD
ENDBRANCH  17  18
ENDBRANCH  16  17
ENDBRANCH   5  16
TORSDOF 6
ENDMDL
MODEL 2
REMARK VINA RESULT:    -6.830      1.176      2.197
REMARK INTER + INTRA:          -9.315
REMARK INTER:                  -8.681
REMARK INTRA:                  -0.634
REMARK UNBOUND:                -0.288
REMARK  Name = 
REMARK  7 active torsions:
REMARK  status: ('A' for Active; 'I' for Inactive)
REMARK    1  A    between atoms: C_1  and  C_2
REMARK    2  A    between atoms: C_6  and  C_7
REMARK    3  A    between atoms: C_7  and  C_8
REMARK    4  A    between atoms: C_8  and  C_9
REMARK    5  A    between atoms: C_13  and  C_14
REMARK    6  A    between atoms: C_14  and  C_15
REMARK    7  A    between atoms: C_15  and  O_16
REMARK                            x       y       z     vdW  Elec       q    Type
REMARK                         _______ _______ _______ _____ _____    ______ ____
ROOT
ATOM      1  C   UNL     1      44.545   3.989   9.466  0.00  0.00    +0.000 A 
ATOM      2  C   UNL     1      44.339   2.655   9.853  0.00  0.00    +0.000 A 
ATOM      3  C   UNL     1      44.976   1.610   9.181  0.00  0.00    +0.000 A 
ATOM      4  C   UNL     1      45.817   1.880   8.104  0.00  0.00    +0.000 A 
ATOM      5  C   UNL     1      46.045   3.200   7.699  0.00  0.00    +0.000 A 
ATOM      6  C   UNL     1      45.437   4.246   8.413  0.00  0.00    +0.000 A 
ENDROOT
BRANCH   1   7
ATOM      7  C   UNL     1      43.824   5.090  10.219  0.00  0.00    +0.000 C 
BRANCH   7   8
ATOM      8  C   UNL     1      43.875   4.977  11.748  0.00  0.00    +0.000 C 
BRANCH   8  14
ATOM      9  C   UNL     1      47.197   4.377  15.235  0.00  0.00    +0.000 C 
ATOM     10  C   UNL     1      46.808   5.089  13.976  0.00  0.00    +0.000 A 
ATOM     11  C   UNL     1      47.662   6.009  13.377  0.00  0.00    +0.000 A 
ATOM     12  C   UNL     1      47.250   6.634  12.206  0.00  0.00    +0.000 A 
ATOM     13  C   UNL     1      46.008   6.323  11.659  0.00  0.00    +0.000 A 
ATOM     14  C   UNL     1      45.213   5.385  12.308  0.00  0.00    +0.000 A 
ATOM     15  N   UNL     1      45.594   4.778  13.458  0.00  0.00    +0.000 NA
ENDBRANCH   8  14
ENDBRANCH   7   8
ENDBRANCH   1   7
BRANCH   5  16
ATOM     16  C   UNL     1      46.892   3.494   6.482  0.00  0.00    +0.000 C 
BRANCH  16  17
ATOM     17  C   UNL     1      47.103   2.299   5.554  0.00  0.00    +0.000 C 
BRANCH  17  18
ATOM     18  O   UNL     1      48.485   2.045   5.336  0.00  0.00    +0.000 OA
ATOM     19  H   UNL     1      48.798   1.533   6.104  0.00  0.00    +0.000 HD
ENDBRANCH  17  18
ENDBRANCH  16  17
ENDBRANCH   5  16
TORSDOF 6
ENDMDL
MODEL 3
REMARK VINA RESULT:    -6.830      2.819      6.684
REMARK INTER + INTRA:          -9.314
REMARK INTER:                  -8.822
REMARK INTRA:                  -0.492
REMARK UNBOUND:                -0.288
REMARK  Name = 
REMARK  7 active torsions:
REMARK  status: ('A' for Active; 'I' for Inactive)
REMARK    1  A    between atoms: C_1  and  C_2
REMARK    2  A    between atoms: C_6  and  C_7
REMARK    3  A    between atoms: C_7  and  C_8
REMARK    4  A    between atoms: C_8  and  C_9
REMARK    5  A    between atoms: C_13  and  C_14
REMARK    6  A    between atoms: C_14  and  C_15
REMARK    7  A    between atoms: C_15  and  O_16
REMARK                            x       y       z     vdW  Elec       q    Type
REMARK                         _______ _______ _______ _____ _____    ______ ____
ROOT
ATOM      1  C   UNL     1      44.441   4.397  10.398  0.00  0.00    +0.000 A 
ATOM      2  C   UNL     1      43.173   4.508  10.990  0.00  0.00    +0.000 A 
ATOM      3  C   UNL     1      43.035   4.957  12.305  0.00  0.00    +0.000 A 
ATOM      4  C   UNL     1      44.163   5.291  13.052  0.00  0.00    +0.000 A 
ATOM      5  C   UNL     1      45.439   5.194  12.486  0.00  0.00    +0.000 A 
ATOM      6  C   UNL     1      45.562   4.786  11.148  0.00  0.00    +0.000 A 
ENDROOT
BRANCH   1   7
ATOM      7  C   UNL     1      44.542   3.894   8.971  0.00  0.00    +0.000 C 
BRANCH   7   8
ATOM      8  C   UNL     1      45.773   4.377   8.194  0.00  0.00    +0.000 C 
BRANCH   8  14
ATOM      9  C   UNL     1      46.834  -0.337   7.744  0.00  0.00    +0.000 C 
ATOM     10  C   UNL     1      46.875   1.026   7.127  0.00  0.00    +0.000 A 
ATOM     11  C   UNL     1      47.391   1.223   5.851  0.00  0.00    +0.000 A 
ATOM     12  C   UNL     1      47.397   2.510   5.327  0.00  0.00    +0.000 A 
ATOM     13  C   UNL     1      46.885   3.562   6.080  0.00  0.00    +0.000 A 
ATOM     14  C   UNL     1      46.377   3.289   7.344  0.00  0.00    +0.000 A 
ATOM     15  N   UNL     1      46.376   2.041   7.875  0.00  0.00    +0.000 NA
ENDBRANCH   8  14
ENDBRANCH   7   8
ENDBRANCH   1   7
BRANCH   5  16
ATOM     16  C   UNL     1      46.670   5.477  13.317  0.00  0.00    +0.000 C 
BRANCH  16  17
ATOM     17  C   UNL     1      46.855   4.542  14.511  0.00  0.00    +0.000 C 
BRANCH  17  18
ATOM     18  O   UNL     1      47.296   3.253  14.101  0.00  0.00    +0.000 OA
ATOM     19  H   UNL     1      47.873   2.919  14.812  0.00  0.00    +0.000 HD
ENDBRANCH  17  18
ENDBRANCH  16  17
ENDBRANCH   5  16
TORSDOF 6
ENDMDL
MODEL 4
REMARK VINA RESULT:    -6.785      1.362      2.685
REMARK INTER + INTRA:          -9.255
REMARK INTER:                  -8.771
REMARK INTRA:                  -0.484
REMARK UNBOUND:                -0.288
REMARK  Name = 
REMARK  7 active torsions:
REMARK  status: ('A' for Active; 'I' for Inactive)
REMARK    1  A    between atoms: C_1  and  C_2
REMARK    2  A    between atoms: C_6  and  C_7
REMARK    3  A    between atoms: C_7  and  C_8
REMARK    4  A    between atoms: C_8  and  C_9
REMARK    5  A    between atoms: C_13  and  C_14
REMARK    6  A    between atoms: C_14  and  C_15
REMARK    7  A    between atoms: C_15  and  O_16
REMARK                            x       y       z     vdW  Elec       q    Type
REMARK                         _______ _______ _______ _____ _____    ______ ____
ROOT
ATOM      1  C   UNL     1      46.168   3.009   7.616  0.00  0.00    +0.000 A 
ATOM      2  C   UNL     1      46.200   1.824   8.368  0.00  0.00    +0.000 A 
ATOM      3  C   UNL     1      46.647   0.630   7.800  0.00  0.00    +0.000 A 
ATOM      4  C   UNL     1      47.056   0.598   6.469  0.00  0.00    +0.000 A 
ATOM      5  C   UNL     1      47.040   1.765   5.697  0.00  0.00    +0.000 A 
ATOM      6  C   UNL     1      46.633   2.970   6.292  0.00  0.00    +0.000 A 
ENDROOT
BRANCH   1   7
ATOM      7  C   UNL     1      45.665   4.280   8.273  0.00  0.00    +0.000 C 
BRANCH   7   8
ATOM      8  C   UNL     1      44.287   4.171   8.937  0.00  0.00    +0.000 C 
BRANCH   8  14
ATOM      9  C   UNL     1      46.500   6.160  12.770  0.00  0.00    +0.000 C 
ATOM     10  C   UNL     1      45.421   5.249  12.274  0.00  0.00    +0.000 A 
ATOM     11  C   UNL     1      44.550   4.618  13.155  0.00  0.00    +0.000 A 
ATOM     12  C   UNL     1      43.563   3.789  12.635  0.00  0.00    +0.000 A 
ATOM     13  C   UNL     1      43.465   3.615  11.258  0.00  0.00    +0.000 A 
ATOM     14  C   UNL     1      44.364   4.286  10.438  0.00  0.00    +0.000 A 
ATOM     15  N   UNL     1      45.340   5.088  10.929  0.00  0.00    +0.000 NA
ENDBRANCH   8  14
ENDBRANCH   7   8
ENDBRANCH   1   7
BRANCH   5  16
ATOM     16  C   UNL     1      47.405   1.721   4.230  0.00  0.00    +0.000 C 
BRANCH  16  17
ATOM     17  C   UNL     1      46.715   0.611   3.440  0.00  0.00    +0.000 C 
BRANCH  17  18
ATOM     18  O   UNL     1      47.620  -0.043   2.559  0.00  0.00    +0.000 OA
ATOM     19  H   UNL     1      47.299  -0.958   2.459  0.00  0.00    +0.000 HD
ENDBRANCH  17  18
ENDBRANCH  16  17
ENDBRANCH   5  16
TORSDOF 6
ENDMDL
MODEL 5
REMARK VINA RESULT:    -6.684      3.164      6.629
REMARK INTER + INTRA:          -9.121
REMARK INTER:                  -8.522
REMARK INTRA:                  -0.599
REMARK UNBOUND:                -0.288
REMARK  Name = 
REMARK  7 active torsions:
REMARK  status: ('A' for Active; 'I' for Inactive)
REMARK    1  A    between atoms: C_1  and  C_2
REMARK    2  A    between atoms: C_6  and  C_7
REMARK    3  A    between atoms: C_7  and  C_8
REMARK    4  A    between atoms: C_8  and  C_9
REMARK    5  A    between atoms: C_13  and  C_14
REMARK    6  A    between atoms: C_14  and  C_15
REMARK    7  A    between atoms: C_15  and  O_16
REMARK                            x       y       z     vdW  Elec       q    Type
REMARK                         _______ _______ _______ _____ _____    ______ ____
ROOT
ATOM      1  C   UNL     1      45.400   3.957  12.163  0.00  0.00    +0.000 A 
ATOM      2  C   UNL     1      46.176   3.463  13.223  0.00  0.00    +0.000 A 
ATOM      3  C   UNL     1      47.026   4.307  13.940  0.00  0.00    +0.000 A 
ATOM      4  C   UNL     1      47.125   5.654  13.600  0.00  0.00    +0.000 A 
ATOM      5  C   UNL     1      46.359   6.175  12.550  0.00  0.00    +0.000 A 
ATOM      6  C   UNL     1      45.472   5.328  11.868  0.00  0.00    +0.000 A 
ENDROOT
BRANCH   1   7
ATOM      7  C   UNL     1      44.498   3.001  11.406  0.00  0.00    +0.000 C 
BRANCH   7   8
ATOM      8  C   UNL     1      44.087   3.464  10.003  0.00  0.00    +0.000 C 
BRANCH   8  14
ATOM      9  C   UNL     1      46.771   0.134   7.710  0.00  0.00    +0.000 C 
ATOM     10  C   UNL     1      46.429   1.583   7.869  0.00  0.00    +0.000 A 
ATOM     11  C   UNL     1      47.030   2.554   7.076  0.00  0.00    +0.000 A 
ATOM     12  C   UNL     1      46.668   3.883   7.263  0.00  0.00    +0.000 A 
ATOM     13  C   UNL     1      45.716   4.208   8.225  0.00  0.00    +0.000 A 
ATOM     14  C   UNL     1      45.150   3.182   8.973  0.00  0.00    +0.000 A 
ATOM     15  N   UNL     1      45.502   1.884   8.812  0.00  0.00    +0.000 NA
ENDBRANCH   8  14
ENDBRANCH   7   8
ENDBRANCH   1   7
BRANCH   5  16
ATOM     16  C   UNL     1      46.522   7.618  12.125  0.00  0.00    +0.000 C 
BRANCH  16  17
ATOM     17  C   UNL     1      45.768   8.622  12.993  0.00  0.00    +0.000 C 
BRANCH  17  18
ATOM     18  O   UNL     1      46.530   9.005  14.131  0.00  0.00    +0.000 OA
ATOM     19  H   UNL     1      45.996   9.660  14.616  0.00  0.00    +0.000 HD
ENDBRANCH  17  18
ENDBRANCH  16  17
ENDBRANCH   5  16
TORSDOF 6
ENDMDL
MODEL 6
REMARK VINA RESULT:    -6.619      1.355      2.134
REMARK INTER + INTRA:          -9.035
REMARK INTER:                  -8.378
REMARK INTRA:                  -0.657
REMARK UNBOUND:                -0.288
REMARK  Name = 
REMARK  7 active torsions:
REMARK  status: ('A' for Active; 'I' for Inactive)
REMARK    1  A    between atoms: C_1  and  C_2
REMARK    2  A    between atoms: C_6  and  C_7
REMARK    3  A    between atoms: C_7  and  C_8
REMARK    4  A    between atoms: C_8  and  C_9
REMARK    5  A    between atoms: C_13  and  C_14
REMARK    6  A    between atoms: C_14  and  C_15
REMARK    7  A    between atoms: C_15  and  O_16
REMARK                            x       y       z     vdW  Elec       q    Type
REMARK                         _______ _______ _______ _____ _____    ______ ____
ROOT
ATOM      1  C   UNL     1      44.423   4.179   9.864  0.00  0.00    +0.000 A 
ATOM      2  C   UNL     1      44.140   2.832  10.145  0.00  0.00    +0.000 A 
ATOM      3  C   UNL     1      44.712   1.809   9.386  0.00  0.00    +0.000 A 
ATOM      4  C   UNL     1      45.565   2.115   8.328  0.00  0.00    +0.000 A 
ATOM      5  C   UNL     1      45.868   3.448   8.028  0.00  0.00    +0.000 A 
ATOM      6  C   UNL     1      45.325   4.467   8.827  0.00  0.00    +0.000 A 
ENDROOT
BRANCH   1   7
ATOM      7  C   UNL     1      43.771   5.256  10.708  0.00  0.00    +0.000 C 
BRANCH   7   8
ATOM      8  C   UNL     1      44.690   6.415  11.112  0.00  0.00    +0.000 C 
BRANCH   8  14
ATOM      9  C   UNL     1      49.133   7.020  12.968  0.00  0.00    +0.000 C 
ATOM     10  C   UNL     1      47.817   6.312  13.060  0.00  0.00    +0.000 A 
ATOM     11  C   UNL     1      47.558   5.402  14.079  0.00  0.00    +0.000 A 
ATOM     12  C   UNL     1      46.316   4.781  14.117  0.00  0.00    +0.000 A 
ATOM     13  C   UNL     1      45.364   5.086  13.148  0.00  0.00    +0.000 A 
ATOM     14  C   UNL     1      45.689   6.013  12.166  0.00  0.00    +0.000 A 
ATOM     15  N   UNL     1      46.901   6.618  12.107  0.00  0.00    +0.000 NA
ENDBRANCH   8  14
ENDBRANCH   7   8
ENDBRANCH   1   7
BRANCH   5  16
ATOM     16  C   UNL     1      46.728   3.789   6.831  0.00  0.00    +0.000 C 
BRANCH  16  17
ATOM     17  C   UNL     1      47.397   2.586   6.170  0.00  0.00    +0.000 C 
BRANCH  17  18
ATOM     18  O   UNL     1      48.813   2.642   6.297  0.00  0.00    +0.000 OA
ATOM     19  H   UNL     1      49.079   3.545   6.047  0.00  0.00    +0.000 HD
ENDBRANCH  17  18
ENDBRANCH  16  17
ENDBRANCH   5  16
TORSDOF 6
ENDMDL
MODEL 7
REMARK VINA RESULT:    -6.558      3.398      7.084
REMARK INTER + INTRA:          -8.954
REMARK INTER:                  -8.569
REMARK INTRA:                  -0.385
REMARK UNBOUND:                -0.288
REMARK  Name = 
REMARK  7 active torsions:
REMARK  status: ('A' for Active; 'I' for Inactive)
REMARK    1  A    between atoms: C_1  and  C_2
REMARK    2  A    between atoms: C_6  and  C_7
REMARK    3  A    between atoms: C_7  and  C_8
REMARK    4  A    between atoms: C_8  and  C_9
REMARK    5  A    between atoms: C_13  and  C_14
REMARK    6  A    between atoms: C_14  and  C_15
REMARK    7  A    between atoms: C_15  and  O_16
REMARK                            x       y       z     vdW  Elec       q    Type
REMARK                         _______ _______ _______ _____ _____    ______ ____
ROOT
ATOM      1  C   UNL     1      44.408   4.391  10.355  0.00  0.00    +0.000 A 
ATOM      2  C   UNL     1      43.551   3.799  11.296  0.00  0.00    +0.000 A 
ATOM      3  C   UNL     1      43.345   4.388  12.545  0.00  0.00    +0.000 A 
ATOM      4  C   UNL     1      44.002   5.571  12.877  0.00  0.00    +0.000 A 
ATOM      5  C   UNL     1      44.857   6.187  11.956  0.00  0.00    +0.000 A 
ATOM      6  C   UNL     1      45.020   5.610  10.686  0.00  0.00    +0.000 A 
ENDROOT
BRANCH   1   7
ATOM      7  C   UNL     1      44.608   3.709   9.015  0.00  0.00    +0.000 C 
BRANCH   7   8
ATOM      8  C   UNL     1      45.799   4.219   8.195  0.00  0.00    +0.000 C 
BRANCH   8  14
ATOM      9  C   UNL     1      46.896  -0.479   7.670  0.00  0.00    +0.000 C 
ATOM     10  C   UNL     1      46.909   0.891   7.066  0.00  0.00    +0.000 A 
ATOM     11  C   UNL     1      47.393   1.107   5.780  0.00  0.00    +0.000 A 
ATOM     12  C   UNL     1      47.374   2.399   5.270  0.00  0.00    +0.000 A 
ATOM     13  C   UNL     1      46.869   3.438   6.046  0.00  0.00    +0.000 A 
ATOM     14  C   UNL     1      46.393   3.147   7.319  0.00  0.00    +0.000 A 
ATOM     15  N   UNL     1      46.417   1.894   7.836  0.00  0.00    +0.000 NA
ENDBRANCH   8  14
ENDBRANCH   7   8
ENDBRANCH   1   7
BRANCH   5  16
ATOM     16  C   UNL     1      45.634   7.426  12.340  0.00  0.00    +0.000 C 
BRANCH  16  17
ATOM     17  C   UNL     1      45.041   8.732  11.816  0.00  0.00    +0.000 C 
BRANCH  17  18
ATOM     18  O   UNL     1      44.715   9.621  12.877  0.00  0.00    +0.000 OA
ATOM     19  H   UNL     1      45.493   9.650  13.464  0.00  0.00    +0.000 HD
ENDBRANCH  17  18
ENDBRANCH  16  17
ENDBRANCH   5  16
TORSDOF 6
ENDMDL
MODEL 8
REMARK VINA RESULT:    -6.349      3.383      6.652
REMARK INTER + INTRA:          -8.679
REMARK INTER:                  -8.071
REMARK INTRA:                  -0.608
REMARK UNBOUND:                -0.288
REMARK  Name = 
REMARK  7 active torsions:
REMARK  status: ('A' for Active; 'I' for Inactive)
REMARK    1  A    between atoms: C_1  and  C_2
REMARK    2  A    between atoms: C_6  and  C_7
REMARK    3  A    between atoms: C_7  and  C_8
REMARK    4  A    between atoms: C_8  and  C_9
REMARK    5  A    between atoms: C_13  and  C_14
REMARK    6  A    between atoms: C_14  and  C_15
REMARK    7  A    between atoms: C_15  and  O_16
REMARK                            x       y       z     vdW  Elec       q    Type
REMARK                         _______ _______ _______ _____ _____    ______ ____
ROOT
ATOM      1  C   UNL     1      45.487   5.625  12.901  0.00  0.00    +0.000 A 
ATOM      2  C   UNL     1      46.285   6.774  12.781  0.00  0.00    +0.000 A 
ATOM      3  C   UNL     1      47.463   6.907  13.518  0.00  0.00    +0.000 A 
ATOM      4  C   UNL     1      47.854   5.900  14.398  0.00  0.00    +0.000 A 
ATOM      5  C   UNL     1      47.081   4.741  14.535  0.00  0.00    +0.000 A 
ATOM      6  C   UNL     1      45.923   4.599  13.753  0.00  0.00    +0.000 A 
ENDROOT
BRANCH   1   7
ATOM      7  C   UNL     1      44.211   5.530  12.087  0.00  0.00    +0.000 C 
BRANCH   7   8
ATOM      8  C   UNL     1      44.377   5.775  10.582  0.00  0.00    +0.000 C 
BRANCH   8  14
ATOM      9  C   UNL     1      46.699   3.716   6.851  0.00  0.00    +0.000 C 
ATOM     10  C   UNL     1      45.814   3.523   8.044  0.00  0.00    +0.000 A 
ATOM     11  C   UNL     1      45.381   2.257   8.421  0.00  0.00    +0.000 A 
ATOM     12  C   UNL     1      44.567   2.138   9.541  0.00  0.00    +0.000 A 
ATOM     13  C   UNL     1      44.213   3.277  10.258  0.00  0.00    +0.000 A 
ATOM     14  C   UNL     1      44.692   4.509   9.828  0.00  0.00    +0.000 A 
ATOM     15  N   UNL     1      45.476   4.643   8.730  0.00  0.00    +0.000 NA
ENDBRANCH   8  14
ENDBRANCH   7   8
ENDBRANCH   1   7
BRANCH   5  16
ATOM     16  C   UNL     1      47.458   3.683  15.547  0.00  0.00    +0.000 C 
BRANCH  16  17
ATOM     17  C   UNL     1      47.116   4.039  16.992  0.00  0.00    +0.000 C 
BRANCH  17  18
ATOM     18  O   UNL     1      46.632   2.909  17.709  0.00  0.00    +0.000 OA
ATOM     19  H   UNL     1      46.059   3.254  18.417  0.00  0.00    +0.000 HD
ENDBRANCH  17  18
ENDBRANCH  16  17
ENDBRANCH   5  16
TORSDOF 6
ENDMDL
MODEL 9
REMARK VINA RESULT:    -6.004      3.325      5.110
REMARK INTER + INTRA:          -8.223
REMARK INTER:                  -7.899
REMARK INTRA:                  -0.323
REMARK UNBOUND:                -0.288
REMARK  Name = 
REMARK  7 active torsions:
REMARK  status: ('A' for Active; 'I' for Inactive)
REMARK    1  A    between atoms: C_1  and  C_2
REMARK    2  A    between atoms: C_6  and  C_7
REMARK    3  A    between atoms: C_7  and  C_8
REMARK    4  A    between atoms: C_8  and  C_9
REMARK    5  A    between atoms: C_13  and  C_14
REMARK    6  A    between atoms: C_14  and  C_15
REMARK    7  A    between atoms: C_15  and  O_16
REMARK                            x       y       z     vdW  Elec       q    Type
REMARK                         _______ _______ _______ _____ _____    ______ ____
ROOT
ATOM      1  C   UNL     1      45.184   4.692  12.888  0.00  0.00    +0.000 A 
ATOM      2  C   UNL     1      44.060   5.531  12.959  0.00  0.00    +0.000 A 
ATOM      3  C   UNL     1      43.060   5.469  11.988  0.00  0.00    +0.000 A 
ATOM      4  C   UNL     1      43.172   4.576  10.924  0.00  0.00    +0.000 A 
ATOM      5  C   UNL     1      44.278   3.724  10.831  0.00  0.00    +0.000 A 
ATOM      6  C   UNL     1      45.255   3.763  11.839  0.00  0.00    +0.000 A 
ENDROOT
BRANCH   1   7
ATOM      7  C   UNL     1      46.250   4.803  13.960  0.00  0.00    +0.000 C 
BRANCH   7   8
ATOM      8  C   UNL     1      47.027   3.511  14.245  0.00  0.00    +0.000 C 
BRANCH   8  14
ATOM      9  C   UNL     1      50.452   1.797  17.225  0.00  0.00    +0.000 C 
ATOM     10  C   UNL     1      49.240   2.661  17.066  0.00  0.00    +0.000 A 
ATOM     11  C   UNL     1      48.737   3.398  18.133  0.00  0.00    +0.000 A 
ATOM     12  C   UNL     1      47.613   4.189  17.925  0.00  0.00    +0.000 A 
ATOM     13  C   UNL     1      47.026   4.232  16.663  0.00  0.00    +0.000 A 
ATOM     14  C   UNL     1      47.591   3.478  15.642  0.00  0.00    +0.000 A 
ATOM     15  N   UNL     1      48.678   2.691  15.832  0.00  0.00    +0.000 NA
ENDBRANCH   8  14
ENDBRANCH   7   8
ENDBRANCH   1   7
BRANCH   5  16
ATOM     16  C   UNL     1      44.444   2.811   9.636  0.00  0.00    +0.000 C 
BRANCH  16  17
ATOM     17  C   UNL     1      45.304   3.389   8.514  0.00  0.00    +0.000 C 
BRANCH  17  18
ATOM     18  O   UNL     1      45.202   4.806   8.455  0.00  0.00    +0.000 OA
ATOM     19  H   UNL     1      46.060   5.159   8.753  0.00  0.00    +0.000 HD
ENDBRANCH  17  18
ENDBRANCH  16  17
ENDBRANCH   5  16
TORSDOF 6
ENDMDL
