MODEL 1
REMARK VINA RESULT:    -6.853      0.000      0.000
REMARK INTER + INTRA:          -9.078
REMARK INTER:                  -8.456
REMARK INTRA:                  -0.622
REMARK UNBOUND:                -0.622
REMARK  Name = 
REMARK  4 active torsions:
REMARK  status: ('A' for Active; 'I' for Inactive)
REMARK    1  A    between atoms: C_2  and  C_5
REMARK    2  A    between atoms: C_9  and  C_10
REMARK    3  A    between atoms: C_11  and  C_12
REMARK    4  A    between atoms: C_16  and  C_17
REMARK                            x       y       z     vdW  Elec       q    Type
REMARK                         _______ _______ _______ _____ _____    ______ ____
ROOT
ATOM      1  C   UNL     1      47.689   4.056  15.883  0.00  0.00    +0.000 A 
ATOM      2  C   UNL     1      48.156   2.750  16.005  0.00  0.00    +0.000 A 
ATOM      3  C   UNL     1      49.072   2.439  17.002  0.00  0.00    +0.000 A 
ATOM      4  C   UNL     1      49.494   3.426  17.895  0.00  0.00    +0.000 A 
ATOM      5  C   UNL     1      48.975   4.731  17.844  0.00  0.00    +0.000 A 
ATOM      6  C   UNL     1      48.103   5.039  16.786  0.00  0.00    +0.000 A 
ENDROOT
BRANCH   5   7
ATOM      7  C   UNL     1      49.315   5.808  18.877  0.00  0.00    +0.000 C 
ATOM      8  C   UNL     1      49.800   5.301  20.250  0.00  0.00    +0.000 C 
ATOM      9  C   UNL     1      48.670   4.680  21.079  0.00  0.00    +0.000 C 
ATOM     10  N   UNL     1      47.529   5.579  21.251  0.00  0.00    +0.000 NA
ATOM     11  C   UNL     1      47.033   6.088  19.971  0.00  0.00    +0.000 C 
ATOM     12  C   UNL     1      48.131   6.762  19.146  0.00  0.00    +0.000 C 
ATOM     13  H   UNL     1      47.804   6.362  21.842  0.00  0.00    +0.000 HD
ENDBRANCH   5   7
BRANCH   1  15
ATOM     14  C   UNL     1      46.005   4.568  13.939  0.00  0.00    +0.000 C 
ATOM     15  C   UNL     1      46.773   4.372  14.837  0.00  0.00    +0.000 C 
BRANCH  14  20
ATOM     16  C   UNL     1      44.592   4.592  10.486  0.00  0.00    +0.000 A 
ATOM     17  C   UNL     1      43.296   5.064  10.752  0.00  0.00    +0.000 A 
ATOM     18  C   UNL     1      42.904   5.367  12.057  0.00  0.00    +0.000 A 
ATOM     19  C   UNL     1      43.803   5.200  13.108  0.00  0.00    +0.000 A 
ATOM     20  C   UNL     1      45.093   4.732  12.856  0.00  0.00    +0.000 A 
ATOM     21  C   UNL     1      45.488   4.427  11.554  0.00  0.00    +0.000 A 
BRANCH  16  23
ATOM     22  F   UNL     1      44.027   4.296   8.169  0.00  0.00    +0.000 F 
ATOM     23  C   UNL     1      45.036   4.264   9.084  0.00  0.00    +0.000 C 
ATOM     24  F   UNL     1      45.585   3.021   8.991  0.00  0.00    +0.000 F 
ATOM     25  F   UNL     1      45.984   5.126   8.623  0.00  0.00    +0.000 F 
ENDBRANCH  16  23
ENDBRANCH  14  20
ENDBRANCH   1  15
TORSDOF 4
ENDMDL
MODEL 2
REMARK VINA RESULT:    -6.513      5.214      9.058
REMARK INTER + INTRA:          -8.658
REMARK INTER:                  -8.226
REMARK INTRA:                  -0.432
REMARK UNBOUND:                -0.622
REMARK  Name = 
REMARK  4 active torsions:
REMARK  status: ('A' for Active; 'I' for Inactive)
REMARK    1  A    between atoms: C_2  and  C_5
REMARK    2  A    between atoms: C_9  and  C_10
REMARK    3  A    between atoms: C_11  and  C_12
REMARK    4  A    between atoms: C_16  and  C_17
REMARK                            x       y       z     vdW  Elec       q    Type
REMARK                         _______ _______ _______ _____ _____    ______ ____
ROOT
ATOM      1  C   UNL     1      46.885   5.576  13.308  0.00  0.00    +0.000 A 
ATOM      2  C   UNL     1      47.696   6.447  12.587  0.00  0.00    +0.000 A 
ATOM      3  C   UNL     1      47.328   6.820  11.301  0.00  0.00    +0.000 A 
ATOM      4  C   UNL     1      46.134   6.348  10.751  0.00  0.00    +0.000 A 
ATOM      5  C   UNL     1      45.259   5.534  11.490  0.00  0.00    +0.000 A 
ATOM      6  C   UNL     1      45.685   5.115  12.762  0.00  0.00    +0.000 A 
ENDROOT
BRANCH   5   7
ATOM      7  C   UNL     1      43.887   5.097  10.973  0.00  0.00    +0.000 C 
ATOM      8  C   UNL     1      43.012   4.300  11.961  0.00  0.00    +0.000 C 
ATOM      9  C   UNL     1      43.527   2.873  12.181  0.00  0.00    +0.000 C 
ATOM     10  N   UNL     1      43.682   2.125  10.933  0.00  0.00    +0.000 NA
ATOM     11  C   UNL     1      44.507   2.845   9.960  0.00  0.00    +0.000 C 
ATOM     12  C   UNL     1      43.983   4.255   9.681  0.00  0.00    +0.000 C 
ATOM     13  H   UNL     1      42.763   1.947  10.531  0.00  0.00    +0.000 HD
ENDBRANCH   5   7
BRANCH   1  15
ATOM     14  C   UNL     1      47.586   4.892  15.741  0.00  0.00    +0.000 C 
ATOM     15  C   UNL     1      47.287   5.174  14.617  0.00  0.00    +0.000 C 
BRANCH  14  20
ATOM     16  C   UNL     1      48.025   5.303  19.424  0.00  0.00    +0.000 A 
ATOM     17  C   UNL     1      48.524   4.034  19.757  0.00  0.00    +0.000 A 
ATOM     18  C   UNL     1      48.710   3.062  18.772  0.00  0.00    +0.000 A 
ATOM     19  C   UNL     1      48.398   3.350  17.446  0.00  0.00    +0.000 A 
ATOM     20  C   UNL     1      47.900   4.607  17.103  0.00  0.00    +0.000 A 
ATOM     21  C   UNL     1      47.712   5.581  18.083  0.00  0.00    +0.000 A 
BRANCH  16  23
ATOM     22  F   UNL     1      46.994   5.987  21.484  0.00  0.00    +0.000 F 
ATOM     23  C   UNL     1      47.821   6.368  20.471  0.00  0.00    +0.000 C 
ATOM     24  F   UNL     1      47.280   7.507  19.956  0.00  0.00    +0.000 F 
ATOM     25  F   UNL     1      48.988   6.743  21.064  0.00  0.00    +0.000 F 
ENDBRANCH  16  23
ENDBRANCH  14  20
ENDBRANCH   1  15
TORSDOF 4
ENDMDL
MODEL 3
REMARK VINA RESULT:    -6.454      1.213      1.798
REMARK INTER + INTRA:          -8.586
REMARK INTER:                  -7.978
REMARK INTRA:                  -0.608
REMARK UNBOUND:                -0.622
REMARK  Name = 
REMARK  4 active torsions:
REMARK  status: ('A' for Active; 'I' for Inactive)
REMARK    1  A    between atoms: C_2  and  C_5
REMARK    2  A    between atoms: C_9  and  C_10
REMARK    3  A    between atoms: C_11  and  C_12
REMARK    4  A    between atoms: C_16  and  C_17
REMARK                            x       y       z     vdW  Elec       q    Type
REMARK                         _______ _______ _______ _____ _____    ______ ____
ROOT
ATOM      1  C   UNL     1      47.531   3.968  16.009  0.00  0.00    +0.000 A 
ATOM      2  C   UNL     1      48.327   2.830  16.114  0.00  0.00    +0.000 A 
ATOM      3  C   UNL     1      49.065   2.614  17.270  0.00  0.00    +0.000 A 
ATOM      4  C   UNL     1      48.982   3.518  18.331  0.00  0.00    +0.000 A 
ATOM      5  C   UNL     1      48.124   4.629  18.281  0.00  0.00    +0.000 A 
ATOM      6  C   UNL     1      47.440   4.864  17.076  0.00  0.00    +0.000 A 
ENDROOT
BRANCH   5   7
ATOM      7  C   UNL     1      47.909   5.574  19.466  0.00  0.00    +0.000 C 
ATOM      8  C   UNL     1      47.455   7.006  19.118  0.00  0.00    +0.000 C 
ATOM      9  C   UNL     1      48.578   7.840  18.490  0.00  0.00    +0.000 C 
ATOM     10  N   UNL     1      49.785   7.884  19.315  0.00  0.00    +0.000 NA
ATOM     11  C   UNL     1      50.254   6.543  19.673  0.00  0.00    +0.000 C 
ATOM     12  C   UNL     1      49.168   5.706  20.351  0.00  0.00    +0.000 C 
ATOM     13  H   UNL     1      49.593   8.412  20.165  0.00  0.00    +0.000 HD
ENDBRANCH   5   7
BRANCH   1  15
ATOM     14  C   UNL     1      46.132   4.355  13.825  0.00  0.00    +0.000 C 
ATOM     15  C   UNL     1      46.801   4.196  14.805  0.00  0.00    +0.000 C 
BRANCH  14  20
ATOM     16  C   UNL     1      44.548   3.800  10.492  0.00  0.00    +0.000 A 
ATOM     17  C   UNL     1      43.611   4.845  10.486  0.00  0.00    +0.000 A 
ATOM     18  C   UNL     1      43.510   5.716  11.573  0.00  0.00    +0.000 A 
ATOM     19  C   UNL     1      44.345   5.549  12.675  0.00  0.00    +0.000 A 
ATOM     20  C   UNL     1      45.280   4.514  12.692  0.00  0.00    +0.000 A 
ATOM     21  C   UNL     1      45.383   3.641  11.609  0.00  0.00    +0.000 A 
BRANCH  16  23
ATOM     22  F   UNL     1      44.270   3.385   8.142  0.00  0.00    +0.000 F 
ATOM     23  C   UNL     1      44.676   2.851   9.327  0.00  0.00    +0.000 C 
ATOM     24  F   UNL     1      43.940   1.718   9.498  0.00  0.00    +0.000 F 
ATOM     25  F   UNL     1      45.958   2.438   9.132  0.00  0.00    +0.000 F 
ENDBRANCH  16  23
ENDBRANCH  14  20
ENDBRANCH   1  15
TORSDOF 4
ENDMDL
MODEL 4
REMARK VINA RESULT:    -6.413      2.001      2.841
REMARK INTER + INTRA:          -8.535
REMARK INTER:                  -7.964
REMARK INTRA:                  -0.571
REMARK UNBOUND:                -0.622
REMARK  Name = 
REMARK  4 active torsions:
REMARK  status: ('A' for Active; 'I' for Inactive)
REMARK    1  A    between atoms: C_2  and  C_5
REMARK    2  A    between atoms: C_9  and  C_10
REMARK    3  A    between atoms: C_11  and  C_12
REMARK    4  A    between atoms: C_16  and  C_17
REMARK                            x       y       z     vdW  Elec       q    Type
REMARK                         _______ _______ _______ _____ _____    ______ ____
ROOT
ATOM      1  C   UNL     1      48.504   6.382  14.939  0.00  0.00    +0.000 A 
ATOM      2  C   UNL     1      49.530   7.235  14.540  0.00  0.00    +0.000 A 
ATOM      3  C   UNL     1      50.591   7.481  15.401  0.00  0.00    +0.000 A 
ATOM      4  C   UNL     1      50.642   6.850  16.646  0.00  0.00    +0.000 A 
ATOM      5  C   UNL     1      49.661   5.922  17.038  0.00  0.00    +0.000 A 
ATOM      6  C   UNL     1      48.563   5.742  16.179  0.00  0.00    +0.000 A 
ENDROOT
BRANCH   5   7
ATOM      7  C   UNL     1      49.743   5.116  18.336  0.00  0.00    +0.000 C 
ATOM      8  C   UNL     1      51.150   4.645  18.754  0.00  0.00    +0.000 C 
ATOM      9  C   UNL     1      51.677   3.512  17.866  0.00  0.00    +0.000 C 
ATOM     10  N   UNL     1      50.766   2.370  17.799  0.00  0.00    +0.000 NA
ATOM     11  C   UNL     1      49.413   2.770  17.405  0.00  0.00    +0.000 C 
ATOM     12  C   UNL     1      48.841   3.863  18.309  0.00  0.00    +0.000 C 
ATOM     13  H   UNL     1      50.732   1.913  18.708  0.00  0.00    +0.000 HD
ENDBRANCH   5   7
BRANCH   1  15
ATOM     14  C   UNL     1      46.504   5.908  13.311  0.00  0.00    +0.000 C 
ATOM     15  C   UNL     1      47.403   6.160  14.060  0.00  0.00    +0.000 C 
BRANCH  14  20
ATOM     16  C   UNL     1      44.735   4.684  10.262  0.00  0.00    +0.000 A 
ATOM     17  C   UNL     1      43.400   4.835  10.673  0.00  0.00    +0.000 A 
ATOM     18  C   UNL     1      43.099   5.334  11.941  0.00  0.00    +0.000 A 
ATOM     19  C   UNL     1      44.128   5.687  12.810  0.00  0.00    +0.000 A 
ATOM     20  C   UNL     1      45.458   5.541  12.413  0.00  0.00    +0.000 A 
ATOM     21  C   UNL     1      45.764   5.042  11.147  0.00  0.00    +0.000 A 
BRANCH  16  23
ATOM     22  F   UNL     1      45.436   2.836   8.895  0.00  0.00    +0.000 F 
ATOM     23  C   UNL     1      45.081   4.151   8.895  0.00  0.00    +0.000 C 
ATOM     24  F   UNL     1      46.123   4.819   8.326  0.00  0.00    +0.000 F 
ATOM     25  F   UNL     1      44.045   4.257   8.018  0.00  0.00    +0.000 F 
ENDBRANCH  16  23
ENDBRANCH  14  20
ENDBRANCH   1  15
TORSDOF 4
ENDMDL
MODEL 5
REMARK VINA RESULT:    -6.195      5.031      8.931
REMARK INTER + INTRA:          -8.265
REMARK INTER:                  -7.681
REMARK INTRA:                  -0.585
REMARK UNBOUND:                -0.622
REMARK  Name = 
REMARK  4 active torsions:
REMARK  status: ('A' for Active; 'I' for Inactive)
REMARK    1  A    between atoms: C_2  and  C_5
REMARK    2  A    between atoms: C_9  and  C_10
REMARK    3  A    between atoms: C_11  and  C_12
REMARK    4  A    between atoms: C_16  and  C_17
REMARK                            x       y       z     vdW  Elec       q    Type
REMARK                         _______ _______ _______ _____ _____    ______ ____
ROOT
ATOM      1  C   UNL     1      47.090   5.815  13.660  0.00  0.00    +0.000 A 
ATOM      2  C   UNL     1      47.885   6.510  12.753  0.00  0.00    +0.000 A 
ATOM      3  C   UNL     1      47.408   6.759  11.473  0.00  0.00    +0.000 A 
ATOM      4  C   UNL     1      46.126   6.340  11.112  0.00  0.00    +0.000 A 
ATOM      5  C   UNL     1      45.274   5.709  12.034  0.00  0.00    +0.000 A 
ATOM      6  C   UNL     1      45.803   5.408  13.301  0.00  0.00    +0.000 A 
ENDROOT
BRANCH   5   7
ATOM      7  C   UNL     1      43.821   5.346  11.719  0.00  0.00    +0.000 C 
ATOM      8  C   UNL     1      43.149   4.342  12.677  0.00  0.00    +0.000 C 
ATOM      9  C   UNL     1      43.681   2.915  12.497  0.00  0.00    +0.000 C 
ATOM     10  N   UNL     1      43.576   2.439  11.118  0.00  0.00    +0.000 NA
ATOM     11  C   UNL     1      44.201   3.363  10.169  0.00  0.00    +0.000 C 
ATOM     12  C   UNL     1      43.650   4.785  10.290  0.00  0.00    +0.000 C 
ATOM     13  H   UNL     1      42.594   2.319  10.876  0.00  0.00    +0.000 HD
ENDBRANCH   5   7
BRANCH   1  15
ATOM     14  C   UNL     1      48.096   5.314  16.030  0.00  0.00    +0.000 C 
ATOM     15  C   UNL     1      47.601   5.538  14.963  0.00  0.00    +0.000 C 
BRANCH  14  20
ATOM     16  C   UNL     1      50.680   4.274  18.513  0.00  0.00    +0.000 A 
ATOM     17  C   UNL     1      50.006   4.568  19.709  0.00  0.00    +0.000 A 
ATOM     18  C   UNL     1      48.717   5.103  19.686  0.00  0.00    +0.000 A 
ATOM     19  C   UNL     1      48.090   5.349  18.467  0.00  0.00    +0.000 A 
ATOM     20  C   UNL     1      48.749   5.061  17.272  0.00  0.00    +0.000 A 
ATOM     21  C   UNL     1      50.038   4.527  17.290  0.00  0.00    +0.000 A 
BRANCH  16  23
ATOM     22  F   UNL     1      52.934   4.335  17.682  0.00  0.00    +0.000 F 
ATOM     23  C   UNL     1      52.071   3.692  18.516  0.00  0.00    +0.000 C 
ATOM     24  F   UNL     1      52.087   2.384  18.135  0.00  0.00    +0.000 F 
ATOM     25  F   UNL     1      52.646   3.729  19.750  0.00  0.00    +0.000 F 
ENDBRANCH  16  23
ENDBRANCH  14  20
ENDBRANCH   1  15
TORSDOF 4
ENDMDL
MODEL 6
REMARK VINA RESULT:    -6.005      6.098      8.451
REMARK INTER + INTRA:          -8.032
REMARK INTER:                  -7.514
REMARK INTRA:                  -0.518
REMARK UNBOUND:                -0.622
REMARK  Name = 
REMARK  4 active torsions:
REMARK  status: ('A' for Active; 'I' for Inactive)
REMARK    1  A    between atoms: C_2  and  C_5
REMARK    2  A    between atoms: C_9  and  C_10
REMARK    3  A    between atoms: C_11  and  C_12
REMARK    4  A    between atoms: C_16  and  C_17
REMARK                            x       y       z     vdW  Elec       q    Type
REMARK                         _______ _______ _______ _____ _____    ______ ____
ROOT
ATOM      1  C   UNL     1      47.494   7.522  12.074  0.00  0.00    +0.000 A 
ATOM      2  C   UNL     1      46.682   8.650  12.149  0.00  0.00    +0.000 A 
ATOM      3  C   UNL     1      45.328   8.505  12.418  0.00  0.00    +0.000 A 
ATOM      4  C   UNL     1      44.793   7.234  12.643  0.00  0.00    +0.000 A 
ATOM      5  C   UNL     1      45.607   6.088  12.654  0.00  0.00    +0.000 A 
ATOM      6  C   UNL     1      46.960   6.253  12.312  0.00  0.00    +0.000 A 
ENDROOT
BRANCH   5   7
ATOM      7  C   UNL     1      45.086   4.697  13.018  0.00  0.00    +0.000 C 
ATOM      8  C   UNL     1      45.491   3.551  12.069  0.00  0.00    +0.000 C 
ATOM      9  C   UNL     1      44.756   3.616  10.725  0.00  0.00    +0.000 C 
ATOM     10  N   UNL     1      43.301   3.653  10.873  0.00  0.00    +0.000 NA
ATOM     11  C   UNL     1      42.868   4.728  11.769  0.00  0.00    +0.000 C 
ATOM     12  C   UNL     1      43.546   4.655  13.138  0.00  0.00    +0.000 C 
ATOM     13  H   UNL     1      42.976   2.759  11.237  0.00  0.00    +0.000 HD
ENDBRANCH   5   7
BRANCH   1  15
ATOM     14  C   UNL     1      50.041   7.743  11.491  0.00  0.00    +0.000 C 
ATOM     15  C   UNL     1      48.878   7.680  11.767  0.00  0.00    +0.000 C 
BRANCH  14  20
ATOM     16  C   UNL     1      53.223   7.098   9.652  0.00  0.00    +0.000 A 
ATOM     17  C   UNL     1      54.131   7.772  10.484  0.00  0.00    +0.000 A 
ATOM     18  C   UNL     1      53.689   8.427  11.635  0.00  0.00    +0.000 A 
ATOM     19  C   UNL     1      52.336   8.416  11.964  0.00  0.00    +0.000 A 
ATOM     20  C   UNL     1      51.424   7.751  11.143  0.00  0.00    +0.000 A 
ATOM     21  C   UNL     1      51.861   7.095   9.993  0.00  0.00    +0.000 A 
BRANCH  16  23
ATOM     22  F   UNL     1      52.660   5.996   7.593  0.00  0.00    +0.000 F 
ATOM     23  C   UNL     1      53.681   6.381   8.407  0.00  0.00    +0.000 C 
ATOM     24  F   UNL     1      54.382   5.248   8.689  0.00  0.00    +0.000 F 
ATOM     25  F   UNL     1      54.502   7.148   7.639  0.00  0.00    +0.000 F 
ENDBRANCH  16  23
ENDBRANCH  14  20
ENDBRANCH   1  15
TORSDOF 4
ENDMDL
MODEL 7
REMARK VINA RESULT:    -5.865      1.761      2.540
REMARK INTER + INTRA:          -7.859
REMARK INTER:                  -7.437
REMARK INTRA:                  -0.422
REMARK UNBOUND:                -0.622
REMARK  Name = 
REMARK  4 active torsions:
REMARK  status: ('A' for Active; 'I' for Inactive)
REMARK    1  A    between atoms: C_2  and  C_5
REMARK    2  A    between atoms: C_9  and  C_10
REMARK    3  A    between atoms: C_11  and  C_12
REMARK    4  A    between atoms: C_16  and  C_17
REMARK                            x       y       z     vdW  Elec       q    Type
REMARK                         _______ _______ _______ _____ _____    ______ ____
ROOT
ATOM      1  C   UNL     1      48.456   6.630  14.848  0.00  0.00    +0.000 A 
ATOM      2  C   UNL     1      49.051   7.875  14.670  0.00  0.00    +0.000 A 
ATOM      3  C   UNL     1      50.043   8.294  15.547  0.00  0.00    +0.000 A 
ATOM      4  C   UNL     1      50.460   7.453  16.581  0.00  0.00    +0.000 A 
ATOM      5  C   UNL     1      49.933   6.159  16.732  0.00  0.00    +0.000 A 
ATOM      6  C   UNL     1      48.883   5.785  15.874  0.00  0.00    +0.000 A 
ENDROOT
BRANCH   5   7
ATOM      7  C   UNL     1      50.448   5.162  17.771  0.00  0.00    +0.000 C 
ATOM      8  C   UNL     1      49.864   3.737  17.692  0.00  0.00    +0.000 C 
ATOM      9  C   UNL     1      48.406   3.674  18.164  0.00  0.00    +0.000 C 
ATOM     10  N   UNL     1      48.220   4.218  19.509  0.00  0.00    +0.000 NA
ATOM     11  C   UNL     1      48.761   5.573  19.633  0.00  0.00    +0.000 C 
ATOM     12  C   UNL     1      50.232   5.654  19.219  0.00  0.00    +0.000 C 
ATOM     13  H   UNL     1      48.676   3.608  20.186  0.00  0.00    +0.000 HD
ENDBRANCH   5   7
BRANCH   1  15
ATOM     14  C   UNL     1      46.500   5.879  13.270  0.00  0.00    +0.000 C 
ATOM     15  C   UNL     1      47.417   6.223  13.959  0.00  0.00    +0.000 C 
BRANCH  14  20
ATOM     16  C   UNL     1      44.426   4.437  10.524  0.00  0.00    +0.000 A 
ATOM     17  C   UNL     1      43.139   4.690  11.027  0.00  0.00    +0.000 A 
ATOM     18  C   UNL     1      42.969   5.328  12.257  0.00  0.00    +0.000 A 
ATOM     19  C   UNL     1      44.083   5.718  12.995  0.00  0.00    +0.000 A 
ATOM     20  C   UNL     1      45.367   5.472  12.506  0.00  0.00    +0.000 A 
ATOM     21  C   UNL     1      45.541   4.834  11.278  0.00  0.00    +0.000 A 
BRANCH  16  23
ATOM     22  F   UNL     1      44.263   2.442   9.195  0.00  0.00    +0.000 F 
ATOM     23  C   UNL     1      44.630   3.753   9.196  0.00  0.00    +0.000 C 
ATOM     24  F   UNL     1      45.932   3.777   8.796  0.00  0.00    +0.000 F 
ATOM     25  F   UNL     1      43.920   4.341   8.194  0.00  0.00    +0.000 F 
ENDBRANCH  16  23
ENDBRANCH  14  20
ENDBRANCH   1  15
TORSDOF 4
ENDMDL
MODEL 8
REMARK VINA RESULT:    -5.665      2.588      3.388
REMARK INTER + INTRA:          -7.612
REMARK INTER:                  -7.042
REMARK INTRA:                  -0.571
REMARK UNBOUND:                -0.622
REMARK  Name = 
REMARK  4 active torsions:
REMARK  status: ('A' for Active; 'I' for Inactive)
REMARK    1  A    between atoms: C_2  and  C_5
REMARK    2  A    between atoms: C_9  and  C_10
REMARK    3  A    between atoms: C_11  and  C_12
REMARK    4  A    between atoms: C_16  and  C_17
REMARK                            x       y       z     vdW  Elec       q    Type
REMARK                         _______ _______ _______ _____ _____    ______ ____
ROOT
ATOM      1  C   UNL     1      48.425   4.794  16.943  0.00  0.00    +0.000 A 
ATOM      2  C   UNL     1      47.876   4.058  17.990  0.00  0.00    +0.000 A 
ATOM      3  C   UNL     1      48.526   4.017  19.215  0.00  0.00    +0.000 A 
ATOM      4  C   UNL     1      49.708   4.738  19.403  0.00  0.00    +0.000 A 
ATOM      5  C   UNL     1      50.238   5.553  18.388  0.00  0.00    +0.000 A 
ATOM      6  C   UNL     1      49.600   5.524  17.136  0.00  0.00    +0.000 A 
ENDROOT
BRANCH   5   7
ATOM      7  C   UNL     1      51.458   6.454  18.591  0.00  0.00    +0.000 C 
ATOM      8  C   UNL     1      52.445   6.536  17.409  0.00  0.00    +0.000 C 
ATOM      9  C   UNL     1      53.262   5.250  17.237  0.00  0.00    +0.000 C 
ATOM     10  N   UNL     1      53.971   4.859  18.454  0.00  0.00    +0.000 NA
ATOM     11  C   UNL     1      53.072   4.768  19.608  0.00  0.00    +0.000 C 
ATOM     12  C   UNL     1      52.283   6.059  19.836  0.00  0.00    +0.000 C 
ATOM     13  H   UNL     1      54.704   5.537  18.651  0.00  0.00    +0.000 HD
ENDBRANCH   5   7
BRANCH   1  15
ATOM     14  C   UNL     1      47.202   4.884  14.625  0.00  0.00    +0.000 C 
ATOM     15  C   UNL     1      47.765   4.804  15.679  0.00  0.00    +0.000 C 
BRANCH  14  20
ATOM     16  C   UNL     1      44.825   4.354  11.798  0.00  0.00    +0.000 A 
ATOM     17  C   UNL     1      45.232   5.385  10.935  0.00  0.00    +0.000 A 
ATOM     18  C   UNL     1      46.278   6.238  11.292  0.00  0.00    +0.000 A 
ATOM     19  C   UNL     1      46.926   6.069  12.513  0.00  0.00    +0.000 A 
ATOM     20  C   UNL     1      46.530   5.049  13.378  0.00  0.00    +0.000 A 
ATOM     21  C   UNL     1      45.485   4.195  13.027  0.00  0.00    +0.000 A 
BRANCH  16  23
ATOM     22  F   UNL     1      42.492   4.037  11.316  0.00  0.00    +0.000 F 
ATOM     23  C   UNL     1      43.701   3.420  11.430  0.00  0.00    +0.000 C 
ATOM     24  F   UNL     1      43.528   2.428  12.348  0.00  0.00    +0.000 F 
ATOM     25  F   UNL     1      43.913   2.794  10.240  0.00  0.00    +0.000 F 
ENDBRANCH  16  23
ENDBRANCH  14  20
ENDBRANCH   1  15
TORSDOF 4
ENDMDL
MODEL 9
REMARK VINA RESULT:    -5.447      3.522      4.177
REMARK INTER + INTRA:          -7.342
REMARK INTER:                  -6.781
REMARK INTRA:                  -0.561
REMARK UNBOUND:                -0.622
REMARK  Name = 
REMARK  4 active torsions:
REMARK  status: ('A' for Active; 'I' for Inactive)
REMARK    1  A    between atoms: C_2  and  C_5
REMARK    2  A    between atoms: C_9  and  C_10
REMARK    3  A    between atoms: C_11  and  C_12
REMARK    4  A    between atoms: C_16  and  C_17
REMARK                            x       y       z     vdW  Elec       q    Type
REMARK                         _______ _______ _______ _____ _____    ______ ____
ROOT
ATOM      1  C   UNL     1      49.065   7.521  13.045  0.00  0.00    +0.000 A 
ATOM      2  C   UNL     1      49.898   7.962  12.021  0.00  0.00    +0.000 A 
ATOM      3  C   UNL     1      51.088   8.606  12.334  0.00  0.00    +0.000 A 
ATOM      4  C   UNL     1      51.459   8.778  13.670  0.00  0.00    +0.000 A 
ATOM      5  C   UNL     1      50.675   8.269  14.719  0.00  0.00    +0.000 A 
ATOM      6  C   UNL     1      49.443   7.683  14.380  0.00  0.00    +0.000 A 
ENDROOT
BRANCH   5   7
ATOM      7  C   UNL     1      51.103   8.325  16.187  0.00  0.00    +0.000 C 
ATOM      8  C   UNL     1      52.602   8.096  16.465  0.00  0.00    +0.000 C 
ATOM      9  C   UNL     1      53.018   6.634  16.266  0.00  0.00    +0.000 C 
ATOM     10  N   UNL     1      52.214   5.700  17.054  0.00  0.00    +0.000 NA
ATOM     11  C   UNL     1      50.779   5.882  16.823  0.00  0.00    +0.000 C 
ATOM     12  C   UNL     1      50.326   7.322  17.067  0.00  0.00    +0.000 C 
ATOM     13  H   UNL     1      52.416   5.833  18.043  0.00  0.00    +0.000 HD
ENDBRANCH   5   7
BRANCH   1  15
ATOM     14  C   UNL     1      46.820   6.346  12.368  0.00  0.00    +0.000 C 
ATOM     15  C   UNL     1      47.830   6.889  12.713  0.00  0.00    +0.000 C 
BRANCH  14  20
ATOM     16  C   UNL     1      44.543   4.268  10.266  0.00  0.00    +0.000 A 
ATOM     17  C   UNL     1      43.345   4.409  10.985  0.00  0.00    +0.000 A 
ATOM     18  C   UNL     1      43.300   5.182  12.146  0.00  0.00    +0.000 A 
ATOM     19  C   UNL     1      44.451   5.820  12.601  0.00  0.00    +0.000 A 
ATOM     20  C   UNL     1      45.648   5.686  11.895  0.00  0.00    +0.000 A 
ATOM     21  C   UNL     1      45.698   4.914  10.735  0.00  0.00    +0.000 A 
BRANCH  16  23
ATOM     22  F   UNL     1      44.003   4.023   7.937  0.00  0.00    +0.000 F 
ATOM     23  C   UNL     1      44.612   3.441   9.007  0.00  0.00    +0.000 C 
ATOM     24  F   UNL     1      44.023   2.222   9.155  0.00  0.00    +0.000 F 
ATOM     25  F   UNL     1      45.893   3.193   8.619  0.00  0.00    +0.000 F 
ENDBRANCH  16  23
ENDBRANCH  14  20
ENDBRANCH   1  15
TORSDOF 4
ENDMDL
