MODEL 1
REMARK VINA RESULT:    -8.257      0.000      0.000
REMARK INTER + INTRA:         -12.134
REMARK INTER:                 -11.153
REMARK INTRA:                  -0.982
REMARK UNBOUND:                -0.982
REMARK  Name = 
REMARK  6 active torsions:
REMARK  status: ('A' for Active; 'I' for Inactive)
REMARK    1  A    between atoms: C_2  and  C_19
REMARK    2  A    between atoms: N_3  and  C_4
REMARK    3  A    between atoms: C_4  and  C_5
REMARK    4  A    between atoms: C_8  and  O_9
REMARK    5  A    between atoms: O_9  and  C_10
REMARK    6  A    between atoms: C_10  and  C_11
REMARK                            x       y       z     vdW  Elec       q    Type
REMARK                         _______ _______ _______ _____ _____    ______ ____
ROOT
ATOM      1  O   UNL     1      49.202   6.638  13.408  0.00  0.00    +0.000 OA
ATOM      2  C   UNL     1      48.442   6.686  14.379  0.00  0.00    +0.000 C 
ATOM      3  N   UNL     1      47.155   7.142  14.288  0.00  0.00    +0.000 N 
ATOM      4  H   UNL     1      46.631   7.350  15.132  0.00  0.00    +0.000 HD
ENDROOT
BRANCH   2   5
ATOM      5  C   UNL     1      48.876   6.212  15.687  0.00  0.00    +0.000 A 
ATOM      6  C   UNL     1      49.833   6.889  16.429  0.00  0.00    +0.000 A 
ATOM      7  S   UNL     1      50.132   6.166  17.950  0.00  0.00    +0.000 S 
ATOM      8  C   UNL     1      48.975   4.951  17.659  0.00  0.00    +0.000 A 
ATOM      9  N   UNL     1      48.704   3.996  18.587  0.00  0.00    +0.000 NA
ATOM     10  C   UNL     1      47.785   3.158  18.235  0.00  0.00    +0.000 A 
ATOM     11  N   UNL     1      47.120   3.182  17.041  0.00  0.00    +0.000 N 
ATOM     12  C   UNL     1      47.409   4.076  16.043  0.00  0.00    +0.000 A 
ATOM     13  O   UNL     1      46.899   3.958  14.932  0.00  0.00    +0.000 OA
ATOM     14  C   UNL     1      48.399   5.072  16.412  0.00  0.00    +0.000 A 
ATOM     15  H   UNL     1      46.444   2.471  16.800  0.00  0.00    +0.000 HD
ENDBRANCH   2   5
BRANCH   3  16
ATOM     16  C   UNL     1      46.629   7.649  13.053  0.00  0.00    +0.000 C 
BRANCH  16  17
ATOM     17  C   UNL     1      46.013   6.593  12.170  0.00  0.00    +0.000 A 
ATOM     18  C   UNL     1      44.970   5.785  12.647  0.00  0.00    +0.000 A 
ATOM     19  C   UNL     1      44.318   4.874  11.806  0.00  0.00    +0.000 A 
ATOM     20  C   UNL     1      44.708   4.746  10.473  0.00  0.00    +0.000 A 
ATOM     21  C   UNL     1      45.775   5.516  10.004  0.00  0.00    +0.000 A 
ATOM     22  C   UNL     1      46.425   6.431  10.841  0.00  0.00    +0.000 A 
BRANCH  20  23
ATOM     23  O   UNL     1      44.158   3.888   9.555  0.00  0.00    +0.000 OA
BRANCH  23  24
ATOM     24  C   UNL     1      44.666   2.549   9.563  0.00  0.00    +0.000 C 
BRANCH  24  25
ATOM     25  C   UNL     1      45.607   2.325   8.390  0.00  0.00    +0.000 A 
ATOM     26  C   UNL     1      45.716   3.290   7.391  0.00  0.00    +0.000 A 
ATOM     27  C   UNL     1      46.563   3.055   6.309  0.00  0.00    +0.000 A 
ATOM     28  C   UNL     1      47.277   1.866   6.247  0.00  0.00    +0.000 A 
ATOM     29  C   UNL     1      47.109   0.953   7.273  0.00  0.00    +0.000 A 
ATOM     30  N   UNL     1      46.291   1.151   8.334  0.00  0.00    +0.000 NA
ENDBRANCH  24  25
ENDBRANCH  23  24
ENDBRANCH  20  23
ENDBRANCH  16  17
ENDBRANCH   3  16
TORSDOF 6
ENDMDL
MODEL 2
REMARK VINA RESULT:    -7.631      1.742      2.552
REMARK INTER + INTRA:         -11.289
REMARK INTER:                 -10.502
REMARK INTRA:                  -0.787
REMARK UNBOUND:                -0.982
REMARK  Name = 
REMARK  6 active torsions:
REMARK  status: ('A' for Active; 'I' for Inactive)
REMARK    1  A    between atoms: C_2  and  C_19
REMARK    2  A    between atoms: N_3  and  C_4
REMARK    3  A    between atoms: C_4  and  C_5
REMARK    4  A    between atoms: C_8  and  O_9
REMARK    5  A    between atoms: O_9  and  C_10
REMARK    6  A    between atoms: C_10  and  C_11
REMARK                            x       y       z     vdW  Elec       q    Type
REMARK                         _______ _______ _______ _____ _____    ______ ____
ROOT
ATOM      1  O   UNL     1      47.303   3.181  14.610  0.00  0.00    +0.000 OA
ATOM      2  C   UNL     1      46.956   4.361  14.710  0.00  0.00    +0.000 C 
ATOM      3  N   UNL     1      45.780   4.832  14.192  0.00  0.00    +0.000 N 
ATOM      4  H   UNL     1      45.622   5.832  14.120  0.00  0.00    +0.000 HD
ENDROOT
BRANCH   2   5
ATOM      5  C   UNL     1      47.781   5.321  15.433  0.00  0.00    +0.000 A 
ATOM      6  C   UNL     1      48.470   6.331  14.779  0.00  0.00    +0.000 A 
ATOM      7  S   UNL     1      49.322   7.358  15.848  0.00  0.00    +0.000 S 
ATOM      8  C   UNL     1      48.771   6.490  17.205  0.00  0.00    +0.000 A 
ATOM      9  N   UNL     1      49.111   6.859  18.468  0.00  0.00    +0.000 NA
ATOM     10  C   UNL     1      48.597   6.121  19.395  0.00  0.00    +0.000 A 
ATOM     11  N   UNL     1      47.781   5.046  19.177  0.00  0.00    +0.000 N 
ATOM     12  C   UNL     1      47.470   4.587  17.924  0.00  0.00    +0.000 A 
ATOM     13  O   UNL     1      46.869   3.526  17.779  0.00  0.00    +0.000 OA
ATOM     14  C   UNL     1      47.983   5.416  16.848  0.00  0.00    +0.000 A 
ATOM     15  H   UNL     1      47.446   4.475  19.941  0.00  0.00    +0.000 HD
ENDBRANCH   2   5
BRANCH   3  16
ATOM     16  C   UNL     1      44.899   3.979  13.446  0.00  0.00    +0.000 C 
BRANCH  16  17
ATOM     17  C   UNL     1      44.997   4.154  11.951  0.00  0.00    +0.000 A 
ATOM     18  C   UNL     1      45.577   5.309  11.407  0.00  0.00    +0.000 A 
ATOM     19  C   UNL     1      45.771   5.439  10.025  0.00  0.00    +0.000 A 
ATOM     20  C   UNL     1      45.375   4.417   9.162  0.00  0.00    +0.000 A 
ATOM     21  C   UNL     1      44.758   3.283   9.695  0.00  0.00    +0.000 A 
ATOM     22  C   UNL     1      44.568   3.149  11.076  0.00  0.00    +0.000 A 
BRANCH  20  23
ATOM     23  O   UNL     1      45.501   4.427   7.796  0.00  0.00    +0.000 OA
BRANCH  23  24
ATOM     24  C   UNL     1      46.830   4.262   7.287  0.00  0.00    +0.000 C 
BRANCH  24  25
ATOM     25  C   UNL     1      46.983   2.905   6.619  0.00  0.00    +0.000 A 
ATOM     26  C   UNL     1      46.921   2.800   5.231  0.00  0.00    +0.000 A 
ATOM     27  C   UNL     1      47.035   1.543   4.639  0.00  0.00    +0.000 A 
ATOM     28  C   UNL     1      47.205   0.424   5.442  0.00  0.00    +0.000 A 
ATOM     29  C   UNL     1      47.249   0.607   6.812  0.00  0.00    +0.000 A 
ATOM     30  N   UNL     1      47.135   1.814   7.417  0.00  0.00    +0.000 NA
ENDBRANCH  24  25
ENDBRANCH  23  24
ENDBRANCH  20  23
ENDBRANCH  16  17
ENDBRANCH   3  16
TORSDOF 6
ENDMDL
MODEL 3
REMARK VINA RESULT:    -7.617      1.683      2.160
REMARK INTER + INTRA:         -11.270
REMARK INTER:                 -10.428
REMARK INTRA:                  -0.842
REMARK UNBOUND:                -0.982
REMARK  Name = 
REMARK  6 active torsions:
REMARK  status: ('A' for Active; 'I' for Inactive)
REMARK    1  A    between atoms: C_2  and  C_19
REMARK    2  A    between atoms: N_3  and  C_4
REMARK    3  A    between atoms: C_4  and  C_5
REMARK    4  A    between atoms: C_8  and  O_9
REMARK    5  A    between atoms: O_9  and  C_10
REMARK    6  A    between atoms: C_10  and  C_11
REMARK                            x       y       z     vdW  Elec       q    Type
REMARK                         _______ _______ _______ _____ _____    ______ ____
ROOT
ATOM      1  O   UNL     1      50.368   6.887  15.237  0.00  0.00    +0.000 OA
ATOM      2  C   UNL     1      49.247   6.981  15.745  0.00  0.00    +0.000 C 
ATOM      3  N   UNL     1      48.100   7.037  15.000  0.00  0.00    +0.000 N 
ATOM      4  H   UNL     1      47.226   7.310  15.436  0.00  0.00    +0.000 HD
ENDROOT
BRANCH   2   5
ATOM      5  C   UNL     1      49.085   6.998  17.193  0.00  0.00    +0.000 A 
ATOM      6  C   UNL     1      48.933   8.183  17.898  0.00  0.00    +0.000 A 
ATOM      7  S   UNL     1      48.708   7.938  19.575  0.00  0.00    +0.000 S 
ATOM      8  C   UNL     1      48.785   6.247  19.392  0.00  0.00    +0.000 A 
ATOM      9  N   UNL     1      48.638   5.413  20.454  0.00  0.00    +0.000 NA
ATOM     10  C   UNL     1      48.695   4.157  20.156  0.00  0.00    +0.000 A 
ATOM     11  N   UNL     1      48.892   3.659  18.899  0.00  0.00    +0.000 N 
ATOM     12  C   UNL     1      49.122   4.456  17.808  0.00  0.00    +0.000 A 
ATOM     13  O   UNL     1      49.453   3.963  16.734  0.00  0.00    +0.000 OA
ATOM     14  C   UNL     1      49.016   5.878  18.084  0.00  0.00    +0.000 A 
ATOM     15  H   UNL     1      48.976   2.666  18.733  0.00  0.00    +0.000 HD
ENDBRANCH   2   5
BRANCH   3  16
ATOM     16  C   UNL     1      48.144   7.045  13.565  0.00  0.00    +0.000 C 
BRANCH  16  17
ATOM     17  C   UNL     1      47.065   6.217  12.915  0.00  0.00    +0.000 A 
ATOM     18  C   UNL     1      46.405   6.682  11.768  0.00  0.00    +0.000 A 
ATOM     19  C   UNL     1      45.476   5.879  11.092  0.00  0.00    +0.000 A 
ATOM     20  C   UNL     1      45.182   4.599  11.562  0.00  0.00    +0.000 A 
ATOM     21  C   UNL     1      45.804   4.147  12.729  0.00  0.00    +0.000 A 
ATOM     22  C   UNL     1      46.736   4.946  13.403  0.00  0.00    +0.000 A 
BRANCH  20  23
ATOM     23  O   UNL     1      44.289   3.723  10.998  0.00  0.00    +0.000 OA
BRANCH  23  24
ATOM     24  C   UNL     1      43.987   3.938   9.615  0.00  0.00    +0.000 C 
BRANCH  24  25
ATOM     25  C   UNL     1      45.064   3.333   8.730  0.00  0.00    +0.000 A 
ATOM     26  C   UNL     1      45.372   1.978   8.836  0.00  0.00    +0.000 A 
ATOM     27  C   UNL     1      46.382   1.446   8.035  0.00  0.00    +0.000 A 
ATOM     28  C   UNL     1      47.061   2.276   7.152  0.00  0.00    +0.000 A 
ATOM     29  C   UNL     1      46.703   3.612   7.110  0.00  0.00    +0.000 A 
ATOM     30  N   UNL     1      45.730   4.158   7.878  0.00  0.00    +0.000 NA
ENDBRANCH  24  25
ENDBRANCH  23  24
ENDBRANCH  20  23
ENDBRANCH  16  17
ENDBRANCH   3  16
TORSDOF 6
ENDMDL
MODEL 4
REMARK VINA RESULT:    -7.616      2.410      3.071
REMARK INTER + INTRA:         -11.268
REMARK INTER:                 -10.305
REMARK INTRA:                  -0.964
REMARK UNBOUND:                -0.982
REMARK  Name = 
REMARK  6 active torsions:
REMARK  status: ('A' for Active; 'I' for Inactive)
REMARK    1  A    between atoms: C_2  and  C_19
REMARK    2  A    between atoms: N_3  and  C_4
REMARK    3  A    between atoms: C_4  and  C_5
REMARK    4  A    between atoms: C_8  and  O_9
REMARK    5  A    between atoms: O_9  and  C_10
REMARK    6  A    between atoms: C_10  and  C_11
REMARK                            x       y       z     vdW  Elec       q    Type
REMARK                         _______ _______ _______ _____ _____    ______ ____
ROOT
ATOM      1  O   UNL     1      50.245   6.249  15.879  0.00  0.00    +0.000 OA
ATOM      2  C   UNL     1      49.089   6.175  16.308  0.00  0.00    +0.000 C 
ATOM      3  N   UNL     1      47.992   6.273  15.497  0.00  0.00    +0.000 N 
ATOM      4  H   UNL     1      47.072   6.405  15.903  0.00  0.00    +0.000 HD
ENDROOT
BRANCH   2   5
ATOM      5  C   UNL     1      48.835   5.937  17.724  0.00  0.00    +0.000 A 
ATOM      6  C   UNL     1      49.110   4.715  18.320  0.00  0.00    +0.000 A 
ATOM      7  S   UNL     1      48.776   4.702  19.997  0.00  0.00    +0.000 S 
ATOM      8  C   UNL     1      48.282   6.330  19.966  0.00  0.00    +0.000 A 
ATOM      9  N   UNL     1      47.885   6.972  21.096  0.00  0.00    +0.000 NA
ATOM     10  C   UNL     1      47.564   8.211  20.920  0.00  0.00    +0.000 A 
ATOM     11  N   UNL     1      47.596   8.865  19.720  0.00  0.00    +0.000 N 
ATOM     12  C   UNL     1      47.916   8.245  18.540  0.00  0.00    +0.000 A 
ATOM     13  O   UNL     1      47.775   8.830  17.470  0.00  0.00    +0.000 OA
ATOM     14  C   UNL     1      48.334   6.863  18.695  0.00  0.00    +0.000 A 
ATOM     15  H   UNL     1      47.287   9.823  19.634  0.00  0.00    +0.000 HD
ENDBRANCH   2   5
BRANCH   3  16
ATOM     16  C   UNL     1      48.125   6.525  14.090  0.00  0.00    +0.000 C 
BRANCH  16  17
ATOM     17  C   UNL     1      47.050   5.886  13.248  0.00  0.00    +0.000 A 
ATOM     18  C   UNL     1      46.630   6.487  12.053  0.00  0.00    +0.000 A 
ATOM     19  C   UNL     1      45.710   5.852  11.208  0.00  0.00    +0.000 A 
ATOM     20  C   UNL     1      45.183   4.607  11.553  0.00  0.00    +0.000 A 
ATOM     21  C   UNL     1      45.565   4.024  12.764  0.00  0.00    +0.000 A 
ATOM     22  C   UNL     1      46.488   4.654  13.607  0.00  0.00    +0.000 A 
BRANCH  20  23
ATOM     23  O   UNL     1      44.272   3.891  10.819  0.00  0.00    +0.000 OA
BRANCH  23  24
ATOM     24  C   UNL     1      44.173   4.235   9.432  0.00  0.00    +0.000 C 
BRANCH  24  25
ATOM     25  C   UNL     1      45.207   3.476   8.616  0.00  0.00    +0.000 A 
ATOM     26  C   UNL     1      45.367   2.104   8.798  0.00  0.00    +0.000 A 
ATOM     27  C   UNL     1      46.339   1.429   8.060  0.00  0.00    +0.000 A 
ATOM     28  C   UNL     1      47.128   2.137   7.164  0.00  0.00    +0.000 A 
ATOM     29  C   UNL     1      46.915   3.499   7.044  0.00  0.00    +0.000 A 
ATOM     30  N   UNL     1      45.982   4.182   7.751  0.00  0.00    +0.000 NA
ENDBRANCH  24  25
ENDBRANCH  23  24
ENDBRANCH  20  23
ENDBRANCH  16  17
ENDBRANCH   3  16
TORSDOF 6
ENDMDL
MODEL 5
REMARK VINA RESULT:    -6.974      2.911      4.074
REMARK INTER + INTRA:         -10.401
REMARK INTER:                  -9.489
REMARK INTRA:                  -0.912
REMARK UNBOUND:                -0.982
REMARK  Name = 
REMARK  6 active torsions:
REMARK  status: ('A' for Active; 'I' for Inactive)
REMARK    1  A    between atoms: C_2  and  C_19
REMARK    2  A    between atoms: N_3  and  C_4
REMARK    3  A    between atoms: C_4  and  C_5
REMARK    4  A    between atoms: C_8  and  O_9
REMARK    5  A    between atoms: O_9  and  C_10
REMARK    6  A    between atoms: C_10  and  C_11
REMARK                            x       y       z     vdW  Elec       q    Type
REMARK                         _______ _______ _______ _____ _____    ______ ____
ROOT
ATOM      1  O   UNL     1      47.221   8.632  13.496  0.00  0.00    +0.000 OA
ATOM      2  C   UNL     1      48.182   7.890  13.268  0.00  0.00    +0.000 C 
ATOM      3  N   UNL     1      48.102   6.527  13.363  0.00  0.00    +0.000 N 
ATOM      4  H   UNL     1      48.949   5.970  13.363  0.00  0.00    +0.000 HD
ENDROOT
BRANCH   2   5
ATOM      5  C   UNL     1      49.462   8.441  12.842  0.00  0.00    +0.000 A 
ATOM      6  C   UNL     1      49.582   9.205  11.691  0.00  0.00    +0.000 A 
ATOM      7  S   UNL     1      51.172   9.780  11.435  0.00  0.00    +0.000 S 
ATOM      8  C   UNL     1      51.727   9.041  12.865  0.00  0.00    +0.000 A 
ATOM      9  N   UNL     1      53.018   9.161  13.269  0.00  0.00    +0.000 NA
ATOM     10  C   UNL     1      53.284   8.568  14.386  0.00  0.00    +0.000 A 
ATOM     11  N   UNL     1      52.381   7.862  15.132  0.00  0.00    +0.000 N 
ATOM     12  C   UNL     1      51.088   7.648  14.732  0.00  0.00    +0.000 A 
ATOM     13  O   UNL     1      50.362   6.876  15.352  0.00  0.00    +0.000 OA
ATOM     14  C   UNL     1      50.728   8.339  13.506  0.00  0.00    +0.000 A 
ATOM     15  H   UNL     1      52.658   7.379  15.975  0.00  0.00    +0.000 HD
ENDBRANCH   2   5
BRANCH   3  16
ATOM     16  C   UNL     1      46.895   5.880  13.792  0.00  0.00    +0.000 C 
BRANCH  16  17
ATOM     17  C   UNL     1      46.103   5.256  12.671  0.00  0.00    +0.000 A 
ATOM     18  C   UNL     1      45.926   5.939  11.459  0.00  0.00    +0.000 A 
ATOM     19  C   UNL     1      45.284   5.330  10.372  0.00  0.00    +0.000 A 
ATOM     20  C   UNL     1      44.796   4.028  10.485  0.00  0.00    +0.000 A 
ATOM     21  C   UNL     1      44.931   3.359  11.705  0.00  0.00    +0.000 A 
ATOM     22  C   UNL     1      45.576   3.963  12.789  0.00  0.00    +0.000 A 
BRANCH  20  23
ATOM     23  O   UNL     1      44.144   3.328   9.502  0.00  0.00    +0.000 OA
BRANCH  23  24
ATOM     24  C   UNL     1      44.638   2.010   9.237  0.00  0.00    +0.000 C 
BRANCH  24  25
ATOM     25  C   UNL     1      45.737   2.052   8.187  0.00  0.00    +0.000 A 
ATOM     26  C   UNL     1      45.912   3.192   7.407  0.00  0.00    +0.000 A 
ATOM     27  C   UNL     1      46.908   3.202   6.430  0.00  0.00    +0.000 A 
ATOM     28  C   UNL     1      47.700   2.075   6.253  0.00  0.00    +0.000 A 
ATOM     29  C   UNL     1      47.460   0.978   7.061  0.00  0.00    +0.000 A 
ATOM     30  N   UNL     1      46.498   0.938   8.014  0.00  0.00    +0.000 NA
ENDBRANCH  24  25
ENDBRANCH  23  24
ENDBRANCH  20  23
ENDBRANCH  16  17
ENDBRANCH   3  16
TORSDOF 6
ENDMDL
MODEL 6
REMARK VINA RESULT:    -6.859      2.440      3.408
REMARK INTER + INTRA:         -10.246
REMARK INTER:                  -9.243
REMARK INTRA:                  -1.003
REMARK UNBOUND:                -0.982
REMARK  Name = 
REMARK  6 active torsions:
REMARK  status: ('A' for Active; 'I' for Inactive)
REMARK    1  A    between atoms: C_2  and  C_19
REMARK    2  A    between atoms: N_3  and  C_4
REMARK    3  A    between atoms: C_4  and  C_5
REMARK    4  A    between atoms: C_8  and  O_9
REMARK    5  A    between atoms: O_9  and  C_10
REMARK    6  A    between atoms: C_10  and  C_11
REMARK                            x       y       z     vdW  Elec       q    Type
REMARK                         _______ _______ _______ _____ _____    ______ ____
ROOT
ATOM      1  O   UNL     1      48.559   7.991  16.368  0.00  0.00    +0.000 OA
ATOM      2  C   UNL     1      49.192   7.060  15.861  0.00  0.00    +0.000 C 
ATOM      3  N   UNL     1      49.143   6.775  14.523  0.00  0.00    +0.000 N 
ATOM      4  H   UNL     1      49.513   5.895  14.180  0.00  0.00    +0.000 HD
ENDROOT
BRANCH   2   5
ATOM      5  C   UNL     1      50.069   6.227  16.674  0.00  0.00    +0.000 A 
ATOM      6  C   UNL     1      49.567   5.313  17.589  0.00  0.00    +0.000 A 
ATOM      7  S   UNL     1      50.793   4.420  18.380  0.00  0.00    +0.000 S 
ATOM      8  C   UNL     1      52.014   5.217  17.502  0.00  0.00    +0.000 A 
ATOM      9  N   UNL     1      53.326   4.908  17.674  0.00  0.00    +0.000 NA
ATOM     10  C   UNL     1      54.134   5.578  16.921  0.00  0.00    +0.000 A 
ATOM     11  N   UNL     1      53.753   6.532  16.018  0.00  0.00    +0.000 N 
ATOM     12  C   UNL     1      52.452   6.934  15.861  0.00  0.00    +0.000 A 
ATOM     13  O   UNL     1      52.179   7.902  15.158  0.00  0.00    +0.000 OA
ATOM     14  C   UNL     1      51.500   6.172  16.650  0.00  0.00    +0.000 A 
ATOM     15  H   UNL     1      54.434   7.059  15.490  0.00  0.00    +0.000 HD
ENDBRANCH   2   5
BRANCH   3  16
ATOM     16  C   UNL     1      48.299   7.519  13.633  0.00  0.00    +0.000 C 
BRANCH  16  17
ATOM     17  C   UNL     1      47.195   6.703  13.010  0.00  0.00    +0.000 A 
ATOM     18  C   UNL     1      46.496   7.185  11.894  0.00  0.00    +0.000 A 
ATOM     19  C   UNL     1      45.542   6.394  11.240  0.00  0.00    +0.000 A 
ATOM     20  C   UNL     1      45.261   5.108  11.702  0.00  0.00    +0.000 A 
ATOM     21  C   UNL     1      45.923   4.639  12.839  0.00  0.00    +0.000 A 
ATOM     22  C   UNL     1      46.881   5.425  13.491  0.00  0.00    +0.000 A 
BRANCH  20  23
ATOM     23  O   UNL     1      44.347   4.242  11.157  0.00  0.00    +0.000 OA
BRANCH  23  24
ATOM     24  C   UNL     1      44.039   4.442   9.773  0.00  0.00    +0.000 C 
BRANCH  24  25
ATOM     25  C   UNL     1      45.006   3.668   8.891  0.00  0.00    +0.000 A 
ATOM     26  C   UNL     1      45.170   2.297   9.075  0.00  0.00    +0.000 A 
ATOM     27  C   UNL     1      46.081   1.608   8.275  0.00  0.00    +0.000 A 
ATOM     28  C   UNL     1      46.807   2.301   7.317  0.00  0.00    +0.000 A 
ATOM     29  C   UNL     1      46.595   3.664   7.200  0.00  0.00    +0.000 A 
ATOM     30  N   UNL     1      45.721   4.360   7.965  0.00  0.00    +0.000 NA
ENDBRANCH  24  25
ENDBRANCH  23  24
ENDBRANCH  20  23
ENDBRANCH  16  17
ENDBRANCH   3  16
TORSDOF 6
ENDMDL
MODEL 7
REMARK VINA RESULT:    -6.841      1.955      2.407
REMARK INTER + INTRA:         -10.222
REMARK INTER:                  -9.251
REMARK INTRA:                  -0.971
REMARK UNBOUND:                -0.982
REMARK  Name = 
REMARK  6 active torsions:
REMARK  status: ('A' for Active; 'I' for Inactive)
REMARK    1  A    between atoms: C_2  and  C_19
REMARK    2  A    between atoms: N_3  and  C_4
REMARK    3  A    between atoms: C_4  and  C_5
REMARK    4  A    between atoms: C_8  and  O_9
REMARK    5  A    between atoms: O_9  and  C_10
REMARK    6  A    between atoms: C_10  and  C_11
REMARK                            x       y       z     vdW  Elec       q    Type
REMARK                         _______ _______ _______ _____ _____    ______ ____
ROOT
ATOM      1  O   UNL     1      48.576   8.022  16.531  0.00  0.00    +0.000 OA
ATOM      2  C   UNL     1      49.215   7.270  15.789  0.00  0.00    +0.000 C 
ATOM      3  N   UNL     1      48.839   7.011  14.499  0.00  0.00    +0.000 N 
ATOM      4  H   UNL     1      49.269   6.245  13.991  0.00  0.00    +0.000 HD
ENDROOT
BRANCH   2   5
ATOM      5  C   UNL     1      50.446   6.641  16.249  0.00  0.00    +0.000 A 
ATOM      6  C   UNL     1      51.680   7.259  16.110  0.00  0.00    +0.000 A 
ATOM      7  S   UNL     1      52.963   6.345  16.774  0.00  0.00    +0.000 S 
ATOM      8  C   UNL     1      51.897   5.118  17.281  0.00  0.00    +0.000 A 
ATOM      9  N   UNL     1      52.344   4.026  17.954  0.00  0.00    +0.000 NA
ATOM     10  C   UNL     1      51.416   3.194  18.295  0.00  0.00    +0.000 A 
ATOM     11  N   UNL     1      50.086   3.350  18.020  0.00  0.00    +0.000 N 
ATOM     12  C   UNL     1      49.594   4.393  17.280  0.00  0.00    +0.000 A 
ATOM     13  O   UNL     1      48.419   4.405  16.922  0.00  0.00    +0.000 OA
ATOM     14  C   UNL     1      50.594   5.382  16.918  0.00  0.00    +0.000 A 
ATOM     15  H   UNL     1      49.410   2.641  18.270  0.00  0.00    +0.000 HD
ENDBRANCH   2   5
BRANCH   3  16
ATOM     16  C   UNL     1      47.634   7.563  13.949  0.00  0.00    +0.000 C 
BRANCH  16  17
ATOM     17  C   UNL     1      46.733   6.542  13.299  0.00  0.00    +0.000 A 
ATOM     18  C   UNL     1      45.731   6.945  12.405  0.00  0.00    +0.000 A 
ATOM     19  C   UNL     1      44.957   6.003  11.714  0.00  0.00    +0.000 A 
ATOM     20  C   UNL     1      45.166   4.639  11.917  0.00  0.00    +0.000 A 
ATOM     21  C   UNL     1      46.134   4.233  12.839  0.00  0.00    +0.000 A 
ATOM     22  C   UNL     1      46.911   5.172  13.527  0.00  0.00    +0.000 A 
BRANCH  20  23
ATOM     23  O   UNL     1      44.472   3.622  11.311  0.00  0.00    +0.000 OA
BRANCH  23  24
ATOM     24  C   UNL     1      44.039   3.871   9.968  0.00  0.00    +0.000 C 
BRANCH  24  25
ATOM     25  C   UNL     1      45.063   3.355   8.970  0.00  0.00    +0.000 A 
ATOM     26  C   UNL     1      45.389   2.000   8.945  0.00  0.00    +0.000 A 
ATOM     27  C   UNL     1      46.351   1.550   8.041  0.00  0.00    +0.000 A 
ATOM     28  C   UNL     1      46.965   2.459   7.190  0.00  0.00    +0.000 A 
ATOM     29  C   UNL     1      46.595   3.789   7.281  0.00  0.00    +0.000 A 
ATOM     30  N   UNL     1      45.668   4.256   8.151  0.00  0.00    +0.000 NA
ENDBRANCH  24  25
ENDBRANCH  23  24
ENDBRANCH  20  23
ENDBRANCH  16  17
ENDBRANCH   3  16
TORSDOF 6
ENDMDL
MODEL 8
REMARK VINA RESULT:    -6.818      2.950      4.368
REMARK INTER + INTRA:         -10.191
REMARK INTER:                  -9.358
REMARK INTRA:                  -0.833
REMARK UNBOUND:                -0.982
REMARK  Name = 
REMARK  6 active torsions:
REMARK  status: ('A' for Active; 'I' for Inactive)
REMARK    1  A    between atoms: C_2  and  C_19
REMARK    2  A    between atoms: N_3  and  C_4
REMARK    3  A    between atoms: C_4  and  C_5
REMARK    4  A    between atoms: C_8  and  O_9
REMARK    5  A    between atoms: O_9  and  C_10
REMARK    6  A    between atoms: C_10  and  C_11
REMARK                            x       y       z     vdW  Elec       q    Type
REMARK                         _______ _______ _______ _____ _____    ______ ____
ROOT
ATOM      1  O   UNL     1      49.223   6.529  13.092  0.00  0.00    +0.000 OA
ATOM      2  C   UNL     1      48.385   7.422  13.250  0.00  0.00    +0.000 C 
ATOM      3  N   UNL     1      47.118   7.174  13.704  0.00  0.00    +0.000 N 
ATOM      4  H   UNL     1      46.405   7.893  13.633  0.00  0.00    +0.000 HD
ENDROOT
BRANCH   2   5
ATOM      5  C   UNL     1      48.725   8.815  12.991  0.00  0.00    +0.000 A 
ATOM      6  C   UNL     1      48.918   9.294  11.704  0.00  0.00    +0.000 A 
ATOM      7  S   UNL     1      49.254  10.970  11.659  0.00  0.00    +0.000 S 
ATOM      8  C   UNL     1      49.127  11.095  13.352  0.00  0.00    +0.000 A 
ATOM      9  N   UNL     1      49.280  12.286  13.988  0.00  0.00    +0.000 NA
ATOM     10  C   UNL     1      49.130  12.229  15.270  0.00  0.00    +0.000 A 
ATOM     11  N   UNL     1      48.849  11.091  15.975  0.00  0.00    +0.000 N 
ATOM     12  C   UNL     1      48.760   9.854  15.391  0.00  0.00    +0.000 A 
ATOM     13  O   UNL     1      48.667   8.844  16.082  0.00  0.00    +0.000 OA
ATOM     14  C   UNL     1      48.870   9.876  13.944  0.00  0.00    +0.000 A 
ATOM     15  H   UNL     1      48.790  11.098  16.983  0.00  0.00    +0.000 HD
ENDBRANCH   2   5
BRANCH   3  16
ATOM     16  C   UNL     1      46.670   5.837  13.972  0.00  0.00    +0.000 C 
BRANCH  16  17
ATOM     17  C   UNL     1      46.100   5.129  12.769  0.00  0.00    +0.000 A 
ATOM     18  C   UNL     1      45.687   3.792  12.860  0.00  0.00    +0.000 A 
ATOM     19  C   UNL     1      45.058   3.154  11.783  0.00  0.00    +0.000 A 
ATOM     20  C   UNL     1      44.844   3.842  10.588  0.00  0.00    +0.000 A 
ATOM     21  C   UNL     1      45.293   5.160  10.477  0.00  0.00    +0.000 A 
ATOM     22  C   UNL     1      45.916   5.801  11.554  0.00  0.00    +0.000 A 
BRANCH  20  23
ATOM     23  O   UNL     1      44.250   3.328   9.462  0.00  0.00    +0.000 OA
BRANCH  23  24
ATOM     24  C   UNL     1      44.721   3.846   8.213  0.00  0.00    +0.000 C 
BRANCH  24  25
ATOM     25  C   UNL     1      45.805   2.950   7.636  0.00  0.00    +0.000 A 
ATOM     26  C   UNL     1      46.549   3.375   6.537  0.00  0.00    +0.000 A 
ATOM     27  C   UNL     1      47.520   2.528   6.005  0.00  0.00    +0.000 A 
ATOM     28  C   UNL     1      47.723   1.279   6.576  0.00  0.00    +0.000 A 
ATOM     29  C   UNL     1      46.939   0.924   7.660  0.00  0.00    +0.000 A 
ATOM     30  N   UNL     1      45.986   1.724   8.196  0.00  0.00    +0.000 NA
ENDBRANCH  24  25
ENDBRANCH  23  24
ENDBRANCH  20  23
ENDBRANCH  16  17
ENDBRANCH   3  16
TORSDOF 6
ENDMDL
MODEL 9
REMARK VINA RESULT:    -6.791      2.811      4.724
REMARK INTER + INTRA:         -10.154
REMARK INTER:                  -9.580
REMARK INTRA:                  -0.575
REMARK UNBOUND:                -0.982
REMARK  Name = 
REMARK  6 active torsions:
REMARK  status: ('A' for Active; 'I' for Inactive)
REMARK    1  A    between atoms: C_2  and  C_19
REMARK    2  A    between atoms: N_3  and  C_4
REMARK    3  A    between atoms: C_4  and  C_5
REMARK    4  A    between atoms: C_8  and  O_9
REMARK    5  A    between atoms: O_9  and  C_10
REMARK    6  A    between atoms: C_10  and  C_11
REMARK                            x       y       z     vdW  Elec       q    Type
REMARK                         _______ _______ _______ _____ _____    ______ ____
ROOT
ATOM      1  O   UNL     1      49.599   6.857  13.084  0.00  0.00    +0.000 OA
ATOM      2  C   UNL     1      48.747   7.628  13.536  0.00  0.00    +0.000 C 
ATOM      3  N   UNL     1      47.630   7.191  14.195  0.00  0.00    +0.000 N 
ATOM      4  H   UNL     1      46.865   7.832  14.375  0.00  0.00    +0.000 HD
ENDROOT
BRANCH   2   5
ATOM      5  C   UNL     1      48.913   9.071  13.419  0.00  0.00    +0.000 A 
ATOM      6  C   UNL     1      50.108   9.698  13.740  0.00  0.00    +0.000 A 
ATOM      7  S   UNL     1      50.069  11.386  13.469  0.00  0.00    +0.000 S 
ATOM      8  C   UNL     1      48.468  11.311  12.897  0.00  0.00    +0.000 A 
ATOM      9  N   UNL     1      47.818  12.423  12.464  0.00  0.00    +0.000 NA
ATOM     10  C   UNL     1      46.619  12.206  12.035  0.00  0.00    +0.000 A 
ATOM     11  N   UNL     1      46.007  10.984  12.007  0.00  0.00    +0.000 N 
ATOM     12  C   UNL     1      46.589   9.846  12.501  0.00  0.00    +0.000 A 
ATOM     13  O   UNL     1      45.943   8.807  12.602  0.00  0.00    +0.000 OA
ATOM     14  C   UNL     1      47.959  10.031  12.947  0.00  0.00    +0.000 A 
ATOM     15  H   UNL     1      45.048  10.882  11.705  0.00  0.00    +0.000 HD
ENDBRANCH   2   5
BRANCH   3  16
ATOM     16  C   UNL     1      47.357   5.790  14.351  0.00  0.00    +0.000 C 
BRANCH  16  17
ATOM     17  C   UNL     1      46.543   5.196  13.230  0.00  0.00    +0.000 A 
ATOM     18  C   UNL     1      46.180   3.842  13.254  0.00  0.00    +0.000 A 
ATOM     19  C   UNL     1      45.336   3.301  12.275  0.00  0.00    +0.000 A 
ATOM     20  C   UNL     1      44.850   4.107  11.245  0.00  0.00    +0.000 A 
ATOM     21  C   UNL     1      45.243   5.447  11.192  0.00  0.00    +0.000 A 
ATOM     22  C   UNL     1      46.081   5.990  12.172  0.00  0.00    +0.000 A 
BRANCH  20  23
ATOM     23  O   UNL     1      44.027   3.697  10.226  0.00  0.00    +0.000 OA
BRANCH  23  24
ATOM     24  C   UNL     1      44.345   4.198   8.923  0.00  0.00    +0.000 C 
BRANCH  24  25
ATOM     25  C   UNL     1      45.401   3.330   8.258  0.00  0.00    +0.000 A 
ATOM     26  C   UNL     1      45.496   1.979   8.582  0.00  0.00    +0.000 A 
ATOM     27  C   UNL     1      46.490   1.205   7.982  0.00  0.00    +0.000 A 
ATOM     28  C   UNL     1      47.363   1.796   7.079  0.00  0.00    +0.000 A 
ATOM     29  C   UNL     1      47.211   3.146   6.816  0.00  0.00    +0.000 A 
ATOM     30  N   UNL     1      46.259   3.924   7.386  0.00  0.00    +0.000 NA
ENDBRANCH  24  25
ENDBRANCH  23  24
ENDBRANCH  20  23
ENDBRANCH  16  17
ENDBRANCH   3  16
TORSDOF 6
ENDMDL
