MODEL 1
REMARK VINA RESULT:    -7.693      0.000      0.000
REMARK INTER + INTRA:         -12.660
REMARK INTER:                 -10.841
REMARK INTRA:                  -1.819
REMARK UNBOUND:                -1.819
REMARK  Name = 
REMARK  7 active torsions:
REMARK  status: ('A' for Active; 'I' for Inactive)
REMARK    1  A    between atoms: C_2  and  C_4
REMARK    2  A    between atoms: C_8  and  O_9
REMARK    3  A    between atoms: O_9  and  C_10
REMARK    4  A    between atoms: C_10  and  C_11
REMARK    5  A    between atoms: C_16  and  C_17
REMARK    6  A    between atoms: C_22  and  O_23
REMARK    7  A    between atoms: O_23  and  C_24
REMARK                            x       y       z     vdW  Elec       q    Type
REMARK                         _______ _______ _______ _____ _____    ______ ____
ROOT
ATOM      1  C   UNL     1      47.322   7.847  12.993  0.00  0.00    +0.000 A 
ATOM      2  C   UNL     1      46.386   8.874  13.128  0.00  0.00    +0.000 A 
ATOM      3  C   UNL     1      45.185   8.801  12.430  0.00  0.00    +0.000 A 
ATOM      4  C   UNL     1      44.905   7.692  11.620  0.00  0.00    +0.000 A 
ATOM      5  F   UNL     1      43.675   7.647  11.085  0.00  0.00    +0.000 F 
ATOM      6  C   UNL     1      45.823   6.644  11.420  0.00  0.00    +0.000 A 
ATOM      7  C   UNL     1      47.052   6.790  12.103  0.00  0.00    +0.000 A 
ATOM      8  F   UNL     1      48.014   5.861  11.956  0.00  0.00    +0.000 F 
ENDROOT
BRANCH   6   9
ATOM      9  C   UNL     1      45.485   5.391  10.664  0.00  0.00    +0.000 A 
ATOM     10  C   UNL     1      45.695   5.363   9.264  0.00  0.00    +0.000 A 
ATOM     11  C   UNL     1      45.473   4.224   8.491  0.00  0.00    +0.000 A 
ATOM     12  C   UNL     1      45.112   3.040   9.107  0.00  0.00    +0.000 A 
ATOM     13  C   UNL     1      44.908   3.017  10.486  0.00  0.00    +0.000 A 
ATOM     14  C   UNL     1      45.006   4.191  11.254  0.00  0.00    +0.000 A 
BRANCH  14  15
ATOM     15  O   UNL     1      44.634   4.250  12.569  0.00  0.00    +0.000 OA
BRANCH  15  16
ATOM     16  C   UNL     1      43.292   4.557  12.917  0.00  0.00    +0.000 C 
ATOM     17  F   UNL     1      42.449   4.553  11.861  0.00  0.00    +0.000 F 
ATOM     18  F   UNL     1      42.839   3.690  13.849  0.00  0.00    +0.000 F 
ATOM     19  F   UNL     1      43.262   5.801  13.449  0.00  0.00    +0.000 F 
ENDBRANCH  15  16
ENDBRANCH  14  15
ENDBRANCH   6   9
BRANCH   1  20
ATOM     20  C   UNL     1      48.566   7.822  13.850  0.00  0.00    +0.000 C 
BRANCH  20  21
ATOM     21  O   UNL     1      48.876   6.483  14.235  0.00  0.00    +0.000 OA
BRANCH  21  26
ATOM     22  C   UNL     1      48.065   4.967  17.346  0.00  0.00    +0.000 A 
ATOM     23  N   UNL     1      48.234   5.954  18.259  0.00  0.00    +0.000 NA
ATOM     24  C   UNL     1      48.653   7.137  17.759  0.00  0.00    +0.000 A 
ATOM     25  C   UNL     1      48.884   7.349  16.419  0.00  0.00    +0.000 A 
ATOM     26  C   UNL     1      48.672   6.273  15.588  0.00  0.00    +0.000 A 
ATOM     27  N   UNL     1      48.263   5.071  16.020  0.00  0.00    +0.000 NA
BRANCH  22  29
ATOM     28  N   UNL     1      48.292   3.130  18.946  0.00  0.00    +0.000 N 
ATOM     29  C   UNL     1      47.597   3.631  17.870  0.00  0.00    +0.000 C 
ATOM     30  O   UNL     1      46.656   3.007  17.392  0.00  0.00    +0.000 OA
ATOM     31  H   UNL     1      48.012   2.242  19.339  0.00  0.00    +0.000 HD
ATOM     32  H   UNL     1      49.065   3.650  19.343  0.00  0.00    +0.000 HD
ENDBRANCH  22  29
ENDBRANCH  21  26
ENDBRANCH  20  21
ENDBRANCH   1  20
TORSDOF 7
ENDMDL
MODEL 2
REMARK VINA RESULT:    -7.472      1.957      2.796
REMARK INTER + INTRA:         -12.349
REMARK INTER:                 -10.985
REMARK INTRA:                  -1.364
REMARK UNBOUND:                -1.819
REMARK  Name = 
REMARK  7 active torsions:
REMARK  status: ('A' for Active; 'I' for Inactive)
REMARK    1  A    between atoms: C_2  and  C_4
REMARK    2  A    between atoms: C_8  and  O_9
REMARK    3  A    between atoms: O_9  and  C_10
REMARK    4  A    between atoms: C_10  and  C_11
REMARK    5  A    between atoms: C_16  and  C_17
REMARK    6  A    between atoms: C_22  and  O_23
REMARK    7  A    between atoms: O_23  and  C_24
REMARK                            x       y       z     vdW  Elec       q    Type
REMARK                         _______ _______ _______ _____ _____    ______ ____
ROOT
ATOM      1  C   UNL     1      47.832   7.323  13.092  0.00  0.00    +0.000 A 
ATOM      2  C   UNL     1      47.319   8.582  12.775  0.00  0.00    +0.000 A 
ATOM      3  C   UNL     1      46.105   8.675  12.103  0.00  0.00    +0.000 A 
ATOM      4  C   UNL     1      45.389   7.517  11.773  0.00  0.00    +0.000 A 
ATOM      5  F   UNL     1      44.172   7.707  11.239  0.00  0.00    +0.000 F 
ATOM      6  C   UNL     1      45.872   6.222  12.037  0.00  0.00    +0.000 A 
ATOM      7  C   UNL     1      47.136   6.175  12.668  0.00  0.00    +0.000 A 
ATOM      8  F   UNL     1      47.706   4.986  12.938  0.00  0.00    +0.000 F 
ENDROOT
BRANCH   6   9
ATOM      9  C   UNL     1      45.057   4.981  11.809  0.00  0.00    +0.000 A 
ATOM     10  C   UNL     1      44.440   4.358  12.921  0.00  0.00    +0.000 A 
ATOM     11  C   UNL     1      43.612   3.243  12.797  0.00  0.00    +0.000 A 
ATOM     12  C   UNL     1      43.303   2.759  11.540  0.00  0.00    +0.000 A 
ATOM     13  C   UNL     1      43.876   3.349  10.415  0.00  0.00    +0.000 A 
ATOM     14  C   UNL     1      44.810   4.393  10.540  0.00  0.00    +0.000 A 
BRANCH  14  15
ATOM     15  O   UNL     1      45.533   4.872   9.482  0.00  0.00    +0.000 OA
BRANCH  15  16
ATOM     16  C   UNL     1      45.802   4.039   8.365  0.00  0.00    +0.000 C 
ATOM     17  F   UNL     1      46.169   2.784   8.708  0.00  0.00    +0.000 F 
ATOM     18  F   UNL     1      44.724   3.978   7.554  0.00  0.00    +0.000 F 
ATOM     19  F   UNL     1      46.827   4.578   7.666  0.00  0.00    +0.000 F 
ENDBRANCH  15  16
ENDBRANCH  14  15
ENDBRANCH   6   9
BRANCH   1  20
ATOM     20  C   UNL     1      49.069   7.190  13.951  0.00  0.00    +0.000 C 
BRANCH  20  21
ATOM     21  O   UNL     1      48.837   7.749  15.243  0.00  0.00    +0.000 OA
BRANCH  21  26
ATOM     22  C   UNL     1      48.496   4.675  16.996  0.00  0.00    +0.000 A 
ATOM     23  N   UNL     1      48.895   4.958  18.259  0.00  0.00    +0.000 NA
ATOM     24  C   UNL     1      49.299   6.230  18.465  0.00  0.00    +0.000 A 
ATOM     25  C   UNL     1      49.299   7.190  17.479  0.00  0.00    +0.000 A 
ATOM     26  C   UNL     1      48.866   6.784  16.236  0.00  0.00    +0.000 A 
ATOM     27  N   UNL     1      48.458   5.536  15.964  0.00  0.00    +0.000 NA
BRANCH  22  29
ATOM     28  N   UNL     1      46.973   2.823  17.484  0.00  0.00    +0.000 N 
ATOM     29  C   UNL     1      48.037   3.261  16.730  0.00  0.00    +0.000 C 
ATOM     30  O   UNL     1      48.556   2.525  15.899  0.00  0.00    +0.000 OA
ATOM     31  H   UNL     1      46.622   1.887  17.338  0.00  0.00    +0.000 HD
ATOM     32  H   UNL     1      46.542   3.435  18.166  0.00  0.00    +0.000 HD
ENDBRANCH  22  29
ENDBRANCH  21  26
ENDBRANCH  20  21
ENDBRANCH   1  20
TORSDOF 7
ENDMDL
MODEL 3
REMARK VINA RESULT:    -7.433      3.833      7.796
REMARK INTER + INTRA:         -12.293
REMARK INTER:                 -10.629
REMARK INTRA:                  -1.664
REMARK UNBOUND:                -1.819
REMARK  Name = 
REMARK  7 active torsions:
REMARK  status: ('A' for Active; 'I' for Inactive)
REMARK    1  A    between atoms: C_2  and  C_4
REMARK    2  A    between atoms: C_8  and  O_9
REMARK    3  A    between atoms: O_9  and  C_10
REMARK    4  A    between atoms: C_10  and  C_11
REMARK    5  A    between atoms: C_16  and  C_17
REMARK    6  A    between atoms: C_22  and  O_23
REMARK    7  A    between atoms: O_23  and  C_24
REMARK                            x       y       z     vdW  Elec       q    Type
REMARK                         _______ _______ _______ _____ _____    ______ ____
ROOT
ATOM      1  C   UNL     1      47.310   4.933  14.046  0.00  0.00    +0.000 A 
ATOM      2  C   UNL     1      47.832   5.899  13.183  0.00  0.00    +0.000 A 
ATOM      3  C   UNL     1      48.659   6.894  13.692  0.00  0.00    +0.000 A 
ATOM      4  C   UNL     1      48.989   6.911  15.054  0.00  0.00    +0.000 A 
ATOM      5  F   UNL     1      49.891   7.830  15.432  0.00  0.00    +0.000 F 
ATOM      6  C   UNL     1      48.468   5.984  15.975  0.00  0.00    +0.000 A 
ATOM      7  C   UNL     1      47.585   5.027  15.423  0.00  0.00    +0.000 A 
ATOM      8  F   UNL     1      47.005   4.113  16.221  0.00  0.00    +0.000 F 
ENDROOT
BRANCH   6   9
ATOM      9  C   UNL     1      48.916   5.910  17.407  0.00  0.00    +0.000 A 
ATOM     10  C   UNL     1      48.578   6.971  18.282  0.00  0.00    +0.000 A 
ATOM     11  C   UNL     1      48.893   6.957  19.641  0.00  0.00    +0.000 A 
ATOM     12  C   UNL     1      49.487   5.837  20.192  0.00  0.00    +0.000 A 
ATOM     13  C   UNL     1      49.825   4.762  19.371  0.00  0.00    +0.000 A 
ATOM     14  C   UNL     1      49.625   4.821  17.980  0.00  0.00    +0.000 A 
BRANCH  14  15
ATOM     15  O   UNL     1      50.110   3.874  17.121  0.00  0.00    +0.000 OA
BRANCH  15  16
ATOM     16  C   UNL     1      49.684   2.524  17.231  0.00  0.00    +0.000 C 
ATOM     17  F   UNL     1      50.648   1.693  17.683  0.00  0.00    +0.000 F 
ATOM     18  F   UNL     1      48.607   2.436  18.041  0.00  0.00    +0.000 F 
ATOM     19  F   UNL     1      49.323   2.088  16.001  0.00  0.00    +0.000 F 
ENDBRANCH  15  16
ENDBRANCH  14  15
ENDBRANCH   6   9
BRANCH   1  20
ATOM     20  C   UNL     1      46.534   3.756  13.503  0.00  0.00    +0.000 C 
BRANCH  20  21
ATOM     21  O   UNL     1      45.138   3.929  13.744  0.00  0.00    +0.000 OA
BRANCH  21  26
ATOM     22  C   UNL     1      44.291   4.579  10.354  0.00  0.00    +0.000 A 
ATOM     23  N   UNL     1      43.106   5.234  10.419  0.00  0.00    +0.000 NA
ATOM     24  C   UNL     1      42.616   5.417  11.665  0.00  0.00    +0.000 A 
ATOM     25  C   UNL     1      43.265   4.989  12.800  0.00  0.00    +0.000 A 
ATOM     26  C   UNL     1      44.464   4.341  12.607  0.00  0.00    +0.000 A 
ATOM     27  N   UNL     1      45.002   4.122  11.398  0.00  0.00    +0.000 NA
BRANCH  22  29
ATOM     28  N   UNL     1      44.293   3.351   8.238  0.00  0.00    +0.000 N 
ATOM     29  C   UNL     1      44.868   4.358   8.976  0.00  0.00    +0.000 C 
ATOM     30  O   UNL     1      45.790   5.020   8.514  0.00  0.00    +0.000 OA
ATOM     31  H   UNL     1      44.638   3.168   7.306  0.00  0.00    +0.000 HD
ATOM     32  H   UNL     1      43.527   2.808   8.620  0.00  0.00    +0.000 HD
ENDBRANCH  22  29
ENDBRANCH  21  26
ENDBRANCH  20  21
ENDBRANCH   1  20
TORSDOF 7
ENDMDL
MODEL 4
REMARK VINA RESULT:    -6.991      2.550      3.529
REMARK INTER + INTRA:         -11.671
REMARK INTER:                  -9.426
REMARK INTRA:                  -2.245
REMARK UNBOUND:                -1.819
REMARK  Name = 
REMARK  7 active torsions:
REMARK  status: ('A' for Active; 'I' for Inactive)
REMARK    1  A    between atoms: C_2  and  C_4
REMARK    2  A    between atoms: C_8  and  O_9
REMARK    3  A    between atoms: O_9  and  C_10
REMARK    4  A    between atoms: C_10  and  C_11
REMARK    5  A    between atoms: C_16  and  C_17
REMARK    6  A    between atoms: C_22  and  O_23
REMARK    7  A    between atoms: O_23  and  C_24
REMARK                            x       y       z     vdW  Elec       q    Type
REMARK                         _______ _______ _______ _____ _____    ______ ____
ROOT
ATOM      1  C   UNL     1      49.166   7.280  15.124  0.00  0.00    +0.000 A 
ATOM      2  C   UNL     1      49.885   7.948  14.131  0.00  0.00    +0.000 A 
ATOM      3  C   UNL     1      49.537   7.766  12.797  0.00  0.00    +0.000 A 
ATOM      4  C   UNL     1      48.457   6.943  12.453  0.00  0.00    +0.000 A 
ATOM      5  F   UNL     1      48.116   6.926  11.156  0.00  0.00    +0.000 F 
ATOM      6  C   UNL     1      47.718   6.220  13.407  0.00  0.00    +0.000 A 
ATOM      7  C   UNL     1      48.144   6.389  14.745  0.00  0.00    +0.000 A 
ATOM      8  F   UNL     1      47.527   5.718  15.734  0.00  0.00    +0.000 F 
ENDROOT
BRANCH   6   9
ATOM      9  C   UNL     1      46.479   5.441  13.067  0.00  0.00    +0.000 A 
ATOM     10  C   UNL     1      46.578   4.037  12.914  0.00  0.00    +0.000 A 
ATOM     11  C   UNL     1      45.471   3.226  12.665  0.00  0.00    +0.000 A 
ATOM     12  C   UNL     1      44.206   3.785  12.644  0.00  0.00    +0.000 A 
ATOM     13  C   UNL     1      44.059   5.161  12.804  0.00  0.00    +0.000 A 
ATOM     14  C   UNL     1      45.180   6.001  12.930  0.00  0.00    +0.000 A 
BRANCH  14  15
ATOM     15  O   UNL     1      45.092   7.366  12.901  0.00  0.00    +0.000 OA
BRANCH  15  16
ATOM     16  C   UNL     1      45.035   8.051  11.659  0.00  0.00    +0.000 C 
ATOM     17  F   UNL     1      45.321   7.265  10.599  0.00  0.00    +0.000 F 
ATOM     18  F   UNL     1      43.815   8.605  11.483  0.00  0.00    +0.000 F 
ATOM     19  F   UNL     1      45.951   9.047  11.678  0.00  0.00    +0.000 F 
ENDBRANCH  15  16
ENDBRANCH  14  15
ENDBRANCH   6   9
BRANCH   1  20
ATOM     20  C   UNL     1      49.419   7.571  16.585  0.00  0.00    +0.000 C 
BRANCH  20  21
ATOM     21  O   UNL     1      50.476   6.749  17.078  0.00  0.00    +0.000 OA
BRANCH  21  26
ATOM     22  C   UNL     1      49.810   3.294  17.580  0.00  0.00    +0.000 A 
ATOM     23  N   UNL     1      48.985   3.259  18.655  0.00  0.00    +0.000 NA
ATOM     24  C   UNL     1      48.694   4.462  19.197  0.00  0.00    +0.000 A 
ATOM     25  C   UNL     1      49.180   5.650  18.701  0.00  0.00    +0.000 A 
ATOM     26  C   UNL     1      50.004   5.557  17.602  0.00  0.00    +0.000 A 
ATOM     27  N   UNL     1      50.336   4.396  17.019  0.00  0.00    +0.000 NA
BRANCH  22  29
ATOM     28  N   UNL     1      51.023   1.170  17.658  0.00  0.00    +0.000 N 
ATOM     29  C   UNL     1      50.155   1.966  16.948  0.00  0.00    +0.000 C 
ATOM     30  O   UNL     1      49.704   1.591  15.872  0.00  0.00    +0.000 OA
ATOM     31  H   UNL     1      51.279   0.268  17.282  0.00  0.00    +0.000 HD
ATOM     32  H   UNL     1      51.390   1.480  18.550  0.00  0.00    +0.000 HD
ENDBRANCH  22  29
ENDBRANCH  21  26
ENDBRANCH  20  21
ENDBRANCH   1  20
TORSDOF 7
ENDMDL
MODEL 5
REMARK VINA RESULT:    -6.920      4.025      7.887
REMARK INTER + INTRA:         -11.570
REMARK INTER:                  -9.760
REMARK INTRA:                  -1.810
REMARK UNBOUND:                -1.819
REMARK  Name = 
REMARK  7 active torsions:
REMARK  status: ('A' for Active; 'I' for Inactive)
REMARK    1  A    between atoms: C_2  and  C_4
REMARK    2  A    between atoms: C_8  and  O_9
REMARK    3  A    between atoms: O_9  and  C_10
REMARK    4  A    between atoms: C_10  and  C_11
REMARK    5  A    between atoms: C_16  and  C_17
REMARK    6  A    between atoms: C_22  and  O_23
REMARK    7  A    between atoms: O_23  and  C_24
REMARK                            x       y       z     vdW  Elec       q    Type
REMARK                         _______ _______ _______ _____ _____    ______ ____
ROOT
ATOM      1  C   UNL     1      47.328   5.030  14.265  0.00  0.00    +0.000 A 
ATOM      2  C   UNL     1      47.681   6.182  13.559  0.00  0.00    +0.000 A 
ATOM      3  C   UNL     1      48.467   7.148  14.178  0.00  0.00    +0.000 A 
ATOM      4  C   UNL     1      48.925   6.955  15.488  0.00  0.00    +0.000 A 
ATOM      5  F   UNL     1      49.778   7.878  15.958  0.00  0.00    +0.000 F 
ATOM      6  C   UNL     1      48.574   5.831  16.258  0.00  0.00    +0.000 A 
ATOM      7  C   UNL     1      47.726   4.904  15.609  0.00  0.00    +0.000 A 
ATOM      8  F   UNL     1      47.304   3.809  16.266  0.00  0.00    +0.000 F 
ENDROOT
BRANCH   6   9
ATOM      9  C   UNL     1      49.164   5.548  17.611  0.00  0.00    +0.000 A 
ATOM     10  C   UNL     1      50.220   4.609  17.710  0.00  0.00    +0.000 A 
ATOM     11  C   UNL     1      50.872   4.333  18.911  0.00  0.00    +0.000 A 
ATOM     12  C   UNL     1      50.545   5.051  20.046  0.00  0.00    +0.000 A 
ATOM     13  C   UNL     1      49.521   5.995  19.993  0.00  0.00    +0.000 A 
ATOM     14  C   UNL     1      48.774   6.190  18.816  0.00  0.00    +0.000 A 
BRANCH  14  15
ATOM     15  O   UNL     1      47.648   6.964  18.773  0.00  0.00    +0.000 OA
BRANCH  15  16
ATOM     16  C   UNL     1      47.755   8.380  18.771  0.00  0.00    +0.000 C 
ATOM     17  F   UNL     1      47.366   8.946  17.607  0.00  0.00    +0.000 F 
ATOM     18  F   UNL     1      47.031   8.907  19.783  0.00  0.00    +0.000 F 
ATOM     19  F   UNL     1      49.053   8.711  18.964  0.00  0.00    +0.000 F 
ENDBRANCH  15  16
ENDBRANCH  14  15
ENDBRANCH   6   9
BRANCH   1  20
ATOM     20  C   UNL     1      46.605   3.897  13.575  0.00  0.00    +0.000 C 
BRANCH  20  21
ATOM     21  O   UNL     1      45.201   3.988  13.811  0.00  0.00    +0.000 OA
BRANCH  21  26
ATOM     22  C   UNL     1      44.310   4.542  10.415  0.00  0.00    +0.000 A 
ATOM     23  N   UNL     1      43.109   5.166  10.476  0.00  0.00    +0.000 NA
ATOM     24  C   UNL     1      42.624   5.362  11.721  0.00  0.00    +0.000 A 
ATOM     25  C   UNL     1      43.292   4.976  12.860  0.00  0.00    +0.000 A 
ATOM     26  C   UNL     1      44.507   4.357  12.671  0.00  0.00    +0.000 A 
ATOM     27  N   UNL     1      45.042   4.127  11.463  0.00  0.00    +0.000 NA
BRANCH  22  29
ATOM     28  N   UNL     1      44.331   3.268   8.326  0.00  0.00    +0.000 N 
ATOM     29  C   UNL     1      44.883   4.308   9.038  0.00  0.00    +0.000 C 
ATOM     30  O   UNL     1      45.783   4.985   8.554  0.00  0.00    +0.000 OA
ATOM     31  H   UNL     1      44.674   3.075   7.396  0.00  0.00    +0.000 HD
ATOM     32  H   UNL     1      43.584   2.713   8.726  0.00  0.00    +0.000 HD
ENDBRANCH  22  29
ENDBRANCH  21  26
ENDBRANCH  20  21
ENDBRANCH   1  20
TORSDOF 7
ENDMDL
MODEL 6
REMARK VINA RESULT:    -6.763      2.480      3.815
REMARK INTER + INTRA:         -11.350
REMARK INTER:                  -9.226
REMARK INTRA:                  -2.124
REMARK UNBOUND:                -1.819
REMARK  Name = 
REMARK  7 active torsions:
REMARK  status: ('A' for Active; 'I' for Inactive)
REMARK    1  A    between atoms: C_2  and  C_4
REMARK    2  A    between atoms: C_8  and  O_9
REMARK    3  A    between atoms: O_9  and  C_10
REMARK    4  A    between atoms: C_10  and  C_11
REMARK    5  A    between atoms: C_16  and  C_17
REMARK    6  A    between atoms: C_22  and  O_23
REMARK    7  A    between atoms: O_23  and  C_24
REMARK                            x       y       z     vdW  Elec       q    Type
REMARK                         _______ _______ _______ _____ _____    ______ ____
ROOT
ATOM      1  C   UNL     1      50.079   7.753  15.152  0.00  0.00    +0.000 A 
ATOM      2  C   UNL     1      51.110   8.177  14.312  0.00  0.00    +0.000 A 
ATOM      3  C   UNL     1      50.880   8.275  12.943  0.00  0.00    +0.000 A 
ATOM      4  C   UNL     1      49.616   7.979  12.416  0.00  0.00    +0.000 A 
ATOM      5  F   UNL     1      49.451   8.221  11.106  0.00  0.00    +0.000 F 
ATOM      6  C   UNL     1      48.550   7.515  13.209  0.00  0.00    +0.000 A 
ATOM      7  C   UNL     1      48.847   7.375  14.584  0.00  0.00    +0.000 A 
ATOM      8  F   UNL     1      47.909   6.909  15.427  0.00  0.00    +0.000 F 
ENDROOT
BRANCH   6   9
ATOM      9  C   UNL     1      47.158   7.322  12.679  0.00  0.00    +0.000 A 
ATOM     10  C   UNL     1      46.366   8.465  12.412  0.00  0.00    +0.000 A 
ATOM     11  C   UNL     1      45.089   8.385  11.857  0.00  0.00    +0.000 A 
ATOM     12  C   UNL     1      44.589   7.155  11.469  0.00  0.00    +0.000 A 
ATOM     13  C   UNL     1      45.340   6.004  11.699  0.00  0.00    +0.000 A 
ATOM     14  C   UNL     1      46.573   6.064  12.373  0.00  0.00    +0.000 A 
BRANCH  14  15
ATOM     15  O   UNL     1      47.249   4.948  12.784  0.00  0.00    +0.000 OA
BRANCH  15  16
ATOM     16  C   UNL     1      46.618   4.004  13.635  0.00  0.00    +0.000 C 
ATOM     17  F   UNL     1      47.489   3.290  14.383  0.00  0.00    +0.000 F 
ATOM     18  F   UNL     1      45.738   4.623  14.452  0.00  0.00    +0.000 F 
ATOM     19  F   UNL     1      45.934   3.124  12.867  0.00  0.00    +0.000 F 
ENDBRANCH  15  16
ENDBRANCH  14  15
ENDBRANCH   6   9
BRANCH   1  20
ATOM     20  C   UNL     1      50.249   7.780  16.653  0.00  0.00    +0.000 C 
BRANCH  20  21
ATOM     21  O   UNL     1      51.107   6.720  17.073  0.00  0.00    +0.000 OA
BRANCH  21  26
ATOM     22  C   UNL     1      49.895   3.406  17.502  0.00  0.00    +0.000 A 
ATOM     23  N   UNL     1      48.900   3.523  18.415  0.00  0.00    +0.000 NA
ATOM     24  C   UNL     1      48.689   4.774  18.879  0.00  0.00    +0.000 A 
ATOM     25  C   UNL     1      49.411   5.867  18.458  0.00  0.00    +0.000 A 
ATOM     26  C   UNL     1      50.392   5.623  17.523  0.00  0.00    +0.000 A 
ATOM     27  N   UNL     1      50.657   4.406  17.027  0.00  0.00    +0.000 NA
BRANCH  22  29
ATOM     28  N   UNL     1      51.031   1.246  17.691  0.00  0.00    +0.000 N 
ATOM     29  C   UNL     1      50.159   2.021  16.961  0.00  0.00    +0.000 C 
ATOM     30  O   UNL     1      49.642   1.583  15.940  0.00  0.00    +0.000 OA
ATOM     31  H   UNL     1      51.234   0.309  17.376  0.00  0.00    +0.000 HD
ATOM     32  H   UNL     1      51.452   1.609  18.538  0.00  0.00    +0.000 HD
ENDBRANCH  22  29
ENDBRANCH  21  26
ENDBRANCH  20  21
ENDBRANCH   1  20
TORSDOF 7
ENDMDL
MODEL 7
REMARK VINA RESULT:    -6.611      4.148      8.099
REMARK INTER + INTRA:         -11.135
REMARK INTER:                  -9.200
REMARK INTRA:                  -1.935
REMARK UNBOUND:                -1.819
REMARK  Name = 
REMARK  7 active torsions:
REMARK  status: ('A' for Active; 'I' for Inactive)
REMARK    1  A    between atoms: C_2  and  C_4
REMARK    2  A    between atoms: C_8  and  O_9
REMARK    3  A    between atoms: O_9  and  C_10
REMARK    4  A    between atoms: C_10  and  C_11
REMARK    5  A    between atoms: C_16  and  C_17
REMARK    6  A    between atoms: C_22  and  O_23
REMARK    7  A    between atoms: O_23  and  C_24
REMARK                            x       y       z     vdW  Elec       q    Type
REMARK                         _______ _______ _______ _____ _____    ______ ____
ROOT
ATOM      1  C   UNL     1      47.356   5.399  14.480  0.00  0.00    +0.000 A 
ATOM      2  C   UNL     1      47.063   4.171  15.076  0.00  0.00    +0.000 A 
ATOM      3  C   UNL     1      47.665   3.838  16.285  0.00  0.00    +0.000 A 
ATOM      4  C   UNL     1      48.535   4.739  16.913  0.00  0.00    +0.000 A 
ATOM      5  F   UNL     1      48.970   4.387  18.133  0.00  0.00    +0.000 F 
ATOM      6  C   UNL     1      48.892   5.975  16.344  0.00  0.00    +0.000 A 
ATOM      7  C   UNL     1      48.303   6.245  15.088  0.00  0.00    +0.000 A 
ATOM      8  F   UNL     1      48.601   7.386  14.440  0.00  0.00    +0.000 F 
ENDROOT
BRANCH   6   9
ATOM      9  C   UNL     1      49.716   7.003  17.066  0.00  0.00    +0.000 A 
ATOM     10  C   UNL     1      51.097   7.102  16.766  0.00  0.00    +0.000 A 
ATOM     11  C   UNL     1      51.924   8.069  17.336  0.00  0.00    +0.000 A 
ATOM     12  C   UNL     1      51.379   9.030  18.168  0.00  0.00    +0.000 A 
ATOM     13  C   UNL     1      50.022   8.980  18.480  0.00  0.00    +0.000 A 
ATOM     14  C   UNL     1      49.207   7.935  18.009  0.00  0.00    +0.000 A 
BRANCH  14  15
ATOM     15  O   UNL     1      47.923   7.744  18.440  0.00  0.00    +0.000 OA
BRANCH  15  16
ATOM     16  C   UNL     1      47.673   7.074  19.666  0.00  0.00    +0.000 C 
ATOM     17  F   UNL     1      48.776   6.506  20.201  0.00  0.00    +0.000 F 
ATOM     18  F   UNL     1      47.133   7.925  20.566  0.00  0.00    +0.000 F 
ATOM     19  F   UNL     1      46.782   6.081  19.438  0.00  0.00    +0.000 F 
ENDBRANCH  15  16
ENDBRANCH  14  15
ENDBRANCH   6   9
BRANCH   1  20
ATOM     20  C   UNL     1      46.608   5.854  13.248  0.00  0.00    +0.000 C 
BRANCH  20  21
ATOM     21  O   UNL     1      45.211   5.603  13.396  0.00  0.00    +0.000 OA
BRANCH  21  26
ATOM     22  C   UNL     1      44.596   4.054  10.257  0.00  0.00    +0.000 A 
ATOM     23  N   UNL     1      43.695   3.079  10.529  0.00  0.00    +0.000 NA
ATOM     24  C   UNL     1      43.335   2.973  11.827  0.00  0.00    +0.000 A 
ATOM     25  C   UNL     1      43.826   3.796  12.815  0.00  0.00    +0.000 A 
ATOM     26  C   UNL     1      44.731   4.753  12.415  0.00  0.00    +0.000 A 
ATOM     27  N   UNL     1      45.134   4.907  11.145  0.00  0.00    +0.000 NA
BRANCH  22  29
ATOM     28  N   UNL     1      44.380   3.384   7.913  0.00  0.00    +0.000 N 
ATOM     29  C   UNL     1      45.021   4.201   8.815  0.00  0.00    +0.000 C 
ATOM     30  O   UNL     1      45.878   4.992   8.439  0.00  0.00    +0.000 OA
ATOM     31  H   UNL     1      44.622   3.449   6.935  0.00  0.00    +0.000 HD
ATOM     32  H   UNL     1      43.668   2.735   8.226  0.00  0.00    +0.000 HD
ENDBRANCH  22  29
ENDBRANCH  21  26
ENDBRANCH  20  21
ENDBRANCH   1  20
TORSDOF 7
ENDMDL
MODEL 8
REMARK VINA RESULT:    -6.519      3.480      7.003
REMARK INTER + INTRA:         -11.006
REMARK INTER:                  -9.137
REMARK INTRA:                  -1.868
REMARK UNBOUND:                -1.819
REMARK  Name = 
REMARK  7 active torsions:
REMARK  status: ('A' for Active; 'I' for Inactive)
REMARK    1  A    between atoms: C_2  and  C_4
REMARK    2  A    between atoms: C_8  and  O_9
REMARK    3  A    between atoms: O_9  and  C_10
REMARK    4  A    between atoms: C_10  and  C_11
REMARK    5  A    between atoms: C_16  and  C_17
REMARK    6  A    between atoms: C_22  and  O_23
REMARK    7  A    between atoms: O_23  and  C_24
REMARK                            x       y       z     vdW  Elec       q    Type
REMARK                         _______ _______ _______ _____ _____    ______ ____
ROOT
ATOM      1  C   UNL     1      47.608   7.333  13.651  0.00  0.00    +0.000 A 
ATOM      2  C   UNL     1      47.513   8.693  13.953  0.00  0.00    +0.000 A 
ATOM      3  C   UNL     1      48.077   9.172  15.131  0.00  0.00    +0.000 A 
ATOM      4  C   UNL     1      48.759   8.304  15.993  0.00  0.00    +0.000 A 
ATOM      5  F   UNL     1      49.377   8.873  17.039  0.00  0.00    +0.000 F 
ATOM      6  C   UNL     1      48.858   6.920  15.758  0.00  0.00    +0.000 A 
ATOM      7  C   UNL     1      48.220   6.468  14.579  0.00  0.00    +0.000 A 
ATOM      8  F   UNL     1      48.226   5.159  14.274  0.00  0.00    +0.000 F 
ENDROOT
BRANCH   6   9
ATOM      9  C   UNL     1      49.696   6.002  16.601  0.00  0.00    +0.000 A 
ATOM     10  C   UNL     1      51.106   6.114  16.534  0.00  0.00    +0.000 A 
ATOM     11  C   UNL     1      51.961   5.352  17.329  0.00  0.00    +0.000 A 
ATOM     12  C   UNL     1      51.431   4.505  18.285  0.00  0.00    +0.000 A 
ATOM     13  C   UNL     1      50.049   4.373  18.397  0.00  0.00    +0.000 A 
ATOM     14  C   UNL     1      49.182   5.043  17.515  0.00  0.00    +0.000 A 
BRANCH  14  15
ATOM     15  O   UNL     1      47.837   4.799  17.468  0.00  0.00    +0.000 OA
BRANCH  15  16
ATOM     16  C   UNL     1      47.348   3.607  16.872  0.00  0.00    +0.000 C 
ATOM     17  F   UNL     1      46.825   2.737  17.764  0.00  0.00    +0.000 F 
ATOM     18  F   UNL     1      46.417   3.896  15.937  0.00  0.00    +0.000 F 
ATOM     19  F   UNL     1      48.380   2.981  16.259  0.00  0.00    +0.000 F 
ENDBRANCH  15  16
ENDBRANCH  14  15
ENDBRANCH   6   9
BRANCH   1  20
ATOM     20  C   UNL     1      47.141   6.808  12.314  0.00  0.00    +0.000 C 
BRANCH  20  21
ATOM     21  O   UNL     1      45.774   7.157  12.095  0.00  0.00    +0.000 OA
BRANCH  21  26
ATOM     22  C   UNL     1      44.243   4.246  10.746  0.00  0.00    +0.000 A 
ATOM     23  N   UNL     1      43.321   3.887  11.672  0.00  0.00    +0.000 NA
ATOM     24  C   UNL     1      43.271   4.672  12.770  0.00  0.00    +0.000 A 
ATOM     25  C   UNL     1      44.080   5.770  12.949  0.00  0.00    +0.000 A 
ATOM     26  C   UNL     1      44.974   6.038  11.937  0.00  0.00    +0.000 A 
ATOM     27  N   UNL     1      45.078   5.297  10.824  0.00  0.00    +0.000 NA
BRANCH  22  29
ATOM     28  N   UNL     1      44.213   4.058   8.306  0.00  0.00    +0.000 N 
ATOM     29  C   UNL     1      44.326   3.391   9.504  0.00  0.00    +0.000 C 
ATOM     30  O   UNL     1      44.486   2.176   9.527  0.00  0.00    +0.000 OA
ATOM     31  H   UNL     1      44.270   3.532   7.446  0.00  0.00    +0.000 HD
ATOM     32  H   UNL     1      44.086   5.063   8.289  0.00  0.00    +0.000 HD
ENDBRANCH  22  29
ENDBRANCH  21  26
ENDBRANCH  20  21
ENDBRANCH   1  20
TORSDOF 7
ENDMDL
MODEL 9
REMARK VINA RESULT:    -6.289      2.116      3.879
REMARK INTER + INTRA:         -10.682
REMARK INTER:                  -8.474
REMARK INTRA:                  -2.208
REMARK UNBOUND:                -1.819
REMARK  Name = 
REMARK  7 active torsions:
REMARK  status: ('A' for Active; 'I' for Inactive)
REMARK    1  A    between atoms: C_2  and  C_4
REMARK    2  A    between atoms: C_8  and  O_9
REMARK    3  A    between atoms: O_9  and  C_10
REMARK    4  A    between atoms: C_10  and  C_11
REMARK    5  A    between atoms: C_16  and  C_17
REMARK    6  A    between atoms: C_22  and  O_23
REMARK    7  A    between atoms: O_23  and  C_24
REMARK                            x       y       z     vdW  Elec       q    Type
REMARK                         _______ _______ _______ _____ _____    ______ ____
ROOT
ATOM      1  C   UNL     1      49.359   8.275  14.962  0.00  0.00    +0.000 A 
ATOM      2  C   UNL     1      50.372   7.743  14.162  0.00  0.00    +0.000 A 
ATOM      3  C   UNL     1      50.140   7.546  12.805  0.00  0.00    +0.000 A 
ATOM      4  C   UNL     1      48.910   7.906  12.239  0.00  0.00    +0.000 A 
ATOM      5  F   UNL     1      48.819   7.799  10.905  0.00  0.00    +0.000 F 
ATOM      6  C   UNL     1      47.842   8.416  13.000  0.00  0.00    +0.000 A 
ATOM      7  C   UNL     1      48.103   8.544  14.384  0.00  0.00    +0.000 A 
ATOM      8  F   UNL     1      47.140   8.991  15.209  0.00  0.00    +0.000 F 
ENDROOT
BRANCH   6   9
ATOM      9  C   UNL     1      46.569   8.929  12.388  0.00  0.00    +0.000 A 
ATOM     10  C   UNL     1      46.493  10.294  12.021  0.00  0.00    +0.000 A 
ATOM     11  C   UNL     1      45.379  10.843  11.386  0.00  0.00    +0.000 A 
ATOM     12  C   UNL     1      44.329  10.021  11.019  0.00  0.00    +0.000 A 
ATOM     13  C   UNL     1      44.367   8.668  11.347  0.00  0.00    +0.000 A 
ATOM     14  C   UNL     1      45.430   8.132  12.098  0.00  0.00    +0.000 A 
BRANCH  14  15
ATOM     15  O   UNL     1      45.416   6.860  12.600  0.00  0.00    +0.000 OA
BRANCH  15  16
ATOM     16  C   UNL     1      45.602   5.750  11.735  0.00  0.00    +0.000 C 
ATOM     17  F   UNL     1      44.445   5.254  11.243  0.00  0.00    +0.000 F 
ATOM     18  F   UNL     1      46.413   6.084  10.708  0.00  0.00    +0.000 F 
ATOM     19  F   UNL     1      46.196   4.756  12.436  0.00  0.00    +0.000 F 
ENDBRANCH  15  16
ENDBRANCH  14  15
ENDBRANCH   6   9
BRANCH   1  20
ATOM     20  C   UNL     1      49.628   8.640  16.403  0.00  0.00    +0.000 C 
BRANCH  20  21
ATOM     21  O   UNL     1      50.072   7.495  17.130  0.00  0.00    +0.000 OA
BRANCH  21  26
ATOM     22  C   UNL     1      47.567   5.018  17.610  0.00  0.00    +0.000 A 
ATOM     23  N   UNL     1      46.882   5.435  18.703  0.00  0.00    +0.000 NA
ATOM     24  C   UNL     1      47.333   6.579  19.264  0.00  0.00    +0.000 A 
ATOM     25  C   UNL     1      48.400   7.291  18.769  0.00  0.00    +0.000 A 
ATOM     26  C   UNL     1      49.013   6.771  17.651  0.00  0.00    +0.000 A 
ATOM     27  N   UNL     1      48.620   5.639  17.050  0.00  0.00    +0.000 NA
BRANCH  22  29
ATOM     28  N   UNL     1      47.136   3.719  15.582  0.00  0.00    +0.000 N 
ATOM     29  C   UNL     1      47.091   3.744  16.957  0.00  0.00    +0.000 C 
ATOM     30  O   UNL     1      46.685   2.771  17.583  0.00  0.00    +0.000 OA
ATOM     31  H   UNL     1      46.836   2.886  15.097  0.00  0.00    +0.000 HD
ATOM     32  H   UNL     1      47.477   4.522  15.066  0.00  0.00    +0.000 HD
ENDBRANCH  22  29
ENDBRANCH  21  26
ENDBRANCH  20  21
ENDBRANCH   1  20
TORSDOF 7
ENDMDL
