MODEL 1
REMARK VINA RESULT:    -8.470      0.000      0.000
REMARK INTER + INTRA:         -13.106
REMARK INTER:                 -11.937
REMARK INTRA:                  -1.169
REMARK UNBOUND:                -1.169
REMARK  Name = 
REMARK  8 active torsions:
REMARK  status: ('A' for Active; 'I' for Inactive)
REMARK    1  A    between atoms: C_1  and  C_2
REMARK    2  A    between atoms: C_2  and  C_3
REMARK    3  A    between atoms: C_2  and  C_14
REMARK    4  A    between atoms: C_3  and  O_4
REMARK    5  A    between atoms: O_4  and  C_5
REMARK    6  A    between atoms: C_8  and  C_9
REMARK    7  A    between atoms: C_18  and  O_19
REMARK    8  A    between atoms: O_19  and  C_20
REMARK                            x       y       z     vdW  Elec       q    Type
REMARK                         _______ _______ _______ _____ _____    ______ ____
ROOT
ATOM      1  C   UNL     1      42.515   5.719  11.963  0.00  0.00    +0.000 C 
ATOM      2  C   UNL     1      43.408   4.561  12.428  0.00  0.00    +0.000 C 
ENDROOT
BRANCH   2   3
ATOM      3  C   UNL     1      44.813   5.054  12.722  0.00  0.00    +0.000 A 
ATOM      4  C   UNL     1      45.301   6.180  12.048  0.00  0.00    +0.000 A 
ATOM      5  C   UNL     1      46.627   6.573  12.204  0.00  0.00    +0.000 A 
ATOM      6  C   UNL     1      47.471   5.876  13.070  0.00  0.00    +0.000 A 
ATOM      7  C   UNL     1      46.978   4.816  13.831  0.00  0.00    +0.000 A 
ATOM      8  C   UNL     1      45.661   4.391  13.628  0.00  0.00    +0.000 A 
BRANCH   7   9
ATOM      9  O   UNL     1      47.675   4.132  14.798  0.00  0.00    +0.000 OA
BRANCH   9  10
ATOM     10  C   UNL     1      47.393   4.479  16.162  0.00  0.00    +0.000 C 
ATOM     11  C   UNL     1      48.506   5.366  16.704  0.00  0.00    +0.000 C 
ATOM     12  C   UNL     1      49.451   4.419  17.420  0.00  0.00    +0.000 C 
ATOM     13  N   UNL     1      48.640   3.307  17.913  0.00  0.00    +0.000 NA
ATOM     14  C   UNL     1      47.413   3.266  17.102  0.00  0.00    +0.000 C 
ATOM     15  H   UNL     1      48.398   3.454  18.891  0.00  0.00    +0.000 HD
ENDBRANCH   9  10
ENDBRANCH   7   9
ENDBRANCH   2   3
BRANCH   2  16
ATOM     16  C   UNL     1      43.401   3.391  11.434  0.00  0.00    +0.000 C 
BRANCH  16  17
ATOM     17  O   UNL     1      43.545   3.916  10.111  0.00  0.00    +0.000 OA
BRANCH  17  18
ATOM     18  C   UNL     1      44.494   3.343   9.314  0.00  0.00    +0.000 A 
ATOM     19  C   UNL     1      44.827   1.987   9.288  0.00  0.00    +0.000 A 
ATOM     20  C   UNL     1      45.814   1.523   8.414  0.00  0.00    +0.000 A 
ATOM     21  C   UNL     1      46.469   2.408   7.558  0.00  0.00    +0.000 A 
ATOM     22  C   UNL     1      46.157   3.770   7.597  0.00  0.00    +0.000 A 
ATOM     23  C   UNL     1      45.172   4.230   8.476  0.00  0.00    +0.000 A 
BRANCH  21  24
ATOM     24  C   UNL     1      47.490   1.856   6.629  0.00  0.00    +0.000 C 
ATOM     25  N   UNL     1      48.628   2.586   6.438  0.00  0.00    +0.000 N 
ATOM     26  O   UNL     1      47.310   0.803   6.032  0.00  0.00    +0.000 OA
ATOM     27  H   UNL     1      48.712   3.556   6.719  0.00  0.00    +0.000 HD
ATOM     28  H   UNL     1      49.256   2.252   5.715  0.00  0.00    +0.000 HD
ENDBRANCH  21  24
ENDBRANCH  17  18
ENDBRANCH  16  17
ENDBRANCH   2  16
TORSDOF 7
ENDMDL
MODEL 2
REMARK VINA RESULT:    -7.457      1.364      2.078
REMARK INTER + INTRA:         -11.678
REMARK INTER:                 -10.724
REMARK INTRA:                  -0.953
REMARK UNBOUND:                -1.169
REMARK  Name = 
REMARK  8 active torsions:
REMARK  status: ('A' for Active; 'I' for Inactive)
REMARK    1  A    between atoms: C_1  and  C_2
REMARK    2  A    between atoms: C_2  and  C_3
REMARK    3  A    between atoms: C_2  and  C_14
REMARK    4  A    between atoms: C_3  and  O_4
REMARK    5  A    between atoms: O_4  and  C_5
REMARK    6  A    between atoms: C_8  and  C_9
REMARK    7  A    between atoms: C_18  and  O_19
REMARK    8  A    between atoms: O_19  and  C_20
REMARK                            x       y       z     vdW  Elec       q    Type
REMARK                         _______ _______ _______ _____ _____    ______ ____
ROOT
ATOM      1  C   UNL     1      44.996   3.749  12.877  0.00  0.00    +0.000 C 
ATOM      2  C   UNL     1      45.481   4.806  11.877  0.00  0.00    +0.000 C 
ENDROOT
BRANCH   2   3
ATOM      3  C   UNL     1      46.186   5.940  12.599  0.00  0.00    +0.000 A 
ATOM      4  C   UNL     1      45.636   7.226  12.561  0.00  0.00    +0.000 A 
ATOM      5  C   UNL     1      46.329   8.305  13.104  0.00  0.00    +0.000 A 
ATOM      6  C   UNL     1      47.559   8.106  13.733  0.00  0.00    +0.000 A 
ATOM      7  C   UNL     1      48.078   6.818  13.875  0.00  0.00    +0.000 A 
ATOM      8  C   UNL     1      47.403   5.747  13.278  0.00  0.00    +0.000 A 
BRANCH   7   9
ATOM      9  O   UNL     1      49.213   6.484  14.572  0.00  0.00    +0.000 OA
BRANCH   9  10
ATOM     10  C   UNL     1      49.244   6.841  15.962  0.00  0.00    +0.000 C 
ATOM     11  C   UNL     1      50.687   6.900  16.443  0.00  0.00    +0.000 C 
ATOM     12  C   UNL     1      50.953   5.540  17.061  0.00  0.00    +0.000 C 
ATOM     13  N   UNL     1      49.676   5.057  17.583  0.00  0.00    +0.000 NA
ATOM     14  C   UNL     1      48.610   5.773  16.866  0.00  0.00    +0.000 C 
ATOM     15  H   UNL     1      49.606   5.253  18.580  0.00  0.00    +0.000 HD
ENDBRANCH   9  10
ENDBRANCH   7   9
ENDBRANCH   2   3
BRANCH   2  16
ATOM     16  C   UNL     1      44.346   5.312  10.975  0.00  0.00    +0.000 C 
BRANCH  16  17
ATOM     17  O   UNL     1      43.902   4.229  10.151  0.00  0.00    +0.000 OA
BRANCH  17  18
ATOM     18  C   UNL     1      44.800   3.716   9.260  0.00  0.00    +0.000 A 
ATOM     19  C   UNL     1      45.577   4.457   8.368  0.00  0.00    +0.000 A 
ATOM     20  C   UNL     1      46.473   3.809   7.511  0.00  0.00    +0.000 A 
ATOM     21  C   UNL     1      46.600   2.420   7.545  0.00  0.00    +0.000 A 
ATOM     22  C   UNL     1      45.806   1.672   8.419  0.00  0.00    +0.000 A 
ATOM     23  C   UNL     1      44.910   2.324   9.271  0.00  0.00    +0.000 A 
BRANCH  21  24
ATOM     24  C   UNL     1      47.587   1.786   6.632  0.00  0.00    +0.000 C 
ATOM     25  N   UNL     1      48.706   2.503   6.318  0.00  0.00    +0.000 N 
ATOM     26  O   UNL     1      47.393   0.678   6.151  0.00  0.00    +0.000 OA
ATOM     27  H   UNL     1      48.790   3.497   6.498  0.00  0.00    +0.000 HD
ATOM     28  H   UNL     1      49.306   2.104   5.604  0.00  0.00    +0.000 HD
ENDBRANCH  21  24
ENDBRANCH  17  18
ENDBRANCH  16  17
ENDBRANCH   2  16
TORSDOF 7
ENDMDL
MODEL 3
REMARK VINA RESULT:    -7.261      3.610      5.496
REMARK INTER + INTRA:         -11.402
REMARK INTER:                 -10.392
REMARK INTRA:                  -1.010
REMARK UNBOUND:                -1.169
REMARK  Name = 
REMARK  8 active torsions:
REMARK  status: ('A' for Active; 'I' for Inactive)
REMARK    1  A    between atoms: C_1  and  C_2
REMARK    2  A    between atoms: C_2  and  C_3
REMARK    3  A    between atoms: C_2  and  C_14
REMARK    4  A    between atoms: C_3  and  O_4
REMARK    5  A    between atoms: O_4  and  C_5
REMARK    6  A    between atoms: C_8  and  C_9
REMARK    7  A    between atoms: C_18  and  O_19
REMARK    8  A    between atoms: O_19  and  C_20
REMARK                            x       y       z     vdW  Elec       q    Type
REMARK                         _______ _______ _______ _____ _____    ______ ____
ROOT
ATOM      1  C   UNL     1      45.717   4.150  12.902  0.00  0.00    +0.000 C 
ATOM      2  C   UNL     1      45.361   4.962  11.650  0.00  0.00    +0.000 C 
ENDROOT
BRANCH   2   3
ATOM      3  C   UNL     1      45.848   6.393  11.784  0.00  0.00    +0.000 A 
ATOM      4  C   UNL     1      47.219   6.644  11.910  0.00  0.00    +0.000 A 
ATOM      5  C   UNL     1      47.678   7.934  12.164  0.00  0.00    +0.000 A 
ATOM      6  C   UNL     1      46.778   8.998  12.249  0.00  0.00    +0.000 A 
ATOM      7  C   UNL     1      45.417   8.787  12.024  0.00  0.00    +0.000 A 
ATOM      8  C   UNL     1      44.956   7.482  11.825  0.00  0.00    +0.000 A 
BRANCH   7   9
ATOM      9  O   UNL     1      44.455   9.766  11.965  0.00  0.00    +0.000 OA
BRANCH   9  10
ATOM     10  C   UNL     1      43.992  10.137  10.658  0.00  0.00    +0.000 C 
ATOM     11  C   UNL     1      44.263  11.617  10.420  0.00  0.00    +0.000 C 
ATOM     12  C   UNL     1      42.968  12.317  10.786  0.00  0.00    +0.000 C 
ATOM     13  N   UNL     1      41.885  11.375  10.508  0.00  0.00    +0.000 NA
ATOM     14  C   UNL     1      42.468  10.025  10.511  0.00  0.00    +0.000 C 
ATOM     15  H   UNL     1      41.476  11.568   9.596  0.00  0.00    +0.000 HD
ENDBRANCH   9  10
ENDBRANCH   7   9
ENDBRANCH   2   3
BRANCH   2  16
ATOM     16  C   UNL     1      43.864   4.887  11.319  0.00  0.00    +0.000 C 
BRANCH  16  17
ATOM     17  O   UNL     1      43.714   4.814   9.898  0.00  0.00    +0.000 OA
BRANCH  17  18
ATOM     18  C   UNL     1      44.557   3.976   9.226  0.00  0.00    +0.000 A 
ATOM     19  C   UNL     1      45.527   4.366   8.300  0.00  0.00    +0.000 A 
ATOM     20  C   UNL     1      46.338   3.406   7.688  0.00  0.00    +0.000 A 
ATOM     21  C   UNL     1      46.189   2.055   8.000  0.00  0.00    +0.000 A 
ATOM     22  C   UNL     1      45.202   1.657   8.906  0.00  0.00    +0.000 A 
ATOM     23  C   UNL     1      44.391   2.620   9.514  0.00  0.00    +0.000 A 
BRANCH  21  24
ATOM     24  C   UNL     1      47.097   1.080   7.339  0.00  0.00    +0.000 C 
ATOM     25  N   UNL     1      48.131   1.582   6.602  0.00  0.00    +0.000 N 
ATOM     26  O   UNL     1      46.910  -0.127   7.422  0.00  0.00    +0.000 OA
ATOM     27  H   UNL     1      48.182   2.553   6.316  0.00  0.00    +0.000 HD
ATOM     28  H   UNL     1      48.666   0.908   6.066  0.00  0.00    +0.000 HD
ENDBRANCH  21  24
ENDBRANCH  17  18
ENDBRANCH  16  17
ENDBRANCH   2  16
TORSDOF 7
ENDMDL
MODEL 4
REMARK VINA RESULT:    -6.799      3.027      4.525
REMARK INTER + INTRA:         -10.751
REMARK INTER:                  -9.792
REMARK INTRA:                  -0.959
REMARK UNBOUND:                -1.169
REMARK  Name = 
REMARK  8 active torsions:
REMARK  status: ('A' for Active; 'I' for Inactive)
REMARK    1  A    between atoms: C_1  and  C_2
REMARK    2  A    between atoms: C_2  and  C_3
REMARK    3  A    between atoms: C_2  and  C_14
REMARK    4  A    between atoms: C_3  and  O_4
REMARK    5  A    between atoms: O_4  and  C_5
REMARK    6  A    between atoms: C_8  and  C_9
REMARK    7  A    between atoms: C_18  and  O_19
REMARK    8  A    between atoms: O_19  and  C_20
REMARK                            x       y       z     vdW  Elec       q    Type
REMARK                         _______ _______ _______ _____ _____    ______ ____
ROOT
ATOM      1  C   UNL     1      45.047   3.354  12.769  0.00  0.00    +0.000 C 
ATOM      2  C   UNL     1      45.471   4.401  11.731  0.00  0.00    +0.000 C 
ENDROOT
BRANCH   2   3
ATOM      3  C   UNL     1      46.458   5.383  12.336  0.00  0.00    +0.000 A 
ATOM      4  C   UNL     1      46.883   5.205  13.657  0.00  0.00    +0.000 A 
ATOM      5  C   UNL     1      47.684   6.162  14.274  0.00  0.00    +0.000 A 
ATOM      6  C   UNL     1      48.110   7.287  13.565  0.00  0.00    +0.000 A 
ATOM      7  C   UNL     1      47.785   7.432  12.216  0.00  0.00    +0.000 A 
ATOM      8  C   UNL     1      46.934   6.496  11.618  0.00  0.00    +0.000 A 
BRANCH   7   9
ATOM      9  O   UNL     1      48.240   8.429  11.386  0.00  0.00    +0.000 OA
BRANCH   9  10
ATOM     10  C   UNL     1      48.757   9.608  12.019  0.00  0.00    +0.000 C 
ATOM     11  C   UNL     1      47.945  10.821  11.582  0.00  0.00    +0.000 C 
ATOM     12  C   UNL     1      48.726  11.421  10.428  0.00  0.00    +0.000 C 
ATOM     13  N   UNL     1      50.134  11.113  10.665  0.00  0.00    +0.000 NA
ATOM     14  C   UNL     1      50.183   9.952  11.566  0.00  0.00    +0.000 C 
ATOM     15  H   UNL     1      50.600  11.906  11.104  0.00  0.00    +0.000 HD
ENDBRANCH   9  10
ENDBRANCH   7   9
ENDBRANCH   2   3
BRANCH   2  16
ATOM     16  C   UNL     1      44.265   5.108  11.097  0.00  0.00    +0.000 C 
BRANCH  16  17
ATOM     17  O   UNL     1      43.773   4.298  10.024  0.00  0.00    +0.000 OA
BRANCH  17  18
ATOM     18  C   UNL     1      44.699   3.756   9.179  0.00  0.00    +0.000 A 
ATOM     19  C   UNL     1      45.504   4.468   8.288  0.00  0.00    +0.000 A 
ATOM     20  C   UNL     1      46.426   3.793   7.482  0.00  0.00    +0.000 A 
ATOM     21  C   UNL     1      46.552   2.406   7.565  0.00  0.00    +0.000 A 
ATOM     22  C   UNL     1      45.730   1.686   8.438  0.00  0.00    +0.000 A 
ATOM     23  C   UNL     1      44.808   2.366   9.239  0.00  0.00    +0.000 A 
BRANCH  21  24
ATOM     24  C   UNL     1      47.567   1.743   6.704  0.00  0.00    +0.000 C 
ATOM     25  N   UNL     1      48.670   2.469   6.358  0.00  0.00    +0.000 N 
ATOM     26  O   UNL     1      47.409   0.602   6.292  0.00  0.00    +0.000 OA
ATOM     27  H   UNL     1      48.725   3.475   6.476  0.00  0.00    +0.000 HD
ATOM     28  H   UNL     1      49.289   2.043   5.678  0.00  0.00    +0.000 HD
ENDBRANCH  21  24
ENDBRANCH  17  18
ENDBRANCH  16  17
ENDBRANCH   2  16
TORSDOF 7
ENDMDL
MODEL 5
REMARK VINA RESULT:    -6.762      1.729      7.857
REMARK INTER + INTRA:         -10.699
REMARK INTER:                  -9.565
REMARK INTRA:                  -1.134
REMARK UNBOUND:                -1.169
REMARK  Name = 
REMARK  8 active torsions:
REMARK  status: ('A' for Active; 'I' for Inactive)
REMARK    1  A    between atoms: C_1  and  C_2
REMARK    2  A    between atoms: C_2  and  C_3
REMARK    3  A    between atoms: C_2  and  C_14
REMARK    4  A    between atoms: C_3  and  O_4
REMARK    5  A    between atoms: O_4  and  C_5
REMARK    6  A    between atoms: C_8  and  C_9
REMARK    7  A    between atoms: C_18  and  O_19
REMARK    8  A    between atoms: O_19  and  C_20
REMARK                            x       y       z     vdW  Elec       q    Type
REMARK                         _______ _______ _______ _____ _____    ______ ____
ROOT
ATOM      1  C   UNL     1      44.582   7.231  11.607  0.00  0.00    +0.000 C 
ATOM      2  C   UNL     1      45.659   6.533  10.768  0.00  0.00    +0.000 C 
ENDROOT
BRANCH   2   3
ATOM      3  C   UNL     1      45.162   5.186  10.273  0.00  0.00    +0.000 A 
ATOM      4  C   UNL     1      44.374   4.393  11.115  0.00  0.00    +0.000 A 
ATOM      5  C   UNL     1      44.015   3.103  10.734  0.00  0.00    +0.000 A 
ATOM      6  C   UNL     1      44.398   2.605   9.487  0.00  0.00    +0.000 A 
ATOM      7  C   UNL     1      45.094   3.416   8.589  0.00  0.00    +0.000 A 
ATOM      8  C   UNL     1      45.499   4.690   9.000  0.00  0.00    +0.000 A 
BRANCH   7   9
ATOM      9  O   UNL     1      45.421   3.081   7.298  0.00  0.00    +0.000 OA
BRANCH   9  10
ATOM     10  C   UNL     1      46.820   3.029   6.981  0.00  0.00    +0.000 C 
ATOM     11  C   UNL     1      47.013   3.232   5.484  0.00  0.00    +0.000 C 
ATOM     12  C   UNL     1      47.102   1.833   4.905  0.00  0.00    +0.000 C 
ATOM     13  N   UNL     1      47.674   0.981   5.946  0.00  0.00    +0.000 NA
ATOM     14  C   UNL     1      47.438   1.647   7.236  0.00  0.00    +0.000 C 
ATOM     15  H   UNL     1      48.676   0.868   5.798  0.00  0.00    +0.000 HD
ENDBRANCH   9  10
ENDBRANCH   7   9
ENDBRANCH   2   3
BRANCH   2  16
ATOM     16  C   UNL     1      46.993   6.416  11.519  0.00  0.00    +0.000 C 
BRANCH  16  17
ATOM     17  O   UNL     1      46.781   6.789  12.884  0.00  0.00    +0.000 OA
BRANCH  17  18
ATOM     18  C   UNL     1      47.149   5.886  13.840  0.00  0.00    +0.000 A 
ATOM     19  C   UNL     1      47.798   6.187  15.040  0.00  0.00    +0.000 A 
ATOM     20  C   UNL     1      48.110   5.167  15.943  0.00  0.00    +0.000 A 
ATOM     21  C   UNL     1      47.772   3.844  15.657  0.00  0.00    +0.000 A 
ATOM     22  C   UNL     1      47.146   3.534  14.446  0.00  0.00    +0.000 A 
ATOM     23  C   UNL     1      46.839   4.557  13.544  0.00  0.00    +0.000 A 
BRANCH  21  24
ATOM     24  C   UNL     1      48.104   2.804  16.666  0.00  0.00    +0.000 C 
ATOM     25  N   UNL     1      48.994   1.834  16.302  0.00  0.00    +0.000 N 
ATOM     26  O   UNL     1      47.578   2.793  17.771  0.00  0.00    +0.000 OA
ATOM     27  H   UNL     1      49.266   1.671  15.339  0.00  0.00    +0.000 HD
ATOM     28  H   UNL     1      49.117   1.072  16.959  0.00  0.00    +0.000 HD
ENDBRANCH  21  24
ENDBRANCH  17  18
ENDBRANCH  16  17
ENDBRANCH   2  16
TORSDOF 7
ENDMDL
MODEL 6
REMARK VINA RESULT:    -6.560      2.840      3.755
REMARK INTER + INTRA:         -10.413
REMARK INTER:                  -9.412
REMARK INTRA:                  -1.001
REMARK UNBOUND:                -1.169
REMARK  Name = 
REMARK  8 active torsions:
REMARK  status: ('A' for Active; 'I' for Inactive)
REMARK    1  A    between atoms: C_1  and  C_2
REMARK    2  A    between atoms: C_2  and  C_3
REMARK    3  A    between atoms: C_2  and  C_14
REMARK    4  A    between atoms: C_3  and  O_4
REMARK    5  A    between atoms: O_4  and  C_5
REMARK    6  A    between atoms: C_8  and  C_9
REMARK    7  A    between atoms: C_18  and  O_19
REMARK    8  A    between atoms: O_19  and  C_20
REMARK                            x       y       z     vdW  Elec       q    Type
REMARK                         _______ _______ _______ _____ _____    ______ ____
ROOT
ATOM      1  C   UNL     1      46.106   3.932  13.247  0.00  0.00    +0.000 C 
ATOM      2  C   UNL     1      45.581   4.797  12.094  0.00  0.00    +0.000 C 
ENDROOT
BRANCH   2   3
ATOM      3  C   UNL     1      46.051   6.232  12.246  0.00  0.00    +0.000 A 
ATOM      4  C   UNL     1      45.180   7.187  12.782  0.00  0.00    +0.000 A 
ATOM      5  C   UNL     1      45.541   8.531  12.811  0.00  0.00    +0.000 A 
ATOM      6  C   UNL     1      46.795   8.934  12.349  0.00  0.00    +0.000 A 
ATOM      7  C   UNL     1      47.719   7.986  11.907  0.00  0.00    +0.000 A 
ATOM      8  C   UNL     1      47.330   6.645  11.828  0.00  0.00    +0.000 A 
BRANCH   7   9
ATOM      9  O   UNL     1      49.018   8.245  11.540  0.00  0.00    +0.000 OA
BRANCH   9  10
ATOM     10  C   UNL     1      49.799   9.033  12.450  0.00  0.00    +0.000 C 
ATOM     11  C   UNL     1      51.043   9.551  11.740  0.00  0.00    +0.000 C 
ATOM     12  C   UNL     1      52.135   8.556  12.084  0.00  0.00    +0.000 C 
ATOM     13  N   UNL     1      51.811   8.010  13.400  0.00  0.00    +0.000 NA
ATOM     14  C   UNL     1      50.369   8.209  13.614  0.00  0.00    +0.000 C 
ATOM     15  H   UNL     1      52.334   8.500  14.124  0.00  0.00    +0.000 HD
ENDBRANCH   9  10
ENDBRANCH   7   9
ENDBRANCH   2   3
BRANCH   2  16
ATOM     16  C   UNL     1      44.056   4.699  11.946  0.00  0.00    +0.000 C 
BRANCH  16  17
ATOM     17  O   UNL     1      43.730   4.726  10.553  0.00  0.00    +0.000 OA
BRANCH  17  18
ATOM     18  C   UNL     1      44.480   3.943   9.723  0.00  0.00    +0.000 A 
ATOM     19  C   UNL     1      44.495   2.547   9.713  0.00  0.00    +0.000 A 
ATOM     20  C   UNL     1      45.302   1.860   8.801  0.00  0.00    +0.000 A 
ATOM     21  C   UNL     1      46.094   2.563   7.893  0.00  0.00    +0.000 A 
ATOM     22  C   UNL     1      46.103   3.961   7.917  0.00  0.00    +0.000 A 
ATOM     23  C   UNL     1      45.297   4.643   8.833  0.00  0.00    +0.000 A 
BRANCH  21  24
ATOM     24  C   UNL     1      46.913   1.782   6.928  0.00  0.00    +0.000 C 
ATOM     25  N   UNL     1      47.254   0.507   7.279  0.00  0.00    +0.000 N 
ATOM     26  O   UNL     1      47.296   2.269   5.873  0.00  0.00    +0.000 OA
ATOM     27  H   UNL     1      47.163   0.155   8.225  0.00  0.00    +0.000 HD
ATOM     28  H   UNL     1      47.907   0.035   6.664  0.00  0.00    +0.000 HD
ENDBRANCH  21  24
ENDBRANCH  17  18
ENDBRANCH  16  17
ENDBRANCH   2  16
TORSDOF 7
ENDMDL
MODEL 7
REMARK VINA RESULT:    -6.426      2.994      7.527
REMARK INTER + INTRA:         -10.225
REMARK INTER:                  -8.888
REMARK INTRA:                  -1.336
REMARK UNBOUND:                -1.169
REMARK  Name = 
REMARK  8 active torsions:
REMARK  status: ('A' for Active; 'I' for Inactive)
REMARK    1  A    between atoms: C_1  and  C_2
REMARK    2  A    between atoms: C_2  and  C_3
REMARK    3  A    between atoms: C_2  and  C_14
REMARK    4  A    between atoms: C_3  and  O_4
REMARK    5  A    between atoms: O_4  and  C_5
REMARK    6  A    between atoms: C_8  and  C_9
REMARK    7  A    between atoms: C_18  and  O_19
REMARK    8  A    between atoms: O_19  and  C_20
REMARK                            x       y       z     vdW  Elec       q    Type
REMARK                         _______ _______ _______ _____ _____    ______ ____
ROOT
ATOM      1  C   UNL     1      49.471   9.364  11.703  0.00  0.00    +0.000 C 
ATOM      2  C   UNL     1      48.877   7.950  11.736  0.00  0.00    +0.000 C 
ENDROOT
BRANCH   2   3
ATOM      3  C   UNL     1      47.361   8.008  11.770  0.00  0.00    +0.000 A 
ATOM      4  C   UNL     1      46.727   9.201  12.137  0.00  0.00    +0.000 A 
ATOM      5  C   UNL     1      45.345   9.242  12.301  0.00  0.00    +0.000 A 
ATOM      6  C   UNL     1      44.573   8.106  12.054  0.00  0.00    +0.000 A 
ATOM      7  C   UNL     1      45.172   6.936  11.587  0.00  0.00    +0.000 A 
ATOM      8  C   UNL     1      46.566   6.885  11.478  0.00  0.00    +0.000 A 
BRANCH   7   9
ATOM      9  O   UNL     1      44.509   5.797  11.199  0.00  0.00    +0.000 OA
BRANCH   9  10
ATOM     10  C   UNL     1      45.195   4.553  11.398  0.00  0.00    +0.000 C 
ATOM     11  C   UNL     1      44.710   3.531  10.378  0.00  0.00    +0.000 C 
ATOM     12  C   UNL     1      43.629   2.743  11.093  0.00  0.00    +0.000 C 
ATOM     13  N   UNL     1      43.973   2.747  12.514  0.00  0.00    +0.000 NA
ATOM     14  C   UNL     1      44.861   3.896  12.746  0.00  0.00    +0.000 C 
ATOM     15  H   UNL     1      44.457   1.886  12.761  0.00  0.00    +0.000 HD
ENDBRANCH   9  10
ENDBRANCH   7   9
ENDBRANCH   2   3
BRANCH   2  16
ATOM     16  C   UNL     1      49.450   7.108  12.885  0.00  0.00    +0.000 C 
BRANCH  16  17
ATOM     17  O   UNL     1      48.832   7.524  14.107  0.00  0.00    +0.000 OA
BRANCH  17  18
ATOM     18  C   UNL     1      48.567   6.555  15.031  0.00  0.00    +0.000 A 
ATOM     19  C   UNL     1      49.101   6.489  16.319  0.00  0.00    +0.000 A 
ATOM     20  C   UNL     1      48.738   5.446  17.177  0.00  0.00    +0.000 A 
ATOM     21  C   UNL     1      47.837   4.468  16.755  0.00  0.00    +0.000 A 
ATOM     22  C   UNL     1      47.319   4.515  15.457  0.00  0.00    +0.000 A 
ATOM     23  C   UNL     1      47.688   5.558  14.602  0.00  0.00    +0.000 A 
BRANCH  21  24
ATOM     24  C   UNL     1      47.465   3.397  17.717  0.00  0.00    +0.000 C 
ATOM     25  N   UNL     1      48.302   3.183  18.774  0.00  0.00    +0.000 N 
ATOM     26  O   UNL     1      46.466   2.710  17.555  0.00  0.00    +0.000 OA
ATOM     27  H   UNL     1      49.243   3.558  18.816  0.00  0.00    +0.000 HD
ATOM     28  H   UNL     1      48.095   2.375  19.351  0.00  0.00    +0.000 HD
ENDBRANCH  21  24
ENDBRANCH  17  18
ENDBRANCH  16  17
ENDBRANCH   2  16
TORSDOF 7
ENDMDL
MODEL 8
REMARK VINA RESULT:    -6.356      3.626      7.935
REMARK INTER + INTRA:         -10.126
REMARK INTER:                  -9.164
REMARK INTRA:                  -0.962
REMARK UNBOUND:                -1.169
REMARK  Name = 
REMARK  8 active torsions:
REMARK  status: ('A' for Active; 'I' for Inactive)
REMARK    1  A    between atoms: C_1  and  C_2
REMARK    2  A    between atoms: C_2  and  C_3
REMARK    3  A    between atoms: C_2  and  C_14
REMARK    4  A    between atoms: C_3  and  O_4
REMARK    5  A    between atoms: O_4  and  C_5
REMARK    6  A    between atoms: C_8  and  C_9
REMARK    7  A    between atoms: C_18  and  O_19
REMARK    8  A    between atoms: O_19  and  C_20
REMARK                            x       y       z     vdW  Elec       q    Type
REMARK                         _______ _______ _______ _____ _____    ______ ____
ROOT
ATOM      1  C   UNL     1      44.517   7.226  11.347  0.00  0.00    +0.000 C 
ATOM      2  C   UNL     1      45.692   6.292  11.031  0.00  0.00    +0.000 C 
ENDROOT
BRANCH   2   3
ATOM      3  C   UNL     1      45.197   5.009  10.387  0.00  0.00    +0.000 A 
ATOM      4  C   UNL     1      44.404   4.129  11.132  0.00  0.00    +0.000 A 
ATOM      5  C   UNL     1      44.046   2.889  10.608  0.00  0.00    +0.000 A 
ATOM      6  C   UNL     1      44.436   2.532   9.315  0.00  0.00    +0.000 A 
ATOM      7  C   UNL     1      45.138   3.436   8.517  0.00  0.00    +0.000 A 
ATOM      8  C   UNL     1      45.541   4.657   9.069  0.00  0.00    +0.000 A 
BRANCH   7   9
ATOM      9  O   UNL     1      45.473   3.247   7.198  0.00  0.00    +0.000 OA
BRANCH   9  10
ATOM     10  C   UNL     1      46.871   3.127   6.900  0.00  0.00    +0.000 C 
ATOM     11  C   UNL     1      47.083   3.218   5.394  0.00  0.00    +0.000 C 
ATOM     12  C   UNL     1      47.130   1.779   4.916  0.00  0.00    +0.000 C 
ATOM     13  N   UNL     1      47.665   0.984   6.020  0.00  0.00    +0.000 NA
ATOM     14  C   UNL     1      47.441   1.746   7.258  0.00  0.00    +0.000 C 
ATOM     15  H   UNL     1      48.663   0.828   5.891  0.00  0.00    +0.000 HD
ENDBRANCH   9  10
ENDBRANCH   7   9
ENDBRANCH   2   3
BRANCH   2  16
ATOM     16  C   UNL     1      46.564   6.021  12.265  0.00  0.00    +0.000 C 
BRANCH  16  17
ATOM     17  O   UNL     1      46.913   7.274  12.861  0.00  0.00    +0.000 OA
BRANCH  17  18
ATOM     18  C   UNL     1      48.008   7.918  12.359  0.00  0.00    +0.000 A 
ATOM     19  C   UNL     1      49.230   7.321  12.041  0.00  0.00    +0.000 A 
ATOM     20  C   UNL     1      50.273   8.093  11.521  0.00  0.00    +0.000 A 
ATOM     21  C   UNL     1      50.100   9.461  11.311  0.00  0.00    +0.000 A 
ATOM     22  C   UNL     1      48.888  10.068  11.652  0.00  0.00    +0.000 A 
ATOM     23  C   UNL     1      47.849   9.293  12.175  0.00  0.00    +0.000 A 
BRANCH  21  24
ATOM     24  C   UNL     1      51.234  10.228  10.730  0.00  0.00    +0.000 C 
ATOM     25  N   UNL     1      50.970  11.480  10.255  0.00  0.00    +0.000 N 
ATOM     26  O   UNL     1      52.357   9.747  10.649  0.00  0.00    +0.000 OA
ATOM     27  H   UNL     1      50.029  11.817  10.088  0.00  0.00    +0.000 HD
ATOM     28  H   UNL     1      51.727  11.938   9.759  0.00  0.00    +0.000 HD
ENDBRANCH  21  24
ENDBRANCH  17  18
ENDBRANCH  16  17
ENDBRANCH   2  16
TORSDOF 7
ENDMDL
MODEL 9
REMARK VINA RESULT:    -6.334      4.468      7.329
REMARK INTER + INTRA:         -10.095
REMARK INTER:                  -8.674
REMARK INTRA:                  -1.421
REMARK UNBOUND:                -1.169
REMARK  Name = 
REMARK  8 active torsions:
REMARK  status: ('A' for Active; 'I' for Inactive)
REMARK    1  A    between atoms: C_1  and  C_2
REMARK    2  A    between atoms: C_2  and  C_3
REMARK    3  A    between atoms: C_2  and  C_14
REMARK    4  A    between atoms: C_3  and  O_4
REMARK    5  A    between atoms: O_4  and  C_5
REMARK    6  A    between atoms: C_8  and  C_9
REMARK    7  A    between atoms: C_18  and  O_19
REMARK    8  A    between atoms: O_19  and  C_20
REMARK                            x       y       z     vdW  Elec       q    Type
REMARK                         _______ _______ _______ _____ _____    ______ ____
ROOT
ATOM      1  C   UNL     1      48.477   8.463  14.394  0.00  0.00    +0.000 C 
ATOM      2  C   UNL     1      49.036   8.525  12.967  0.00  0.00    +0.000 C 
ENDROOT
BRANCH   2   3
ATOM      3  C   UNL     1      48.308   9.580  12.153  0.00  0.00    +0.000 A 
ATOM      4  C   UNL     1      49.033  10.383  11.265  0.00  0.00    +0.000 A 
ATOM      5  C   UNL     1      48.411  11.440  10.605  0.00  0.00    +0.000 A 
ATOM      6  C   UNL     1      47.048  11.680  10.787  0.00  0.00    +0.000 A 
ATOM      7  C   UNL     1      46.284  10.829  11.587  0.00  0.00    +0.000 A 
ATOM      8  C   UNL     1      46.925   9.803  12.290  0.00  0.00    +0.000 A 
BRANCH   7   9
ATOM      9  O   UNL     1      44.922  10.891  11.749  0.00  0.00    +0.000 OA
BRANCH   9  10
ATOM     10  C   UNL     1      44.121  10.568  10.602  0.00  0.00    +0.000 C 
ATOM     11  C   UNL     1      42.919  11.500  10.538  0.00  0.00    +0.000 C 
ATOM     12  C   UNL     1      41.792  10.736  11.208  0.00  0.00    +0.000 C 
ATOM     13  N   UNL     1      42.051   9.316  10.979  0.00  0.00    +0.000 NA
ATOM     14  C   UNL     1      43.487   9.173  10.692  0.00  0.00    +0.000 C 
ATOM     15  H   UNL     1      41.510   8.983  10.183  0.00  0.00    +0.000 HD
ENDBRANCH   9  10
ENDBRANCH   7   9
ENDBRANCH   2   3
BRANCH   2  16
ATOM     16  C   UNL     1      49.021   7.152  12.280  0.00  0.00    +0.000 C 
BRANCH  16  17
ATOM     17  O   UNL     1      48.379   6.214  13.150  0.00  0.00    +0.000 OA
BRANCH  17  18
ATOM     18  C   UNL     1      47.097   5.857  12.843  0.00  0.00    +0.000 A 
ATOM     19  C   UNL     1      46.252   5.085  13.642  0.00  0.00    +0.000 A 
ATOM     20  C   UNL     1      44.951   4.798  13.216  0.00  0.00    +0.000 A 
ATOM     21  C   UNL     1      44.487   5.285  11.994  0.00  0.00    +0.000 A 
ATOM     22  C   UNL     1      45.338   6.037  11.178  0.00  0.00    +0.000 A 
ATOM     23  C   UNL     1      46.638   6.318  11.607  0.00  0.00    +0.000 A 
BRANCH  21  24
ATOM     24  C   UNL     1      43.087   4.972  11.603  0.00  0.00    +0.000 C 
ATOM     25  N   UNL     1      42.165   5.974  11.709  0.00  0.00    +0.000 N 
ATOM     26  O   UNL     1      42.761   3.853  11.231  0.00  0.00    +0.000 OA
ATOM     27  H   UNL     1      42.338   6.828  12.227  0.00  0.00    +0.000 HD
ATOM     28  H   UNL     1      41.199   5.709  11.551  0.00  0.00    +0.000 HD
ENDBRANCH  21  24
ENDBRANCH  17  18
ENDBRANCH  16  17
ENDBRANCH   2  16
TORSDOF 7
ENDMDL
