MODEL 1
REMARK VINA RESULT:    -6.237      0.000      0.000
REMARK INTER + INTRA:          -9.595
REMARK INTER:                  -8.425
REMARK INTRA:                  -1.170
REMARK UNBOUND:                -1.170
REMARK  Name = 
REMARK  7 active torsions:
REMARK  status: ('A' for Active; 'I' for Inactive)
REMARK    1  A    between atoms: C_1  and  S_2
REMARK    2  A    between atoms: S_2  and  C_3
REMARK    3  A    between atoms: C_5  and  C_6
REMARK    4  A    between atoms: C_9  and  O_10
REMARK    5  A    between atoms: O_10  and  C_11
REMARK    6  A    between atoms: C_11  and  C_12
REMARK    7  A    between atoms: C_16  and  C_17
REMARK                            x       y       z     vdW  Elec       q    Type
REMARK                         _______ _______ _______ _____ _____    ______ ____
ROOT
ATOM      1  C   UNL     1      48.786   7.611  12.620  0.00  0.00    +0.000 C 
ATOM      2  C   UNL     1      49.725   7.807  11.433  0.00  0.00    +0.000 C 
ATOM      3  C   UNL     1      49.584   8.896  12.435  0.00  0.00    +0.000 C 
ENDROOT
BRANCH   1   4
ATOM      4  C   UNL     1      47.288   7.750  12.457  0.00  0.00    +0.000 A 
ATOM      5  C   UNL     1      46.680   9.007  12.591  0.00  0.00    +0.000 A 
ATOM      6  C   UNL     1      45.351   9.202  12.245  0.00  0.00    +0.000 A 
ATOM      7  C   UNL     1      44.604   8.137  11.752  0.00  0.00    +0.000 A 
ATOM      8  C   UNL     1      45.142   6.844  11.666  0.00  0.00    +0.000 A 
ATOM      9  C   UNL     1      46.480   6.671  12.059  0.00  0.00    +0.000 A 
BRANCH   8  10
ATOM     10  C   UNL     1      44.405   5.663  11.040  0.00  0.00    +0.000 C 
ATOM     11  C   UNL     1      42.965   5.447  11.532  0.00  0.00    +0.000 C 
ATOM     12  C   UNL     1      42.916   4.782  12.908  0.00  0.00    +0.000 C 
ATOM     13  N   UNL     1      43.649   3.516  12.935  0.00  0.00    +0.000 NA
ATOM     14  C   UNL     1      45.044   3.695  12.524  0.00  0.00    +0.000 C 
ATOM     15  C   UNL     1      45.161   4.324  11.137  0.00  0.00    +0.000 C 
ATOM     16  H   UNL     1      43.199   2.855  12.306  0.00  0.00    +0.000 HD
ENDBRANCH   8  10
ENDBRANCH   1   4
BRANCH   1  17
ATOM     17  O   UNL     1      49.239   6.532  13.468  0.00  0.00    +0.000 OA
BRANCH  17  22
ATOM     18  C   UNL     1      48.860   7.350  16.923  0.00  0.00    +0.000 A 
ATOM     19  C   UNL     1      48.251   6.216  17.426  0.00  0.00    +0.000 A 
ATOM     20  C   UNL     1      47.851   5.222  16.522  0.00  0.00    +0.000 A 
ATOM     21  C   UNL     1      48.115   5.378  15.169  0.00  0.00    +0.000 A 
ATOM     22  C   UNL     1      48.795   6.510  14.777  0.00  0.00    +0.000 A 
ATOM     23  N   UNL     1      49.132   7.507  15.617  0.00  0.00    +0.000 NA
BRANCH  18  25
ATOM     24  C   UNL     1      48.023   9.802  17.852  0.00  0.00    +0.000 C 
ATOM     25  S   UNL     1      49.405   8.640  18.024  0.00  0.00    +0.000 S 
ENDBRANCH  18  25
BRANCH  20  26
ATOM     26  C   UNL     1      47.201   4.033  16.992  0.00  0.00    +0.000 C 
ATOM     27  N   UNL     1      46.674   3.076  17.367  0.00  0.00    +0.000 NA
ENDBRANCH  20  26
ENDBRANCH  17  22
ENDBRANCH   1  17
TORSDOF 6
ENDMDL
MODEL 2
REMARK VINA RESULT:    -5.807      1.265      2.675
REMARK INTER + INTRA:          -9.014
REMARK INTER:                  -8.287
REMARK INTRA:                  -0.726
REMARK UNBOUND:                -1.170
REMARK  Name = 
REMARK  7 active torsions:
REMARK  status: ('A' for Active; 'I' for Inactive)
REMARK    1  A    between atoms: C_1  and  S_2
REMARK    2  A    between atoms: S_2  and  C_3
REMARK    3  A    between atoms: C_5  and  C_6
REMARK    4  A    between atoms: C_9  and  O_10
REMARK    5  A    between atoms: O_10  and  C_11
REMARK    6  A    between atoms: C_11  and  C_12
REMARK    7  A    between atoms: C_16  and  C_17
REMARK                            x       y       z     vdW  Elec       q    Type
REMARK                         _______ _______ _______ _____ _____    ______ ____
ROOT
ATOM      1  C   UNL     1      48.806   7.584  12.598  0.00  0.00    +0.000 C 
ATOM      2  C   UNL     1      49.741   7.674  11.395  0.00  0.00    +0.000 C 
ATOM      3  C   UNL     1      49.616   8.842  12.305  0.00  0.00    +0.000 C 
ENDROOT
BRANCH   1   4
ATOM      4  C   UNL     1      47.309   7.725  12.432  0.00  0.00    +0.000 A 
ATOM      5  C   UNL     1      46.704   8.985  12.553  0.00  0.00    +0.000 A 
ATOM      6  C   UNL     1      45.376   9.180  12.203  0.00  0.00    +0.000 A 
ATOM      7  C   UNL     1      44.627   8.111  11.720  0.00  0.00    +0.000 A 
ATOM      8  C   UNL     1      45.162   6.816  11.646  0.00  0.00    +0.000 A 
ATOM      9  C   UNL     1      46.499   6.644  12.043  0.00  0.00    +0.000 A 
BRANCH   8  10
ATOM     10  C   UNL     1      44.423   5.631  11.031  0.00  0.00    +0.000 C 
ATOM     11  C   UNL     1      42.989   5.411  11.537  0.00  0.00    +0.000 C 
ATOM     12  C   UNL     1      42.956   4.749  12.916  0.00  0.00    +0.000 C 
ATOM     13  N   UNL     1      43.694   3.486  12.938  0.00  0.00    +0.000 NA
ATOM     14  C   UNL     1      45.084   3.669  12.513  0.00  0.00    +0.000 C 
ATOM     15  C   UNL     1      45.185   4.296  11.124  0.00  0.00    +0.000 C 
ATOM     16  H   UNL     1      43.241   2.822  12.315  0.00  0.00    +0.000 HD
ENDBRANCH   8  10
ENDBRANCH   1   4
BRANCH   1  17
ATOM     17  O   UNL     1      49.253   6.573  13.529  0.00  0.00    +0.000 OA
BRANCH  17  22
ATOM     18  C   UNL     1      48.540   6.173  17.004  0.00  0.00    +0.000 A 
ATOM     19  C   UNL     1      48.504   7.483  17.447  0.00  0.00    +0.000 A 
ATOM     20  C   UNL     1      48.867   8.496  16.549  0.00  0.00    +0.000 A 
ATOM     21  C   UNL     1      49.203   8.169  15.243  0.00  0.00    +0.000 A 
ATOM     22  C   UNL     1      49.134   6.841  14.879  0.00  0.00    +0.000 A 
ATOM     23  N   UNL     1      48.851   5.845  15.740  0.00  0.00    +0.000 NA
BRANCH  18  25
ATOM     24  C   UNL     1      47.368   3.685  16.891  0.00  0.00    +0.000 C 
ATOM     25  S   UNL     1      48.073   4.844  18.095  0.00  0.00    +0.000 S 
ENDBRANCH  18  25
BRANCH  20  26
ATOM     26  C   UNL     1      48.861   9.869  16.963  0.00  0.00    +0.000 C 
ATOM     27  N   UNL     1      48.860  10.975  17.295  0.00  0.00    +0.000 NA
ENDBRANCH  20  26
ENDBRANCH  17  22
ENDBRANCH   1  17
TORSDOF 6
ENDMDL
MODEL 3
REMARK VINA RESULT:    -5.692      1.452      1.751
REMARK INTER + INTRA:          -8.858
REMARK INTER:                  -8.201
REMARK INTRA:                  -0.657
REMARK UNBOUND:                -1.170
REMARK  Name = 
REMARK  7 active torsions:
REMARK  status: ('A' for Active; 'I' for Inactive)
REMARK    1  A    between atoms: C_1  and  S_2
REMARK    2  A    between atoms: S_2  and  C_3
REMARK    3  A    between atoms: C_5  and  C_6
REMARK    4  A    between atoms: C_9  and  O_10
REMARK    5  A    between atoms: O_10  and  C_11
REMARK    6  A    between atoms: C_11  and  C_12
REMARK    7  A    between atoms: C_16  and  C_17
REMARK                            x       y       z     vdW  Elec       q    Type
REMARK                         _______ _______ _______ _____ _____    ______ ____
ROOT
ATOM      1  C   UNL     1      48.406   8.023  14.049  0.00  0.00    +0.000 C 
ATOM      2  C   UNL     1      49.277   9.218  13.671  0.00  0.00    +0.000 C 
ATOM      3  C   UNL     1      48.393   9.312  14.863  0.00  0.00    +0.000 C 
ENDROOT
BRANCH   1   4
ATOM      4  C   UNL     1      47.130   7.720  13.295  0.00  0.00    +0.000 A 
ATOM      5  C   UNL     1      46.273   8.763  12.917  0.00  0.00    +0.000 A 
ATOM      6  C   UNL     1      45.212   8.543  12.051  0.00  0.00    +0.000 A 
ATOM      7  C   UNL     1      44.992   7.266  11.543  0.00  0.00    +0.000 A 
ATOM      8  C   UNL     1      45.776   6.174  11.944  0.00  0.00    +0.000 A 
ATOM      9  C   UNL     1      46.820   6.423  12.850  0.00  0.00    +0.000 A 
BRANCH   8  10
ATOM     10  C   UNL     1      45.646   4.777  11.343  0.00  0.00    +0.000 C 
ATOM     11  C   UNL     1      44.680   4.655  10.154  0.00  0.00    +0.000 C 
ATOM     12  C   UNL     1      43.216   4.629  10.597  0.00  0.00    +0.000 C 
ATOM     13  N   UNL     1      42.952   3.566  11.567  0.00  0.00    +0.000 NA
ATOM     14  C   UNL     1      43.820   3.684  12.742  0.00  0.00    +0.000 C 
ATOM     15  C   UNL     1      45.301   3.679  12.368  0.00  0.00    +0.000 C 
ATOM     16  H   UNL     1      43.111   2.663  11.126  0.00  0.00    +0.000 HD
ENDBRANCH   8  10
ENDBRANCH   1   4
BRANCH   1  17
ATOM     17  O   UNL     1      49.219   6.884  14.415  0.00  0.00    +0.000 OA
BRANCH  17  22
ATOM     18  C   UNL     1      49.970   6.216  17.841  0.00  0.00    +0.000 A 
ATOM     19  C   UNL     1      49.143   5.142  18.116  0.00  0.00    +0.000 A 
ATOM     20  C   UNL     1      48.224   4.744  17.135  0.00  0.00    +0.000 A 
ATOM     21  C   UNL     1      48.199   5.398  15.912  0.00  0.00    +0.000 A 
ATOM     22  C   UNL     1      49.116   6.407  15.708  0.00  0.00    +0.000 A 
ATOM     23  N   UNL     1      49.963   6.848  16.657  0.00  0.00    +0.000 NA
BRANCH  18  25
ATOM     24  C   UNL     1      50.102   6.904  20.502  0.00  0.00    +0.000 C 
ATOM     25  S   UNL     1      51.168   6.757  19.042  0.00  0.00    +0.000 S 
ENDBRANCH  18  25
BRANCH  20  26
ATOM     26  C   UNL     1      47.335   3.646  17.378  0.00  0.00    +0.000 C 
ATOM     27  N   UNL     1      46.617   2.761  17.569  0.00  0.00    +0.000 NA
ENDBRANCH  20  26
ENDBRANCH  17  22
ENDBRANCH   1  17
TORSDOF 6
ENDMDL
MODEL 4
REMARK VINA RESULT:    -5.460      3.283      7.746
REMARK INTER + INTRA:          -8.545
REMARK INTER:                  -7.568
REMARK INTRA:                  -0.977
REMARK UNBOUND:                -1.170
REMARK  Name = 
REMARK  7 active torsions:
REMARK  status: ('A' for Active; 'I' for Inactive)
REMARK    1  A    between atoms: C_1  and  S_2
REMARK    2  A    between atoms: S_2  and  C_3
REMARK    3  A    between atoms: C_5  and  C_6
REMARK    4  A    between atoms: C_9  and  O_10
REMARK    5  A    between atoms: O_10  and  C_11
REMARK    6  A    between atoms: C_11  and  C_12
REMARK    7  A    between atoms: C_16  and  C_17
REMARK                            x       y       z     vdW  Elec       q    Type
REMARK                         _______ _______ _______ _____ _____    ______ ____
ROOT
ATOM      1  C   UNL     1      48.021   3.680  16.719  0.00  0.00    +0.000 C 
ATOM      2  C   UNL     1      47.012   2.864  17.523  0.00  0.00    +0.000 C 
ATOM      3  C   UNL     1      46.947   4.349  17.570  0.00  0.00    +0.000 C 
ENDROOT
BRANCH   1   4
ATOM      4  C   UNL     1      49.441   3.861  17.209  0.00  0.00    +0.000 A 
ATOM      5  C   UNL     1      50.264   2.743  17.407  0.00  0.00    +0.000 A 
ATOM      6  C   UNL     1      51.622   2.885  17.652  0.00  0.00    +0.000 A 
ATOM      7  C   UNL     1      52.183   4.158  17.699  0.00  0.00    +0.000 A 
ATOM      8  C   UNL     1      51.393   5.311  17.578  0.00  0.00    +0.000 A 
ATOM      9  C   UNL     1      50.016   5.134  17.368  0.00  0.00    +0.000 A 
BRANCH   8  10
ATOM     10  C   UNL     1      51.967   6.724  17.520  0.00  0.00    +0.000 C 
ATOM     11  C   UNL     1      51.170   7.727  16.669  0.00  0.00    +0.000 C 
ATOM     12  C   UNL     1      51.414   7.537  15.171  0.00  0.00    +0.000 C 
ATOM     13  N   UNL     1      52.835   7.610  14.830  0.00  0.00    +0.000 NA
ATOM     14  C   UNL     1      53.619   6.628  15.584  0.00  0.00    +0.000 C 
ATOM     15  C   UNL     1      53.446   6.788  17.093  0.00  0.00    +0.000 C 
ATOM     16  H   UNL     1      53.182   8.543  15.039  0.00  0.00    +0.000 HD
ENDBRANCH   8  10
ENDBRANCH   1   4
BRANCH   1  17
ATOM     17  O   UNL     1      47.858   3.455  15.300  0.00  0.00    +0.000 OA
BRANCH  17  22
ATOM     18  C   UNL     1      45.319   4.882  13.235  0.00  0.00    +0.000 A 
ATOM     19  C   UNL     1      45.902   6.071  12.837  0.00  0.00    +0.000 A 
ATOM     20  C   UNL     1      47.131   6.430  13.407  0.00  0.00    +0.000 A 
ATOM     21  C   UNL     1      47.747   5.574  14.308  0.00  0.00    +0.000 A 
ATOM     22  C   UNL     1      47.121   4.377  14.582  0.00  0.00    +0.000 A 
ATOM     23  N   UNL     1      45.911   4.040  14.097  0.00  0.00    +0.000 NA
BRANCH  18  25
ATOM     24  C   UNL     1      43.357   5.841  11.561  0.00  0.00    +0.000 C 
ATOM     25  S   UNL     1      43.766   4.365  12.533  0.00  0.00    +0.000 S 
ENDBRANCH  18  25
BRANCH  20  26
ATOM     26  C   UNL     1      47.769   7.661  13.039  0.00  0.00    +0.000 C 
ATOM     27  N   UNL     1      48.280   8.653  12.739  0.00  0.00    +0.000 NA
ENDBRANCH  20  26
ENDBRANCH  17  22
ENDBRANCH   1  17
TORSDOF 6
ENDMDL
MODEL 5
REMARK VINA RESULT:    -5.431      2.996      7.580
REMARK INTER + INTRA:          -8.506
REMARK INTER:                  -7.582
REMARK INTRA:                  -0.924
REMARK UNBOUND:                -1.170
REMARK  Name = 
REMARK  7 active torsions:
REMARK  status: ('A' for Active; 'I' for Inactive)
REMARK    1  A    between atoms: C_1  and  S_2
REMARK    2  A    between atoms: S_2  and  C_3
REMARK    3  A    between atoms: C_5  and  C_6
REMARK    4  A    between atoms: C_9  and  O_10
REMARK    5  A    between atoms: O_10  and  C_11
REMARK    6  A    between atoms: C_11  and  C_12
REMARK    7  A    between atoms: C_16  and  C_17
REMARK                            x       y       z     vdW  Elec       q    Type
REMARK                         _______ _______ _______ _____ _____    ______ ____
ROOT
ATOM      1  C   UNL     1      48.017   4.160  16.502  0.00  0.00    +0.000 C 
ATOM      2  C   UNL     1      48.283   2.783  17.105  0.00  0.00    +0.000 C 
ATOM      3  C   UNL     1      46.975   3.445  17.354  0.00  0.00    +0.000 C 
ENDROOT
BRANCH   1   4
ATOM      4  C   UNL     1      48.612   5.407  17.119  0.00  0.00    +0.000 A 
ATOM      5  C   UNL     1      49.785   5.962  16.588  0.00  0.00    +0.000 A 
ATOM      6  C   UNL     1      50.237   7.210  16.993  0.00  0.00    +0.000 A 
ATOM      7  C   UNL     1      49.514   7.929  17.941  0.00  0.00    +0.000 A 
ATOM      8  C   UNL     1      48.375   7.389  18.556  0.00  0.00    +0.000 A 
ATOM      9  C   UNL     1      47.964   6.108  18.150  0.00  0.00    +0.000 A 
BRANCH   8  10
ATOM     10  C   UNL     1      47.488   8.169  19.523  0.00  0.00    +0.000 C 
ATOM     11  C   UNL     1      47.750   9.683  19.585  0.00  0.00    +0.000 C 
ATOM     12  C   UNL     1      48.993  10.023  20.409  0.00  0.00    +0.000 C 
ATOM     13  N   UNL     1      48.926   9.470  21.763  0.00  0.00    +0.000 NA
ATOM     14  C   UNL     1      48.732   8.018  21.741  0.00  0.00    +0.000 C 
ATOM     15  C   UNL     1      47.482   7.615  20.960  0.00  0.00    +0.000 C 
ATOM     16  H   UNL     1      48.152   9.901  22.262  0.00  0.00    +0.000 HD
ENDBRANCH   8  10
ENDBRANCH   1   4
BRANCH   1  17
ATOM     17  O   UNL     1      48.011   4.102  15.058  0.00  0.00    +0.000 OA
BRANCH  17  22
ATOM     18  C   UNL     1      45.023   4.933  13.288  0.00  0.00    +0.000 A 
ATOM     19  C   UNL     1      45.352   6.149  12.717  0.00  0.00    +0.000 A 
ATOM     20  C   UNL     1      46.574   6.737  13.068  0.00  0.00    +0.000 A 
ATOM     21  C   UNL     1      47.433   6.074  13.932  0.00  0.00    +0.000 A 
ATOM     22  C   UNL     1      47.047   4.831  14.387  0.00  0.00    +0.000 A 
ATOM     23  N   UNL     1      45.851   4.275  14.115  0.00  0.00    +0.000 NA
BRANCH  18  25
ATOM     24  C   UNL     1      42.700   5.448  11.905  0.00  0.00    +0.000 C 
ATOM     25  S   UNL     1      43.491   4.128  12.867  0.00  0.00    +0.000 S 
ENDBRANCH  18  25
BRANCH  20  26
ATOM     26  C   UNL     1      46.954   8.005  12.515  0.00  0.00    +0.000 C 
ATOM     27  N   UNL     1      47.262   9.024  12.067  0.00  0.00    +0.000 NA
ENDBRANCH  20  26
ENDBRANCH  17  22
ENDBRANCH   1  17
TORSDOF 6
ENDMDL
MODEL 6
REMARK VINA RESULT:    -5.337      2.696      7.183
REMARK INTER + INTRA:          -8.378
REMARK INTER:                  -7.399
REMARK INTRA:                  -0.979
REMARK UNBOUND:                -1.170
REMARK  Name = 
REMARK  7 active torsions:
REMARK  status: ('A' for Active; 'I' for Inactive)
REMARK    1  A    between atoms: C_1  and  S_2
REMARK    2  A    between atoms: S_2  and  C_3
REMARK    3  A    between atoms: C_5  and  C_6
REMARK    4  A    between atoms: C_9  and  O_10
REMARK    5  A    between atoms: O_10  and  C_11
REMARK    6  A    between atoms: C_11  and  C_12
REMARK    7  A    between atoms: C_16  and  C_17
REMARK                            x       y       z     vdW  Elec       q    Type
REMARK                         _______ _______ _______ _____ _____    ______ ____
ROOT
ATOM      1  C   UNL     1      47.893   4.035  16.367  0.00  0.00    +0.000 C 
ATOM      2  C   UNL     1      48.450   2.731  16.931  0.00  0.00    +0.000 C 
ATOM      3  C   UNL     1      47.047   3.116  17.241  0.00  0.00    +0.000 C 
ENDROOT
BRANCH   1   4
ATOM      4  C   UNL     1      48.253   5.368  16.986  0.00  0.00    +0.000 A 
ATOM      5  C   UNL     1      47.585   5.810  18.137  0.00  0.00    +0.000 A 
ATOM      6  C   UNL     1      48.030   6.918  18.844  0.00  0.00    +0.000 A 
ATOM      7  C   UNL     1      49.161   7.603  18.409  0.00  0.00    +0.000 A 
ATOM      8  C   UNL     1      49.823   7.245  17.226  0.00  0.00    +0.000 A 
ATOM      9  C   UNL     1      49.326   6.142  16.513  0.00  0.00    +0.000 A 
BRANCH   8  10
ATOM     10  C   UNL     1      51.123   7.894  16.757  0.00  0.00    +0.000 C 
ATOM     11  C   UNL     1      51.283   9.383  17.107  0.00  0.00    +0.000 C 
ATOM     12  C   UNL     1      50.467  10.287  16.181  0.00  0.00    +0.000 C 
ATOM     13  N   UNL     1      50.790  10.066  14.771  0.00  0.00    +0.000 NA
ATOM     14  C   UNL     1      50.595   8.665  14.388  0.00  0.00    +0.000 C 
ATOM     15  C   UNL     1      51.414   7.711  15.256  0.00  0.00    +0.000 C 
ATOM     16  H   UNL     1      51.760  10.324  14.605  0.00  0.00    +0.000 HD
ENDBRANCH   8  10
ENDBRANCH   1   4
BRANCH   1  17
ATOM     17  O   UNL     1      47.841   3.995  14.922  0.00  0.00    +0.000 OA
BRANCH  17  22
ATOM     18  C   UNL     1      44.934   5.245  13.269  0.00  0.00    +0.000 A 
ATOM     19  C   UNL     1      45.412   6.397  12.671  0.00  0.00    +0.000 A 
ATOM     20  C   UNL     1      46.721   6.802  12.965  0.00  0.00    +0.000 A 
ATOM     21  C   UNL     1      47.510   6.024  13.799  0.00  0.00    +0.000 A 
ATOM     22  C   UNL     1      46.967   4.854  14.284  0.00  0.00    +0.000 A 
ATOM     23  N   UNL     1      45.692   4.478  14.068  0.00  0.00    +0.000 NA
BRANCH  18  25
ATOM     24  C   UNL     1      43.661   3.039  12.225  0.00  0.00    +0.000 C 
ATOM     25  S   UNL     1      43.284   4.671  12.922  0.00  0.00    +0.000 S 
ENDBRANCH  18  25
BRANCH  20  26
ATOM     26  C   UNL     1      47.257   7.998  12.382  0.00  0.00    +0.000 C 
ATOM     27  N   UNL     1      47.686   8.961  11.911  0.00  0.00    +0.000 NA
ENDBRANCH  20  26
ENDBRANCH  17  22
ENDBRANCH   1  17
TORSDOF 6
ENDMDL
MODEL 7
REMARK VINA RESULT:    -5.311      2.550      4.655
REMARK INTER + INTRA:          -8.344
REMARK INTER:                  -7.919
REMARK INTRA:                  -0.425
REMARK UNBOUND:                -1.170
REMARK  Name = 
REMARK  7 active torsions:
REMARK  status: ('A' for Active; 'I' for Inactive)
REMARK    1  A    between atoms: C_1  and  S_2
REMARK    2  A    between atoms: S_2  and  C_3
REMARK    3  A    between atoms: C_5  and  C_6
REMARK    4  A    between atoms: C_9  and  O_10
REMARK    5  A    between atoms: O_10  and  C_11
REMARK    6  A    between atoms: C_11  and  C_12
REMARK    7  A    between atoms: C_16  and  C_17
REMARK                            x       y       z     vdW  Elec       q    Type
REMARK                         _______ _______ _______ _____ _____    ______ ____
ROOT
ATOM      1  C   UNL     1      46.432   7.400  11.975  0.00  0.00    +0.000 C 
ATOM      2  C   UNL     1      45.428   8.511  11.680  0.00  0.00    +0.000 C 
ATOM      3  C   UNL     1      45.790   8.216  13.091  0.00  0.00    +0.000 C 
ENDROOT
BRANCH   1   4
ATOM      4  C   UNL     1      46.021   5.945  11.918  0.00  0.00    +0.000 A 
ATOM      5  C   UNL     1      45.931   5.193  13.099  0.00  0.00    +0.000 A 
ATOM      6  C   UNL     1      45.361   3.928  13.103  0.00  0.00    +0.000 A 
ATOM      7  C   UNL     1      44.864   3.393  11.918  0.00  0.00    +0.000 A 
ATOM      8  C   UNL     1      44.993   4.073  10.697  0.00  0.00    +0.000 A 
ATOM      9  C   UNL     1      45.609   5.335  10.720  0.00  0.00    +0.000 A 
BRANCH   8  10
ATOM     10  C   UNL     1      44.379   3.582   9.389  0.00  0.00    +0.000 C 
ATOM     11  C   UNL     1      44.479   2.068   9.139  0.00  0.00    +0.000 C 
ATOM     12  C   UNL     1      45.874   1.649   8.672  0.00  0.00    +0.000 C 
ATOM     13  N   UNL     1      46.300   2.382   7.479  0.00  0.00    +0.000 NA
ATOM     14  C   UNL     1      46.270   3.831   7.701  0.00  0.00    +0.000 C 
ATOM     15  C   UNL     1      44.889   4.319   8.137  0.00  0.00    +0.000 C 
ATOM     16  H   UNL     1      45.681   2.152   6.706  0.00  0.00    +0.000 HD
ENDBRANCH   8  10
ENDBRANCH   1   4
BRANCH   1  17
ATOM     17  O   UNL     1      47.734   7.718  11.433  0.00  0.00    +0.000 OA
BRANCH  17  22
ATOM     18  C   UNL     1      49.681   7.367  14.405  0.00  0.00    +0.000 A 
ATOM     19  C   UNL     1      50.861   7.999  14.056  0.00  0.00    +0.000 A 
ATOM     20  C   UNL     1      51.017   8.427  12.731  0.00  0.00    +0.000 A 
ATOM     21  C   UNL     1      49.981   8.249  11.825  0.00  0.00    +0.000 A 
ATOM     22  C   UNL     1      48.817   7.677  12.290  0.00  0.00    +0.000 A 
ATOM     23  N   UNL     1      48.667   7.200  13.541  0.00  0.00    +0.000 NA
BRANCH  18  25
ATOM     24  C   UNL     1      48.776   8.346  16.812  0.00  0.00    +0.000 C 
ATOM     25  S   UNL     1      49.418   6.816  16.079  0.00  0.00    +0.000 S 
ENDBRANCH  18  25
BRANCH  20  26
ATOM     26  C   UNL     1      52.227   9.074  12.316  0.00  0.00    +0.000 C 
ATOM     27  N   UNL     1      53.201   9.596  11.977  0.00  0.00    +0.000 NA
ENDBRANCH  20  26
ENDBRANCH  17  22
ENDBRANCH   1  17
TORSDOF 6
ENDMDL
MODEL 8
REMARK VINA RESULT:    -5.216      2.650      4.252
REMARK INTER + INTRA:          -8.215
REMARK INTER:                  -7.915
REMARK INTRA:                  -0.300
REMARK UNBOUND:                -1.170
REMARK  Name = 
REMARK  7 active torsions:
REMARK  status: ('A' for Active; 'I' for Inactive)
REMARK    1  A    between atoms: C_1  and  S_2
REMARK    2  A    between atoms: S_2  and  C_3
REMARK    3  A    between atoms: C_5  and  C_6
REMARK    4  A    between atoms: C_9  and  O_10
REMARK    5  A    between atoms: O_10  and  C_11
REMARK    6  A    between atoms: C_11  and  C_12
REMARK    7  A    between atoms: C_16  and  C_17
REMARK                            x       y       z     vdW  Elec       q    Type
REMARK                         _______ _______ _______ _____ _____    ______ ____
ROOT
ATOM      1  C   UNL     1      46.282   7.388  11.953  0.00  0.00    +0.000 C 
ATOM      2  C   UNL     1      45.306   8.480  11.523  0.00  0.00    +0.000 C 
ATOM      3  C   UNL     1      45.494   8.204  12.972  0.00  0.00    +0.000 C 
ENDROOT
BRANCH   1   4
ATOM      4  C   UNL     1      45.902   5.926  11.861  0.00  0.00    +0.000 A 
ATOM      5  C   UNL     1      45.769   5.161  13.029  0.00  0.00    +0.000 A 
ATOM      6  C   UNL     1      45.224   3.886  12.993  0.00  0.00    +0.000 A 
ATOM      7  C   UNL     1      44.798   3.353  11.780  0.00  0.00    +0.000 A 
ATOM      8  C   UNL     1      44.975   4.047  10.574  0.00  0.00    +0.000 A 
ATOM      9  C   UNL     1      45.563   5.321  10.639  0.00  0.00    +0.000 A 
BRANCH   8  10
ATOM     10  C   UNL     1      44.437   3.558   9.232  0.00  0.00    +0.000 C 
ATOM     11  C   UNL     1      44.493   2.038   9.011  0.00  0.00    +0.000 C 
ATOM     12  C   UNL     1      45.900   1.556   8.653  0.00  0.00    +0.000 C 
ATOM     13  N   UNL     1      46.440   2.251   7.484  0.00  0.00    +0.000 NA
ATOM     14  C   UNL     1      46.452   3.703   7.682  0.00  0.00    +0.000 C 
ATOM     15  C   UNL     1      45.065   4.253   8.009  0.00  0.00    +0.000 C 
ATOM     16  H   UNL     1      45.869   2.031   6.671  0.00  0.00    +0.000 HD
ENDBRANCH   8  10
ENDBRANCH   1   4
BRANCH   1  17
ATOM     17  O   UNL     1      47.636   7.722  11.572  0.00  0.00    +0.000 OA
BRANCH  17  22
ATOM     18  C   UNL     1      50.629   8.664  13.275  0.00  0.00    +0.000 A 
ATOM     19  C   UNL     1      50.528   7.951  14.456  0.00  0.00    +0.000 A 
ATOM     20  C   UNL     1      49.342   7.248  14.707  0.00  0.00    +0.000 A 
ATOM     21  C   UNL     1      48.331   7.246  13.758  0.00  0.00    +0.000 A 
ATOM     22  C   UNL     1      48.558   7.926  12.580  0.00  0.00    +0.000 A 
ATOM     23  N   UNL     1      49.662   8.661  12.344  0.00  0.00    +0.000 NA
BRANCH  18  25
ATOM     24  C   UNL     1      52.979   8.327  11.883  0.00  0.00    +0.000 C 
ATOM     25  S   UNL     1      52.118   9.564  12.894  0.00  0.00    +0.000 S 
ENDBRANCH  18  25
BRANCH  20  26
ATOM     26  C   UNL     1      49.183   6.505  15.923  0.00  0.00    +0.000 C 
ATOM     27  N   UNL     1      49.058   5.904  16.902  0.00  0.00    +0.000 NA
ENDBRANCH  20  26
ENDBRANCH  17  22
ENDBRANCH   1  17
TORSDOF 6
ENDMDL
MODEL 9
REMARK VINA RESULT:    -5.185      1.818      2.818
REMARK INTER + INTRA:          -8.173
REMARK INTER:                  -7.232
REMARK INTRA:                  -0.941
REMARK UNBOUND:                -1.170
REMARK  Name = 
REMARK  7 active torsions:
REMARK  status: ('A' for Active; 'I' for Inactive)
REMARK    1  A    between atoms: C_1  and  S_2
REMARK    2  A    between atoms: S_2  and  C_3
REMARK    3  A    between atoms: C_5  and  C_6
REMARK    4  A    between atoms: C_9  and  O_10
REMARK    5  A    between atoms: O_10  and  C_11
REMARK    6  A    between atoms: C_11  and  C_12
REMARK    7  A    between atoms: C_16  and  C_17
REMARK                            x       y       z     vdW  Elec       q    Type
REMARK                         _______ _______ _______ _____ _____    ______ ____
ROOT
ATOM      1  C   UNL     1      48.945   7.753  12.623  0.00  0.00    +0.000 C 
ATOM      2  C   UNL     1      49.881   7.655  11.421  0.00  0.00    +0.000 C 
ATOM      3  C   UNL     1      49.754   8.951  12.138  0.00  0.00    +0.000 C 
ENDROOT
BRANCH   1   4
ATOM      4  C   UNL     1      47.447   7.865  12.435  0.00  0.00    +0.000 A 
ATOM      5  C   UNL     1      46.822   9.118  12.507  0.00  0.00    +0.000 A 
ATOM      6  C   UNL     1      45.495   9.280  12.136  0.00  0.00    +0.000 A 
ATOM      7  C   UNL     1      44.769   8.184  11.681  0.00  0.00    +0.000 A 
ATOM      8  C   UNL     1      45.325   6.896  11.658  0.00  0.00    +0.000 A 
ATOM      9  C   UNL     1      46.659   6.758  12.075  0.00  0.00    +0.000 A 
BRANCH   8  10
ATOM     10  C   UNL     1      44.611   5.679  11.075  0.00  0.00    +0.000 C 
ATOM     11  C   UNL     1      43.118   5.559  11.422  0.00  0.00    +0.000 C 
ATOM     12  C   UNL     1      42.893   5.043  12.845  0.00  0.00    +0.000 C 
ATOM     13  N   UNL     1      43.566   3.765  13.080  0.00  0.00    +0.000 NA
ATOM     14  C   UNL     1      45.004   3.858  12.812  0.00  0.00    +0.000 C 
ATOM     15  C   UNL     1      45.296   4.336  11.390  0.00  0.00    +0.000 C 
ATOM     16  H   UNL     1      43.161   3.056  12.474  0.00  0.00    +0.000 HD
ENDBRANCH   8  10
ENDBRANCH   1   4
BRANCH   1  17
ATOM     17  O   UNL     1      49.392   6.900  13.701  0.00  0.00    +0.000 OA
BRANCH  17  22
ATOM     18  C   UNL     1      49.204   8.757  16.744  0.00  0.00    +0.000 A 
ATOM     19  C   UNL     1      50.535   9.030  17.002  0.00  0.00    +0.000 A 
ATOM     20  C   UNL     1      51.503   8.443  16.177  0.00  0.00    +0.000 A 
ATOM     21  C   UNL     1      51.107   7.651  15.109  0.00  0.00    +0.000 A 
ATOM     22  C   UNL     1      49.755   7.502  14.891  0.00  0.00    +0.000 A 
ATOM     23  N   UNL     1      48.808   8.002  15.707  0.00  0.00    +0.000 NA
BRANCH  18  25
ATOM     24  C   UNL     1      47.594   8.110  18.882  0.00  0.00    +0.000 C 
ATOM     25  S   UNL     1      47.927   9.488  17.749  0.00  0.00    +0.000 S 
ENDBRANCH  18  25
BRANCH  20  26
ATOM     26  C   UNL     1      52.897   8.682  16.412  0.00  0.00    +0.000 C 
ATOM     27  N   UNL     1      54.021   8.879  16.599  0.00  0.00    +0.000 NA
ENDBRANCH  20  26
ENDBRANCH  17  22
ENDBRANCH   1  17
TORSDOF 6
ENDMDL
