MODEL 1
REMARK VINA RESULT:    -7.887      0.000      0.000
REMARK INTER + INTRA:         -11.476
REMARK INTER:                 -10.654
REMARK INTRA:                  -0.822
REMARK UNBOUND:                -0.822
REMARK  Name = 
REMARK  6 active torsions:
REMARK  status: ('A' for Active; 'I' for Inactive)
REMARK    1  A    between atoms: C_2  and  C_19
REMARK    2  A    between atoms: N_3  and  C_4
REMARK    3  A    between atoms: C_4  and  C_5
REMARK    4  A    between atoms: C_8  and  C_9
REMARK    5  A    between atoms: C_9  and  O_10
REMARK    6  A    between atoms: O_10  and  C_11
REMARK                            x       y       z     vdW  Elec       q    Type
REMARK                         _______ _______ _______ _____ _____    ______ ____
ROOT
ATOM      1  O   UNL     1      47.225   3.198  14.155  0.00  0.00    +0.000 OA
ATOM      2  C   UNL     1      46.977   4.370  14.410  0.00  0.00    +0.000 C 
ATOM      3  N   UNL     1      45.824   5.017  14.033  0.00  0.00    +0.000 N 
ATOM      4  H   UNL     1      45.603   5.899  14.473  0.00  0.00    +0.000 HD
ENDROOT
BRANCH   2   5
ATOM      5  C   UNL     1      47.767   5.190  15.318  0.00  0.00    +0.000 A 
ATOM      6  C   UNL     1      48.346   6.386  14.931  0.00  0.00    +0.000 A 
ATOM      7  S   UNL     1      49.629   6.833  15.979  0.00  0.00    +0.000 S 
ATOM      8  C   UNL     1      49.316   5.514  17.017  0.00  0.00    +0.000 A 
ATOM      9  N   UNL     1      50.134   5.185  18.052  0.00  0.00    +0.000 NA
ATOM     10  C   UNL     1      49.709   4.195  18.768  0.00  0.00    +0.000 A 
ATOM     11  N   UNL     1      48.521   3.532  18.574  0.00  0.00    +0.000 N 
ATOM     12  C   UNL     1      47.661   3.824  17.541  0.00  0.00    +0.000 A 
ATOM     13  O   UNL     1      46.582   3.267  17.409  0.00  0.00    +0.000 OA
ATOM     14  C   UNL     1      48.168   4.849  16.650  0.00  0.00    +0.000 A 
ATOM     15  H   UNL     1      48.210   2.815  19.209  0.00  0.00    +0.000 HD
ENDBRANCH   2   5
BRANCH   3  16
ATOM     16  C   UNL     1      44.691   4.312  13.473  0.00  0.00    +0.000 C 
BRANCH  16  17
ATOM     17  C   UNL     1      44.740   4.287  11.958  0.00  0.00    +0.000 A 
ATOM     18  N   UNL     1      44.273   3.194  11.326  0.00  0.00    +0.000 NA
ATOM     19  C   UNL     1      44.370   3.183   9.981  0.00  0.00    +0.000 A 
ATOM     20  C   UNL     1      44.930   4.202   9.241  0.00  0.00    +0.000 A 
ATOM     21  C   UNL     1      45.393   5.267   9.984  0.00  0.00    +0.000 A 
ATOM     22  N   UNL     1      45.338   5.324  11.331  0.00  0.00    +0.000 NA
BRANCH  20  23
ATOM     23  C   UNL     1      45.026   4.156   7.750  0.00  0.00    +0.000 C 
BRANCH  23  24
ATOM     24  O   UNL     1      46.389   3.985   7.366  0.00  0.00    +0.000 OA
BRANCH  24  25
ATOM     25  C   UNL     1      46.707   2.788   6.783  0.00  0.00    +0.000 A 
ATOM     26  C   UNL     1      46.920   1.579   7.443  0.00  0.00    +0.000 A 
ATOM     27  C   UNL     1      47.239   0.436   6.708  0.00  0.00    +0.000 A 
ATOM     28  C   UNL     1      47.338   0.540   5.330  0.00  0.00    +0.000 A 
ATOM     29  N   UNL     1      47.141   1.689   4.656  0.00  0.00    +0.000 NA
ATOM     30  C   UNL     1      46.831   2.785   5.397  0.00  0.00    +0.000 A 
ENDBRANCH  24  25
ENDBRANCH  23  24
ENDBRANCH  20  23
ENDBRANCH  16  17
ENDBRANCH   3  16
TORSDOF 6
ENDMDL
MODEL 2
REMARK VINA RESULT:    -7.691      2.104      2.974
REMARK INTER + INTRA:         -11.210
REMARK INTER:                 -10.410
REMARK INTRA:                  -0.800
REMARK UNBOUND:                -0.822
REMARK  Name = 
REMARK  6 active torsions:
REMARK  status: ('A' for Active; 'I' for Inactive)
REMARK    1  A    between atoms: C_2  and  C_19
REMARK    2  A    between atoms: N_3  and  C_4
REMARK    3  A    between atoms: C_4  and  C_5
REMARK    4  A    between atoms: C_8  and  C_9
REMARK    5  A    between atoms: C_9  and  O_10
REMARK    6  A    between atoms: O_10  and  C_11
REMARK                            x       y       z     vdW  Elec       q    Type
REMARK                         _______ _______ _______ _____ _____    ______ ____
ROOT
ATOM      1  O   UNL     1      48.573   8.282  16.085  0.00  0.00    +0.000 OA
ATOM      2  C   UNL     1      48.684   7.074  15.924  0.00  0.00    +0.000 C 
ATOM      3  N   UNL     1      48.178   6.387  14.844  0.00  0.00    +0.000 N 
ATOM      4  H   UNL     1      48.505   5.445  14.679  0.00  0.00    +0.000 HD
ENDROOT
BRANCH   2   5
ATOM      5  C   UNL     1      49.534   6.218  16.740  0.00  0.00    +0.000 A 
ATOM      6  C   UNL     1      50.731   6.655  17.282  0.00  0.00    +0.000 A 
ATOM      7  S   UNL     1      51.751   5.339  17.696  0.00  0.00    +0.000 S 
ATOM      8  C   UNL     1      50.546   4.202  17.287  0.00  0.00    +0.000 A 
ATOM      9  N   UNL     1      50.783   2.863  17.250  0.00  0.00    +0.000 NA
ATOM     10  C   UNL     1      49.739   2.149  16.979  0.00  0.00    +0.000 A 
ATOM     11  N   UNL     1      48.471   2.643  16.786  0.00  0.00    +0.000 N 
ATOM     12  C   UNL     1      48.180   3.986  16.810  0.00  0.00    +0.000 A 
ATOM     13  O   UNL     1      47.042   4.413  16.693  0.00  0.00    +0.000 OA
ATOM     14  C   UNL     1      49.352   4.821  16.992  0.00  0.00    +0.000 A 
ATOM     15  H   UNL     1      47.684   2.029  16.650  0.00  0.00    +0.000 HD
ENDBRANCH   2   5
BRANCH   3  16
ATOM     16  C   UNL     1      47.644   7.061  13.682  0.00  0.00    +0.000 C 
BRANCH  16  17
ATOM     17  C   UNL     1      46.732   6.155  12.879  0.00  0.00    +0.000 A 
ATOM     18  N   UNL     1      46.089   6.679  11.818  0.00  0.00    +0.000 NA
ATOM     19  C   UNL     1      45.253   5.860  11.150  0.00  0.00    +0.000 A 
ATOM     20  C   UNL     1      45.012   4.550  11.504  0.00  0.00    +0.000 A 
ATOM     21  C   UNL     1      45.707   4.115  12.611  0.00  0.00    +0.000 A 
ATOM     22  N   UNL     1      46.543   4.894  13.329  0.00  0.00    +0.000 NA
BRANCH  20  23
ATOM     23  C   UNL     1      44.074   3.669  10.743  0.00  0.00    +0.000 C 
BRANCH  23  24
ATOM     24  O   UNL     1      44.169   3.963   9.351  0.00  0.00    +0.000 OA
BRANCH  24  25
ATOM     25  C   UNL     1      45.131   3.285   8.653  0.00  0.00    +0.000 A 
ATOM     26  C   UNL     1      45.991   3.823   7.696  0.00  0.00    +0.000 A 
ATOM     27  C   UNL     1      46.927   3.001   7.066  0.00  0.00    +0.000 A 
ATOM     28  C   UNL     1      46.970   1.660   7.412  0.00  0.00    +0.000 A 
ATOM     29  N   UNL     1      46.157   1.103   8.329  0.00  0.00    +0.000 NA
ATOM     30  C   UNL     1      45.257   1.927   8.927  0.00  0.00    +0.000 A 
ENDBRANCH  24  25
ENDBRANCH  23  24
ENDBRANCH  20  23
ENDBRANCH  16  17
ENDBRANCH   3  16
TORSDOF 6
ENDMDL
MODEL 3
REMARK VINA RESULT:    -7.672      1.720      2.857
REMARK INTER + INTRA:         -11.185
REMARK INTER:                 -10.274
REMARK INTRA:                  -0.911
REMARK UNBOUND:                -0.822
REMARK  Name = 
REMARK  6 active torsions:
REMARK  status: ('A' for Active; 'I' for Inactive)
REMARK    1  A    between atoms: C_2  and  C_19
REMARK    2  A    between atoms: N_3  and  C_4
REMARK    3  A    between atoms: C_4  and  C_5
REMARK    4  A    between atoms: C_8  and  C_9
REMARK    5  A    between atoms: C_9  and  O_10
REMARK    6  A    between atoms: O_10  and  C_11
REMARK                            x       y       z     vdW  Elec       q    Type
REMARK                         _______ _______ _______ _____ _____    ______ ____
ROOT
ATOM      1  O   UNL     1      47.338   3.287  14.552  0.00  0.00    +0.000 OA
ATOM      2  C   UNL     1      47.234   4.501  14.682  0.00  0.00    +0.000 C 
ATOM      3  N   UNL     1      46.181   5.243  14.200  0.00  0.00    +0.000 N 
ATOM      4  H   UNL     1      46.063   6.186  14.543  0.00  0.00    +0.000 HD
ENDROOT
BRANCH   2   5
ATOM      5  C   UNL     1      48.100   5.306  15.532  0.00  0.00    +0.000 A 
ATOM      6  C   UNL     1      48.285   5.035  16.877  0.00  0.00    +0.000 A 
ATOM      7  S   UNL     1      48.871   6.409  17.721  0.00  0.00    +0.000 S 
ATOM      8  C   UNL     1      49.008   7.309  16.277  0.00  0.00    +0.000 A 
ATOM      9  N   UNL     1      49.307   8.635  16.265  0.00  0.00    +0.000 NA
ATOM     10  C   UNL     1      49.429   9.138  15.079  0.00  0.00    +0.000 A 
ATOM     11  N   UNL     1      49.325   8.431  13.905  0.00  0.00    +0.000 N 
ATOM     12  C   UNL     1      49.021   7.091  13.864  0.00  0.00    +0.000 A 
ATOM     13  O   UNL     1      48.985   6.458  12.820  0.00  0.00    +0.000 OA
ATOM     14  C   UNL     1      48.760   6.524  15.173  0.00  0.00    +0.000 A 
ATOM     15  H   UNL     1      49.502   8.865  13.014  0.00  0.00    +0.000 HD
ENDBRANCH   2   5
BRANCH   3  16
ATOM     16  C   UNL     1      44.982   4.630  13.673  0.00  0.00    +0.000 C 
BRANCH  16  17
ATOM     17  C   UNL     1      45.047   4.479  12.165  0.00  0.00    +0.000 A 
ATOM     18  N   UNL     1      45.412   5.550  11.435  0.00  0.00    +0.000 NA
ATOM     19  C   UNL     1      45.419   5.397  10.096  0.00  0.00    +0.000 A 
ATOM     20  C   UNL     1      45.057   4.234   9.452  0.00  0.00    +0.000 A 
ATOM     21  C   UNL     1      44.684   3.204  10.288  0.00  0.00    +0.000 A 
ATOM     22  N   UNL     1      44.642   3.304  11.633  0.00  0.00    +0.000 NA
BRANCH  20  23
ATOM     23  C   UNL     1      45.071   4.099   7.963  0.00  0.00    +0.000 C 
BRANCH  23  24
ATOM     24  O   UNL     1      46.419   4.016   7.506  0.00  0.00    +0.000 OA
BRANCH  24  25
ATOM     25  C   UNL     1      46.731   2.929   6.734  0.00  0.00    +0.000 A 
ATOM     26  C   UNL     1      46.894   2.918   5.350  0.00  0.00    +0.000 A 
ATOM     27  C   UNL     1      47.214   1.726   4.700  0.00  0.00    +0.000 A 
ATOM     28  C   UNL     1      47.358   0.575   5.459  0.00  0.00    +0.000 A 
ATOM     29  N   UNL     1      47.208   0.545   6.797  0.00  0.00    +0.000 NA
ATOM     30  C   UNL     1      46.897   1.721   7.403  0.00  0.00    +0.000 A 
ENDBRANCH  24  25
ENDBRANCH  23  24
ENDBRANCH  20  23
ENDBRANCH  16  17
ENDBRANCH   3  16
TORSDOF 6
ENDMDL
MODEL 4
REMARK VINA RESULT:    -7.665      2.521      3.333
REMARK INTER + INTRA:         -11.176
REMARK INTER:                 -10.145
REMARK INTRA:                  -1.031
REMARK UNBOUND:                -0.822
REMARK  Name = 
REMARK  6 active torsions:
REMARK  status: ('A' for Active; 'I' for Inactive)
REMARK    1  A    between atoms: C_2  and  C_19
REMARK    2  A    between atoms: N_3  and  C_4
REMARK    3  A    between atoms: C_4  and  C_5
REMARK    4  A    between atoms: C_8  and  C_9
REMARK    5  A    between atoms: C_9  and  O_10
REMARK    6  A    between atoms: O_10  and  C_11
REMARK                            x       y       z     vdW  Elec       q    Type
REMARK                         _______ _______ _______ _____ _____    ______ ____
ROOT
ATOM      1  O   UNL     1      49.917   5.571  16.317  0.00  0.00    +0.000 OA
ATOM      2  C   UNL     1      48.838   6.144  16.393  0.00  0.00    +0.000 C 
ATOM      3  N   UNL     1      47.715   5.779  15.686  0.00  0.00    +0.000 N 
ATOM      4  H   UNL     1      46.823   6.156  15.974  0.00  0.00    +0.000 HD
ENDROOT
BRANCH   2   5
ATOM      5  C   UNL     1      48.525   7.163  17.385  0.00  0.00    +0.000 A 
ATOM      6  C   UNL     1      48.929   8.481  17.253  0.00  0.00    +0.000 A 
ATOM      7  S   UNL     1      48.921   9.296  18.763  0.00  0.00    +0.000 S 
ATOM      8  C   UNL     1      48.249   7.942  19.555  0.00  0.00    +0.000 A 
ATOM      9  N   UNL     1      48.111   7.875  20.906  0.00  0.00    +0.000 NA
ATOM     10  C   UNL     1      47.528   6.800  21.327  0.00  0.00    +0.000 A 
ATOM     11  N   UNL     1      47.029   5.805  20.520  0.00  0.00    +0.000 N 
ATOM     12  C   UNL     1      47.146   5.823  19.150  0.00  0.00    +0.000 A 
ATOM     13  O   UNL     1      46.651   4.962  18.439  0.00  0.00    +0.000 OA
ATOM     14  C   UNL     1      47.902   6.958  18.657  0.00  0.00    +0.000 A 
ATOM     15  H   UNL     1      46.521   5.024  20.904  0.00  0.00    +0.000 HD
ENDBRANCH   2   5
BRANCH   3  16
ATOM     16  C   UNL     1      47.643   4.544  14.937  0.00  0.00    +0.000 C 
BRANCH  16  17
ATOM     17  C   UNL     1      46.723   4.670  13.739  0.00  0.00    +0.000 A 
ATOM     18  N   UNL     1      46.980   5.637  12.838  0.00  0.00    +0.000 NA
ATOM     19  C   UNL     1      46.119   5.751  11.807  0.00  0.00    +0.000 A 
ATOM     20  C   UNL     1      45.002   4.959  11.646  0.00  0.00    +0.000 A 
ATOM     21  C   UNL     1      44.820   4.012  12.629  0.00  0.00    +0.000 A 
ATOM     22  N   UNL     1      45.639   3.863  13.692  0.00  0.00    +0.000 NA
BRANCH  20  23
ATOM     23  C   UNL     1      44.064   5.115  10.492  0.00  0.00    +0.000 C 
BRANCH  23  24
ATOM     24  O   UNL     1      43.822   3.840   9.900  0.00  0.00    +0.000 OA
BRANCH  24  25
ATOM     25  C   UNL     1      44.797   3.365   9.066  0.00  0.00    +0.000 A 
ATOM     26  C   UNL     1      45.515   4.106   8.128  0.00  0.00    +0.000 A 
ATOM     27  C   UNL     1      46.485   3.478   7.346  0.00  0.00    +0.000 A 
ATOM     28  C   UNL     1      46.705   2.122   7.524  0.00  0.00    +0.000 A 
ATOM     29  N   UNL     1      46.032   1.372   8.417  0.00  0.00    +0.000 NA
ATOM     30  C   UNL     1      45.095   2.010   9.166  0.00  0.00    +0.000 A 
ENDBRANCH  24  25
ENDBRANCH  23  24
ENDBRANCH  20  23
ENDBRANCH  16  17
ENDBRANCH   3  16
TORSDOF 6
ENDMDL
MODEL 5
REMARK VINA RESULT:    -7.366      2.851      4.188
REMARK INTER + INTRA:         -10.772
REMARK INTER:                 -10.075
REMARK INTRA:                  -0.697
REMARK UNBOUND:                -0.822
REMARK  Name = 
REMARK  6 active torsions:
REMARK  status: ('A' for Active; 'I' for Inactive)
REMARK    1  A    between atoms: C_2  and  C_19
REMARK    2  A    between atoms: N_3  and  C_4
REMARK    3  A    between atoms: C_4  and  C_5
REMARK    4  A    between atoms: C_8  and  C_9
REMARK    5  A    between atoms: C_9  and  O_10
REMARK    6  A    between atoms: O_10  and  C_11
REMARK                            x       y       z     vdW  Elec       q    Type
REMARK                         _______ _______ _______ _____ _____    ______ ____
ROOT
ATOM      1  O   UNL     1      49.120   5.441  16.002  0.00  0.00    +0.000 OA
ATOM      2  C   UNL     1      48.644   6.328  15.305  0.00  0.00    +0.000 C 
ATOM      3  N   UNL     1      47.567   6.158  14.466  0.00  0.00    +0.000 N 
ATOM      4  H   UNL     1      47.105   6.982  14.106  0.00  0.00    +0.000 HD
ENDROOT
BRANCH   2   5
ATOM      5  C   UNL     1      49.013   7.732  15.408  0.00  0.00    +0.000 A 
ATOM      6  C   UNL     1      49.123   8.387  16.623  0.00  0.00    +0.000 A 
ATOM      7  S   UNL     1      49.016  10.089  16.433  0.00  0.00    +0.000 S 
ATOM      8  C   UNL     1      48.967   9.953  14.732  0.00  0.00    +0.000 A 
ATOM      9  N   UNL     1      48.723  11.014  13.918  0.00  0.00    +0.000 NA
ATOM     10  C   UNL     1      48.783  10.737  12.655  0.00  0.00    +0.000 A 
ATOM     11  N   UNL     1      49.109   9.510  12.130  0.00  0.00    +0.000 N 
ATOM     12  C   UNL     1      49.361   8.405  12.910  0.00  0.00    +0.000 A 
ATOM     13  O   UNL     1      49.704   7.333  12.436  0.00  0.00    +0.000 OA
ATOM     14  C   UNL     1      49.183   8.655  14.327  0.00  0.00    +0.000 A 
ATOM     15  H   UNL     1      49.210   9.374  11.137  0.00  0.00    +0.000 HD
ENDBRANCH   2   5
BRANCH   3  16
ATOM     16  C   UNL     1      46.756   4.961  14.483  0.00  0.00    +0.000 C 
BRANCH  16  17
ATOM     17  C   UNL     1      46.117   4.697  13.134  0.00  0.00    +0.000 A 
ATOM     18  N   UNL     1      46.185   5.664  12.199  0.00  0.00    +0.000 NA
ATOM     19  C   UNL     1      45.571   5.417  11.025  0.00  0.00    +0.000 A 
ATOM     20  C   UNL     1      44.874   4.260  10.749  0.00  0.00    +0.000 A 
ATOM     21  C   UNL     1      44.851   3.342  11.776  0.00  0.00    +0.000 A 
ATOM     22  N   UNL     1      45.432   3.542  12.977  0.00  0.00    +0.000 NA
BRANCH  20  23
ATOM     23  C   UNL     1      44.200   4.020   9.437  0.00  0.00    +0.000 C 
BRANCH  23  24
ATOM     24  O   UNL     1      45.087   4.367   8.375  0.00  0.00    +0.000 OA
BRANCH  24  25
ATOM     25  C   UNL     1      45.892   3.365   7.906  0.00  0.00    +0.000 A 
ATOM     26  C   UNL     1      46.910   3.496   6.963  0.00  0.00    +0.000 A 
ATOM     27  C   UNL     1      47.650   2.376   6.583  0.00  0.00    +0.000 A 
ATOM     28  C   UNL     1      47.344   1.153   7.158  0.00  0.00    +0.000 A 
ATOM     29  N   UNL     1      46.368   0.985   8.070  0.00  0.00    +0.000 NA
ATOM     30  C   UNL     1      45.665   2.093   8.422  0.00  0.00    +0.000 A 
ENDBRANCH  24  25
ENDBRANCH  23  24
ENDBRANCH  20  23
ENDBRANCH  16  17
ENDBRANCH   3  16
TORSDOF 6
ENDMDL
MODEL 6
REMARK VINA RESULT:    -7.302      2.565      3.848
REMARK INTER + INTRA:         -10.685
REMARK INTER:                  -9.873
REMARK INTRA:                  -0.812
REMARK UNBOUND:                -0.822
REMARK  Name = 
REMARK  6 active torsions:
REMARK  status: ('A' for Active; 'I' for Inactive)
REMARK    1  A    between atoms: C_2  and  C_19
REMARK    2  A    between atoms: N_3  and  C_4
REMARK    3  A    between atoms: C_4  and  C_5
REMARK    4  A    between atoms: C_8  and  C_9
REMARK    5  A    between atoms: C_9  and  O_10
REMARK    6  A    between atoms: O_10  and  C_11
REMARK                            x       y       z     vdW  Elec       q    Type
REMARK                         _______ _______ _______ _____ _____    ______ ____
ROOT
ATOM      1  O   UNL     1      47.335   4.689  13.856  0.00  0.00    +0.000 OA
ATOM      2  C   UNL     1      47.318   5.905  13.716  0.00  0.00    +0.000 C 
ATOM      3  N   UNL     1      46.210   6.625  13.331  0.00  0.00    +0.000 N 
ATOM      4  H   UNL     1      46.222   7.627  13.459  0.00  0.00    +0.000 HD
ENDROOT
BRANCH   2   5
ATOM      5  C   UNL     1      48.401   6.787  14.128  0.00  0.00    +0.000 A 
ATOM      6  C   UNL     1      48.964   6.736  15.392  0.00  0.00    +0.000 A 
ATOM      7  S   UNL     1      49.783   8.195  15.775  0.00  0.00    +0.000 S 
ATOM      8  C   UNL     1      49.507   8.827  14.213  0.00  0.00    +0.000 A 
ATOM      9  N   UNL     1      49.804  10.111  13.879  0.00  0.00    +0.000 NA
ATOM     10  C   UNL     1      49.584  10.398  12.637  0.00  0.00    +0.000 A 
ATOM     11  N   UNL     1      49.137   9.510  11.687  0.00  0.00    +0.000 N 
ATOM     12  C   UNL     1      48.820   8.204  11.975  0.00  0.00    +0.000 A 
ATOM     13  O   UNL     1      48.477   7.407  11.115  0.00  0.00    +0.000 OA
ATOM     14  C   UNL     1      48.942   7.884  13.384  0.00  0.00    +0.000 A 
ATOM     15  H   UNL     1      49.053   9.775  10.719  0.00  0.00    +0.000 HD
ENDBRANCH   2   5
BRANCH   3  16
ATOM     16  C   UNL     1      44.893   6.033  13.256  0.00  0.00    +0.000 C 
BRANCH  16  17
ATOM     17  C   UNL     1      44.778   5.070  12.090  0.00  0.00    +0.000 A 
ATOM     18  N   UNL     1      44.258   3.850  12.323  0.00  0.00    +0.000 NA
ATOM     19  C   UNL     1      44.208   3.001  11.277  0.00  0.00    +0.000 A 
ATOM     20  C   UNL     1      44.673   3.307  10.016  0.00  0.00    +0.000 A 
ATOM     21  C   UNL     1      45.200   4.573   9.886  0.00  0.00    +0.000 A 
ATOM     22  N   UNL     1      45.291   5.458  10.901  0.00  0.00    +0.000 NA
BRANCH  20  23
ATOM     23  C   UNL     1      44.607   2.340   8.877  0.00  0.00    +0.000 C 
BRANCH  23  24
ATOM     24  O   UNL     1      45.894   1.762   8.668  0.00  0.00    +0.000 OA
BRANCH  24  25
ATOM     25  C   UNL     1      46.481   2.014   7.458  0.00  0.00    +0.000 A 
ATOM     26  C   UNL     1      46.223   3.101   6.625  0.00  0.00    +0.000 A 
ATOM     27  C   UNL     1      46.906   3.224   5.415  0.00  0.00    +0.000 A 
ATOM     28  C   UNL     1      47.828   2.248   5.072  0.00  0.00    +0.000 A 
ATOM     29  N   UNL     1      48.105   1.183   5.849  0.00  0.00    +0.000 NA
ATOM     30  C   UNL     1      47.426   1.091   7.022  0.00  0.00    +0.000 A 
ENDBRANCH  24  25
ENDBRANCH  23  24
ENDBRANCH  20  23
ENDBRANCH  16  17
ENDBRANCH   3  16
TORSDOF 6
ENDMDL
MODEL 7
REMARK VINA RESULT:    -7.245      1.791      2.422
REMARK INTER + INTRA:         -10.608
REMARK INTER:                 -10.235
REMARK INTRA:                  -0.373
REMARK UNBOUND:                -0.822
REMARK  Name = 
REMARK  6 active torsions:
REMARK  status: ('A' for Active; 'I' for Inactive)
REMARK    1  A    between atoms: C_2  and  C_19
REMARK    2  A    between atoms: N_3  and  C_4
REMARK    3  A    between atoms: C_4  and  C_5
REMARK    4  A    between atoms: C_8  and  C_9
REMARK    5  A    between atoms: C_9  and  O_10
REMARK    6  A    between atoms: O_10  and  C_11
REMARK                            x       y       z     vdW  Elec       q    Type
REMARK                         _______ _______ _______ _____ _____    ______ ____
ROOT
ATOM      1  O   UNL     1      47.443   4.836  13.689  0.00  0.00    +0.000 OA
ATOM      2  C   UNL     1      47.369   6.051  13.558  0.00  0.00    +0.000 C 
ATOM      3  N   UNL     1      46.230   6.720  13.176  0.00  0.00    +0.000 N 
ATOM      4  H   UNL     1      46.194   7.721  13.312  0.00  0.00    +0.000 HD
ENDROOT
BRANCH   2   5
ATOM      5  C   UNL     1      48.409   6.980  13.979  0.00  0.00    +0.000 A 
ATOM      6  C   UNL     1      48.797   8.063  13.210  0.00  0.00    +0.000 A 
ATOM      7  S   UNL     1      50.355   8.627  13.658  0.00  0.00    +0.000 S 
ATOM      8  C   UNL     1      50.443   7.524  14.957  0.00  0.00    +0.000 A 
ATOM      9  N   UNL     1      51.573   7.344  15.690  0.00  0.00    +0.000 NA
ATOM     10  C   UNL     1      51.440   6.512  16.673  0.00  0.00    +0.000 A 
ATOM     11  N   UNL     1      50.270   5.880  17.019  0.00  0.00    +0.000 N 
ATOM     12  C   UNL     1      49.101   6.026  16.309  0.00  0.00    +0.000 A 
ATOM     13  O   UNL     1      48.053   5.504  16.656  0.00  0.00    +0.000 OA
ATOM     14  C   UNL     1      49.250   6.858  15.131  0.00  0.00    +0.000 A 
ATOM     15  H   UNL     1      50.210   5.298  17.839  0.00  0.00    +0.000 HD
ENDBRANCH   2   5
BRANCH   3  16
ATOM     16  C   UNL     1      44.942   6.068  13.094  0.00  0.00    +0.000 C 
BRANCH  16  17
ATOM     17  C   UNL     1      44.915   5.019  11.999  0.00  0.00    +0.000 A 
ATOM     18  N   UNL     1      44.989   5.433  10.720  0.00  0.00    +0.000 NA
ATOM     19  C   UNL     1      44.919   4.481   9.769  0.00  0.00    +0.000 A 
ATOM     20  C   UNL     1      44.756   3.138  10.034  0.00  0.00    +0.000 A 
ATOM     21  C   UNL     1      44.675   2.820  11.373  0.00  0.00    +0.000 A 
ATOM     22  N   UNL     1      44.722   3.732  12.366  0.00  0.00    +0.000 NA
BRANCH  20  23
ATOM     23  C   UNL     1      44.678   2.107   8.954  0.00  0.00    +0.000 C 
BRANCH  23  24
ATOM     24  O   UNL     1      45.981   1.593   8.692  0.00  0.00    +0.000 OA
BRANCH  24  25
ATOM     25  C   UNL     1      46.507   1.875   7.460  0.00  0.00    +0.000 A 
ATOM     26  C   UNL     1      46.305   3.041   6.724  0.00  0.00    +0.000 A 
ATOM     27  C   UNL     1      46.913   3.185   5.476  0.00  0.00    +0.000 A 
ATOM     28  C   UNL     1      47.703   2.151   4.999  0.00  0.00    +0.000 A 
ATOM     29  N   UNL     1      47.921   1.010   5.679  0.00  0.00    +0.000 NA
ATOM     30  C   UNL     1      47.318   0.898   6.892  0.00  0.00    +0.000 A 
ENDBRANCH  24  25
ENDBRANCH  23  24
ENDBRANCH  20  23
ENDBRANCH  16  17
ENDBRANCH   3  16
TORSDOF 6
ENDMDL
MODEL 8
REMARK VINA RESULT:    -7.097      3.744      8.677
REMARK INTER + INTRA:         -10.408
REMARK INTER:                  -9.365
REMARK INTRA:                  -1.043
REMARK UNBOUND:                -0.822
REMARK  Name = 
REMARK  6 active torsions:
REMARK  status: ('A' for Active; 'I' for Inactive)
REMARK    1  A    between atoms: C_2  and  C_19
REMARK    2  A    between atoms: N_3  and  C_4
REMARK    3  A    between atoms: C_4  and  C_5
REMARK    4  A    between atoms: C_8  and  C_9
REMARK    5  A    between atoms: C_9  and  O_10
REMARK    6  A    between atoms: O_10  and  C_11
REMARK                            x       y       z     vdW  Elec       q    Type
REMARK                         _______ _______ _______ _____ _____    ______ ____
ROOT
ATOM      1  O   UNL     1      44.960   7.756  11.491  0.00  0.00    +0.000 OA
ATOM      2  C   UNL     1      45.799   6.865  11.444  0.00  0.00    +0.000 C 
ATOM      3  N   UNL     1      46.974   6.870  12.161  0.00  0.00    +0.000 N 
ATOM      4  H   UNL     1      47.492   6.006  12.237  0.00  0.00    +0.000 HD
ENDROOT
BRANCH   2   5
ATOM      5  C   UNL     1      45.590   5.583  10.787  0.00  0.00    +0.000 A 
ATOM      6  C   UNL     1      45.821   5.392   9.435  0.00  0.00    +0.000 A 
ATOM      7  S   UNL     1      44.988   4.013   8.843  0.00  0.00    +0.000 S 
ATOM      8  C   UNL     1      44.444   3.600  10.408  0.00  0.00    +0.000 A 
ATOM      9  N   UNL     1      43.545   2.604  10.633  0.00  0.00    +0.000 NA
ATOM     10  C   UNL     1      43.294   2.391  11.884  0.00  0.00    +0.000 A 
ATOM     11  N   UNL     1      43.891   3.049  12.933  0.00  0.00    +0.000 N 
ATOM     12  C   UNL     1      44.802   4.064  12.758  0.00  0.00    +0.000 A 
ATOM     13  O   UNL     1      45.369   4.605  13.696  0.00  0.00    +0.000 OA
ATOM     14  C   UNL     1      45.014   4.407  11.366  0.00  0.00    +0.000 A 
ATOM     15  H   UNL     1      43.707   2.789  13.888  0.00  0.00    +0.000 HD
ENDBRANCH   2   5
BRANCH   3  16
ATOM     16  C   UNL     1      47.237   7.835  13.205  0.00  0.00    +0.000 C 
BRANCH  16  17
ATOM     17  C   UNL     1      48.277   7.330  14.186  0.00  0.00    +0.000 A 
ATOM     18  N   UNL     1      47.900   6.410  15.094  0.00  0.00    +0.000 NA
ATOM     19  C   UNL     1      48.836   6.013  15.979  0.00  0.00    +0.000 A 
ATOM     20  C   UNL     1      50.122   6.507  16.014  0.00  0.00    +0.000 A 
ATOM     21  C   UNL     1      50.402   7.455  15.054  0.00  0.00    +0.000 A 
ATOM     22  N   UNL     1      49.501   7.903  14.154  0.00  0.00    +0.000 NA
BRANCH  20  23
ATOM     23  C   UNL     1      51.134   6.047  17.013  0.00  0.00    +0.000 C 
BRANCH  23  24
ATOM     24  O   UNL     1      50.551   5.062  17.863  0.00  0.00    +0.000 OA
BRANCH  24  25
ATOM     25  C   UNL     1      51.068   3.798  17.767  0.00  0.00    +0.000 A 
ATOM     26  C   UNL     1      52.320   3.381  18.215  0.00  0.00    +0.000 A 
ATOM     27  C   UNL     1      52.708   2.052  18.047  0.00  0.00    +0.000 A 
ATOM     28  C   UNL     1      51.829   1.177  17.428  0.00  0.00    +0.000 A 
ATOM     29  N   UNL     1      50.613   1.541  16.980  0.00  0.00    +0.000 NA
ATOM     30  C   UNL     1      50.261   2.842  17.159  0.00  0.00    +0.000 A 
ENDBRANCH  24  25
ENDBRANCH  23  24
ENDBRANCH  20  23
ENDBRANCH  16  17
ENDBRANCH   3  16
TORSDOF 6
ENDMDL
MODEL 9
REMARK VINA RESULT:    -7.066      2.825      3.989
REMARK INTER + INTRA:         -10.367
REMARK INTER:                  -9.544
REMARK INTRA:                  -0.823
REMARK UNBOUND:                -0.822
REMARK  Name = 
REMARK  6 active torsions:
REMARK  status: ('A' for Active; 'I' for Inactive)
REMARK    1  A    between atoms: C_2  and  C_19
REMARK    2  A    between atoms: N_3  and  C_4
REMARK    3  A    between atoms: C_4  and  C_5
REMARK    4  A    between atoms: C_8  and  C_9
REMARK    5  A    between atoms: C_9  and  O_10
REMARK    6  A    between atoms: O_10  and  C_11
REMARK                            x       y       z     vdW  Elec       q    Type
REMARK                         _______ _______ _______ _____ _____    ______ ____
ROOT
ATOM      1  O   UNL     1      49.885   4.456  16.938  0.00  0.00    +0.000 OA
ATOM      2  C   UNL     1      49.083   5.377  17.022  0.00  0.00    +0.000 C 
ATOM      3  N   UNL     1      47.872   5.410  16.370  0.00  0.00    +0.000 N 
ATOM      4  H   UNL     1      47.185   6.088  16.669  0.00  0.00    +0.000 HD
ENDROOT
BRANCH   2   5
ATOM      5  C   UNL     1      49.197   6.472  17.975  0.00  0.00    +0.000 A 
ATOM      6  C   UNL     1      49.515   6.271  19.308  0.00  0.00    +0.000 A 
ATOM      7  S   UNL     1      49.043   7.606  20.276  0.00  0.00    +0.000 S 
ATOM      8  C   UNL     1      48.550   8.498  18.907  0.00  0.00    +0.000 A 
ATOM      9  N   UNL     1      47.894   9.685  19.002  0.00  0.00    +0.000 NA
ATOM     10  C   UNL     1      47.652  10.249  17.863  0.00  0.00    +0.000 A 
ATOM     11  N   UNL     1      48.043   9.758  16.640  0.00  0.00    +0.000 N 
ATOM     12  C   UNL     1      48.704   8.562  16.490  0.00  0.00    +0.000 A 
ATOM     13  O   UNL     1      49.097   8.161  15.405  0.00  0.00    +0.000 OA
ATOM     14  C   UNL     1      48.884   7.849  17.740  0.00  0.00    +0.000 A 
ATOM     15  H   UNL     1      47.888  10.279  15.792  0.00  0.00    +0.000 HD
ENDBRANCH   2   5
BRANCH   3  16
ATOM     16  C   UNL     1      47.334   4.258  15.681  0.00  0.00    +0.000 C 
BRANCH  16  17
ATOM     17  C   UNL     1      46.787   4.627  14.316  0.00  0.00    +0.000 A 
ATOM     18  N   UNL     1      47.169   5.800  13.774  0.00  0.00    +0.000 NA
ATOM     19  C   UNL     1      46.632   6.119  12.580  0.00  0.00    +0.000 A 
ATOM     20  C   UNL     1      45.716   5.334  11.913  0.00  0.00    +0.000 A 
ATOM     21  C   UNL     1      45.380   4.164  12.558  0.00  0.00    +0.000 A 
ATOM     22  N   UNL     1      45.872   3.801  13.762  0.00  0.00    +0.000 NA
BRANCH  20  23
ATOM     23  C   UNL     1      45.136   5.720  10.590  0.00  0.00    +0.000 C 
BRANCH  23  24
ATOM     24  O   UNL     1      44.449   4.605  10.028  0.00  0.00    +0.000 OA
BRANCH  24  25
ATOM     25  C   UNL     1      45.166   3.826   9.160  0.00  0.00    +0.000 A 
ATOM     26  C   UNL     1      45.243   2.434   9.170  0.00  0.00    +0.000 A 
ATOM     27  C   UNL     1      46.019   1.777   8.215  0.00  0.00    +0.000 A 
ATOM     28  C   UNL     1      46.701   2.537   7.277  0.00  0.00    +0.000 A 
ATOM     29  N   UNL     1      46.653   3.882   7.236  0.00  0.00    +0.000 NA
ATOM     30  C   UNL     1      45.888   4.495   8.177  0.00  0.00    +0.000 A 
ENDBRANCH  24  25
ENDBRANCH  23  24
ENDBRANCH  20  23
ENDBRANCH  16  17
ENDBRANCH   3  16
TORSDOF 6
ENDMDL
