MODEL 1
REMARK VINA RESULT:    -7.804      0.000      0.000
REMARK INTER + INTRA:          -9.647
REMARK INTER:                  -9.172
REMARK INTRA:                  -0.474
REMARK UNBOUND:                -0.474
REMARK  Name = 
REMARK  3 active torsions:
REMARK  status: ('A' for Active; 'I' for Inactive)
REMARK    1  A    between atoms: C_2  and  C_11
REMARK    2  A    between atoms: N_3  and  C_4
REMARK    3  A    between atoms: C_4  and  C_5
REMARK                            x       y       z     vdW  Elec       q    Type
REMARK                         _______ _______ _______ _____ _____    ______ ____
ROOT
ATOM      1  O   UNL     1      43.714   5.146  10.865  0.00  0.00    +0.000 OA
ATOM      2  C   UNL     1      44.926   5.249  10.710  0.00  0.00    +0.000 C 
ATOM      3  N   UNL     1      45.560   4.867   9.554  0.00  0.00    +0.000 N 
ATOM      4  H   UNL     1      46.572   4.813   9.547  0.00  0.00    +0.000 HD
ENDROOT
BRANCH   2   5
ATOM      5  C   UNL     1      45.787   5.850  11.737  0.00  0.00    +0.000 A 
ATOM      6  C   UNL     1      46.122   7.195  11.661  0.00  0.00    +0.000 A 
ATOM      7  S   UNL     1      47.155   7.713  12.917  0.00  0.00    +0.000 S 
ATOM      8  C   UNL     1      47.151   6.169  13.633  0.00  0.00    +0.000 A 
ATOM      9  N   UNL     1      47.835   5.927  14.784  0.00  0.00    +0.000 NA
ATOM     10  C   UNL     1      47.704   4.727  15.242  0.00  0.00    +0.000 A 
ATOM     11  N   UNL     1      46.958   3.741  14.647  0.00  0.00    +0.000 N 
ATOM     12  C   UNL     1      46.325   3.915  13.441  0.00  0.00    +0.000 A 
ATOM     13  O   UNL     1      45.794   2.972  12.861  0.00  0.00    +0.000 OA
ATOM     14  C   UNL     1      46.394   5.264  12.910  0.00  0.00    +0.000 A 
ATOM     15  H   UNL     1      46.924   2.812  15.039  0.00  0.00    +0.000 HD
ENDBRANCH   2   5
BRANCH   3  16
ATOM     16  C   UNL     1      44.882   4.214   8.467  0.00  0.00    +0.000 C 
BRANCH  16  17
ATOM     17  C   UNL     1      45.706   3.107   7.881  0.00  0.00    +0.000 A 
ATOM     18  C   UNL     1      46.436   3.295   6.705  0.00  0.00    +0.000 A 
ATOM     19  C   UNL     1      47.211   2.255   6.200  0.00  0.00    +0.000 A 
ATOM     20  C   UNL     1      47.220   1.051   6.883  0.00  0.00    +0.000 A 
ATOM     21  N   UNL     1      46.506   0.820   8.006  0.00  0.00    +0.000 NA
ATOM     22  C   UNL     1      45.760   1.849   8.473  0.00  0.00    +0.000 A 
ENDBRANCH  16  17
ENDBRANCH   3  16
TORSDOF 3
ENDMDL
MODEL 2
REMARK VINA RESULT:    -7.067      3.967      7.066
REMARK INTER + INTRA:          -8.781
REMARK INTER:                  -8.314
REMARK INTRA:                  -0.466
REMARK UNBOUND:                -0.474
REMARK  Name = 
REMARK  3 active torsions:
REMARK  status: ('A' for Active; 'I' for Inactive)
REMARK    1  A    between atoms: C_2  and  C_11
REMARK    2  A    between atoms: N_3  and  C_4
REMARK    3  A    between atoms: C_4  and  C_5
REMARK                            x       y       z     vdW  Elec       q    Type
REMARK                         _______ _______ _______ _____ _____    ______ ____
ROOT
ATOM      1  O   UNL     1      47.331   3.147  14.027  0.00  0.00    +0.000 OA
ATOM      2  C   UNL     1      46.843   4.185  14.462  0.00  0.00    +0.000 C 
ATOM      3  N   UNL     1      46.774   4.465  15.804  0.00  0.00    +0.000 N 
ATOM      4  H   UNL     1      46.211   5.250  16.111  0.00  0.00    +0.000 HD
ENDROOT
BRANCH   2   5
ATOM      5  C   UNL     1      46.350   5.240  13.568  0.00  0.00    +0.000 A 
ATOM      6  C   UNL     1      47.151   6.336  13.278  0.00  0.00    +0.000 A 
ATOM      7  S   UNL     1      46.402   7.476  12.251  0.00  0.00    +0.000 S 
ATOM      8  C   UNL     1      45.001   6.521  12.119  0.00  0.00    +0.000 A 
ATOM      9  N   UNL     1      43.953   6.916  11.346  0.00  0.00    +0.000 NA
ATOM     10  C   UNL     1      42.976   6.072  11.298  0.00  0.00    +0.000 A 
ATOM     11  N   UNL     1      42.947   4.872  11.963  0.00  0.00    +0.000 N 
ATOM     12  C   UNL     1      43.942   4.475  12.822  0.00  0.00    +0.000 A 
ATOM     13  O   UNL     1      43.817   3.470  13.516  0.00  0.00    +0.000 OA
ATOM     14  C   UNL     1      45.091   5.361  12.869  0.00  0.00    +0.000 A 
ATOM     15  H   UNL     1      42.138   4.271  11.909  0.00  0.00    +0.000 HD
ENDBRANCH   2   5
BRANCH   3  16
ATOM     16  C   UNL     1      47.164   3.527  16.822  0.00  0.00    +0.000 C 
BRANCH  16  17
ATOM     17  C   UNL     1      48.634   3.590  17.106  0.00  0.00    +0.000 A 
ATOM     18  C   UNL     1      49.414   2.432  17.145  0.00  0.00    +0.000 A 
ATOM     19  C   UNL     1      50.781   2.527  17.387  0.00  0.00    +0.000 A 
ATOM     20  C   UNL     1      51.324   3.784  17.595  0.00  0.00    +0.000 A 
ATOM     21  N   UNL     1      50.602   4.924  17.593  0.00  0.00    +0.000 NA
ATOM     22  C   UNL     1      49.275   4.800  17.358  0.00  0.00    +0.000 A 
ENDBRANCH  16  17
ENDBRANCH   3  16
TORSDOF 3
ENDMDL
MODEL 3
REMARK VINA RESULT:    -6.909      3.413      6.901
REMARK INTER + INTRA:          -8.595
REMARK INTER:                  -7.985
REMARK INTRA:                  -0.610
REMARK UNBOUND:                -0.474
REMARK  Name = 
REMARK  3 active torsions:
REMARK  status: ('A' for Active; 'I' for Inactive)
REMARK    1  A    between atoms: C_2  and  C_11
REMARK    2  A    between atoms: N_3  and  C_4
REMARK    3  A    between atoms: C_4  and  C_5
REMARK                            x       y       z     vdW  Elec       q    Type
REMARK                         _______ _______ _______ _____ _____    ______ ____
ROOT
ATOM      1  O   UNL     1      48.799   6.065  12.895  0.00  0.00    +0.000 OA
ATOM      2  C   UNL     1      47.702   6.140  13.439  0.00  0.00    +0.000 C 
ATOM      3  N   UNL     1      47.557   6.357  14.786  0.00  0.00    +0.000 N 
ATOM      4  H   UNL     1      46.642   6.239  15.204  0.00  0.00    +0.000 HD
ENDROOT
BRANCH   2   5
ATOM      5  C   UNL     1      46.454   6.064  12.670  0.00  0.00    +0.000 A 
ATOM      6  C   UNL     1      45.943   7.202  12.062  0.00  0.00    +0.000 A 
ATOM      7  S   UNL     1      44.469   6.935  11.242  0.00  0.00    +0.000 S 
ATOM      8  C   UNL     1      44.489   5.279  11.629  0.00  0.00    +0.000 A 
ATOM      9  N   UNL     1      43.504   4.446  11.199  0.00  0.00    +0.000 NA
ATOM     10  C   UNL     1      43.672   3.207  11.523  0.00  0.00    +0.000 A 
ATOM     11  N   UNL     1      44.731   2.726  12.250  0.00  0.00    +0.000 N 
ATOM     12  C   UNL     1      45.700   3.543  12.779  0.00  0.00    +0.000 A 
ATOM     13  O   UNL     1      46.549   3.104  13.550  0.00  0.00    +0.000 OA
ATOM     14  C   UNL     1      45.590   4.939  12.396  0.00  0.00    +0.000 A 
ATOM     15  H   UNL     1      44.786   1.750  12.499  0.00  0.00    +0.000 HD
ENDBRANCH   2   5
BRANCH   3  16
ATOM     16  C   UNL     1      48.669   6.406  15.697  0.00  0.00    +0.000 C 
BRANCH  16  17
ATOM     17  C   UNL     1      48.671   5.238  16.637  0.00  0.00    +0.000 A 
ATOM     18  C   UNL     1      47.564   4.393  16.743  0.00  0.00    +0.000 A 
ATOM     19  C   UNL     1      47.607   3.303  17.607  0.00  0.00    +0.000 A 
ATOM     20  C   UNL     1      48.757   3.100  18.350  0.00  0.00    +0.000 A 
ATOM     21  N   UNL     1      49.837   3.908  18.297  0.00  0.00    +0.000 NA
ATOM     22  C   UNL     1      49.766   4.962  17.451  0.00  0.00    +0.000 A 
ENDBRANCH  16  17
ENDBRANCH   3  16
TORSDOF 3
ENDMDL
MODEL 4
REMARK VINA RESULT:    -6.614      3.490      4.658
REMARK INTER + INTRA:          -8.248
REMARK INTER:                  -7.575
REMARK INTRA:                  -0.673
REMARK UNBOUND:                -0.474
REMARK  Name = 
REMARK  3 active torsions:
REMARK  status: ('A' for Active; 'I' for Inactive)
REMARK    1  A    between atoms: C_2  and  C_11
REMARK    2  A    between atoms: N_3  and  C_4
REMARK    3  A    between atoms: C_4  and  C_5
REMARK                            x       y       z     vdW  Elec       q    Type
REMARK                         _______ _______ _______ _____ _____    ______ ____
ROOT
ATOM      1  O   UNL     1      48.828   6.387  13.084  0.00  0.00    +0.000 OA
ATOM      2  C   UNL     1      47.989   6.249  13.969  0.00  0.00    +0.000 C 
ATOM      3  N   UNL     1      46.649   6.119  13.704  0.00  0.00    +0.000 N 
ATOM      4  H   UNL     1      45.991   6.181  14.473  0.00  0.00    +0.000 HD
ENDROOT
BRANCH   2   5
ATOM      5  C   UNL     1      48.369   6.150  15.383  0.00  0.00    +0.000 A 
ATOM      6  C   UNL     1      48.918   7.246  16.033  0.00  0.00    +0.000 A 
ATOM      7  S   UNL     1      49.330   6.939  17.661  0.00  0.00    +0.000 S 
ATOM      8  C   UNL     1      48.743   5.345  17.568  0.00  0.00    +0.000 A 
ATOM      9  N   UNL     1      48.773   4.522  18.651  0.00  0.00    +0.000 NA
ATOM     10  C   UNL     1      48.250   3.358  18.451  0.00  0.00    +0.000 A 
ATOM     11  N   UNL     1      47.710   2.937  17.263  0.00  0.00    +0.000 N 
ATOM     12  C   UNL     1      47.739   3.701  16.123  0.00  0.00    +0.000 A 
ATOM     13  O   UNL     1      47.385   3.240  15.041  0.00  0.00    +0.000 OA
ATOM     14  C   UNL     1      48.264   5.042  16.305  0.00  0.00    +0.000 A 
ATOM     15  H   UNL     1      47.346   2.001  17.163  0.00  0.00    +0.000 HD
ENDBRANCH   2   5
BRANCH   3  16
ATOM     16  C   UNL     1      46.094   6.242  12.383  0.00  0.00    +0.000 C 
BRANCH  16  17
ATOM     17  C   UNL     1      45.185   5.098  12.051  0.00  0.00    +0.000 A 
ATOM     18  C   UNL     1      44.877   4.781  10.725  0.00  0.00    +0.000 A 
ATOM     19  C   UNL     1      44.049   3.696  10.450  0.00  0.00    +0.000 A 
ATOM     20  C   UNL     1      43.544   2.969  11.514  0.00  0.00    +0.000 A 
ATOM     21  N   UNL     1      43.795   3.260  12.808  0.00  0.00    +0.000 NA
ATOM     22  C   UNL     1      44.600   4.321  13.046  0.00  0.00    +0.000 A 
ENDBRANCH  16  17
ENDBRANCH   3  16
TORSDOF 3
ENDMDL
MODEL 5
REMARK VINA RESULT:    -6.084      3.099      6.327
REMARK INTER + INTRA:          -7.626
REMARK INTER:                  -7.117
REMARK INTRA:                  -0.508
REMARK UNBOUND:                -0.474
REMARK  Name = 
REMARK  3 active torsions:
REMARK  status: ('A' for Active; 'I' for Inactive)
REMARK    1  A    between atoms: C_2  and  C_11
REMARK    2  A    between atoms: N_3  and  C_4
REMARK    3  A    between atoms: C_4  and  C_5
REMARK                            x       y       z     vdW  Elec       q    Type
REMARK                         _______ _______ _______ _____ _____    ______ ____
ROOT
ATOM      1  O   UNL     1      45.459   7.888  11.619  0.00  0.00    +0.000 OA
ATOM      2  C   UNL     1      46.140   6.895  11.386  0.00  0.00    +0.000 C 
ATOM      3  N   UNL     1      47.465   6.807  11.733  0.00  0.00    +0.000 N 
ATOM      4  H   UNL     1      48.017   6.041  11.365  0.00  0.00    +0.000 HD
ENDROOT
BRANCH   2   5
ATOM      5  C   UNL     1      45.566   5.693  10.767  0.00  0.00    +0.000 A 
ATOM      6  C   UNL     1      45.779   5.437   9.420  0.00  0.00    +0.000 A 
ATOM      7  S   UNL     1      45.011   4.017   8.865  0.00  0.00    +0.000 S 
ATOM      8  C   UNL     1      44.408   3.670  10.417  0.00  0.00    +0.000 A 
ATOM      9  N   UNL     1      43.668   2.552  10.649  0.00  0.00    +0.000 NA
ATOM     10  C   UNL     1      43.319   2.388  11.882  0.00  0.00    +0.000 A 
ATOM     11  N   UNL     1      43.632   3.248  12.904  0.00  0.00    +0.000 N 
ATOM     12  C   UNL     1      44.299   4.431  12.700  0.00  0.00    +0.000 A 
ATOM     13  O   UNL     1      44.430   5.249  13.606  0.00  0.00    +0.000 OA
ATOM     14  C   UNL     1      44.765   4.637  11.341  0.00  0.00    +0.000 A 
ATOM     15  H   UNL     1      43.299   3.079  13.841  0.00  0.00    +0.000 HD
ENDBRANCH   2   5
BRANCH   3  16
ATOM     16  C   UNL     1      48.202   7.905  12.300  0.00  0.00    +0.000 C 
BRANCH  16  17
ATOM     17  C   UNL     1      48.907   7.511  13.563  0.00  0.00    +0.000 A 
ATOM     18  C   UNL     1      50.157   8.042  13.889  0.00  0.00    +0.000 A 
ATOM     19  C   UNL     1      50.774   7.674  15.080  0.00  0.00    +0.000 A 
ATOM     20  C   UNL     1      50.124   6.772  15.905  0.00  0.00    +0.000 A 
ATOM     21  N   UNL     1      48.929   6.214  15.613  0.00  0.00    +0.000 NA
ATOM     22  C   UNL     1      48.354   6.589  14.447  0.00  0.00    +0.000 A 
ENDBRANCH  16  17
ENDBRANCH   3  16
TORSDOF 3
ENDMDL
MODEL 6
REMARK VINA RESULT:    -5.906      4.237      5.762
REMARK INTER + INTRA:          -7.416
REMARK INTER:                  -6.813
REMARK INTRA:                  -0.602
REMARK UNBOUND:                -0.474
REMARK  Name = 
REMARK  3 active torsions:
REMARK  status: ('A' for Active; 'I' for Inactive)
REMARK    1  A    between atoms: C_2  and  C_11
REMARK    2  A    between atoms: N_3  and  C_4
REMARK    3  A    between atoms: C_4  and  C_5
REMARK                            x       y       z     vdW  Elec       q    Type
REMARK                         _______ _______ _______ _____ _____    ______ ____
ROOT
ATOM      1  O   UNL     1      48.091   2.733  15.596  0.00  0.00    +0.000 OA
ATOM      2  C   UNL     1      47.626   3.868  15.603  0.00  0.00    +0.000 C 
ATOM      3  N   UNL     1      46.827   4.347  14.595  0.00  0.00    +0.000 N 
ATOM      4  H   UNL     1      46.615   5.338  14.568  0.00  0.00    +0.000 HD
ENDROOT
BRANCH   2   5
ATOM      5  C   UNL     1      47.842   4.784  16.730  0.00  0.00    +0.000 A 
ATOM      6  C   UNL     1      47.338   4.471  17.985  0.00  0.00    +0.000 A 
ATOM      7  S   UNL     1      47.654   5.664  19.165  0.00  0.00    +0.000 S 
ATOM      8  C   UNL     1      48.519   6.616  18.051  0.00  0.00    +0.000 A 
ATOM      9  N   UNL     1      49.093   7.790  18.428  0.00  0.00    +0.000 NA
ATOM     10  C   UNL     1      49.759   8.384  17.494  0.00  0.00    +0.000 A 
ATOM     11  N   UNL     1      49.894   7.916  16.212  0.00  0.00    +0.000 N 
ATOM     12  C   UNL     1      49.259   6.783  15.765  0.00  0.00    +0.000 A 
ATOM     13  O   UNL     1      49.276   6.474  14.577  0.00  0.00    +0.000 OA
ATOM     14  C   UNL     1      48.543   6.046  16.789  0.00  0.00    +0.000 A 
ATOM     15  H   UNL     1      50.401   8.446  15.519  0.00  0.00    +0.000 HD
ENDBRANCH   2   5
BRANCH   3  16
ATOM     16  C   UNL     1      46.553   3.607  13.392  0.00  0.00    +0.000 C 
BRANCH  16  17
ATOM     17  C   UNL     1      45.223   3.973  12.804  0.00  0.00    +0.000 A 
ATOM     18  C   UNL     1      44.500   3.061  12.031  0.00  0.00    +0.000 A 
ATOM     19  C   UNL     1      43.257   3.423  11.519  0.00  0.00    +0.000 A 
ATOM     20  C   UNL     1      42.783   4.696  11.787  0.00  0.00    +0.000 A 
ATOM     21  N   UNL     1      43.463   5.615  12.505  0.00  0.00    +0.000 NA
ATOM     22  C   UNL     1      44.669   5.236  12.987  0.00  0.00    +0.000 A 
ENDBRANCH  16  17
ENDBRANCH   3  16
TORSDOF 3
ENDMDL
MODEL 7
REMARK VINA RESULT:    -5.880      2.810      6.713
REMARK INTER + INTRA:          -7.386
REMARK INTER:                  -7.000
REMARK INTRA:                  -0.386
REMARK UNBOUND:                -0.474
REMARK  Name = 
REMARK  3 active torsions:
REMARK  status: ('A' for Active; 'I' for Inactive)
REMARK    1  A    between atoms: C_2  and  C_11
REMARK    2  A    between atoms: N_3  and  C_4
REMARK    3  A    between atoms: C_4  and  C_5
REMARK                            x       y       z     vdW  Elec       q    Type
REMARK                         _______ _______ _______ _____ _____    ______ ____
ROOT
ATOM      1  O   UNL     1      45.047   7.786  11.243  0.00  0.00    +0.000 OA
ATOM      2  C   UNL     1      45.320   6.858  11.998  0.00  0.00    +0.000 C 
ATOM      3  N   UNL     1      46.106   7.016  13.112  0.00  0.00    +0.000 N 
ATOM      4  H   UNL     1      46.437   6.191  13.598  0.00  0.00    +0.000 HD
ENDROOT
BRANCH   2   5
ATOM      5  C   UNL     1      44.769   5.512  11.797  0.00  0.00    +0.000 A 
ATOM      6  C   UNL     1      44.039   4.902  12.808  0.00  0.00    +0.000 A 
ATOM      7  S   UNL     1      43.506   3.329  12.412  0.00  0.00    +0.000 S 
ATOM      8  C   UNL     1      44.190   3.428  10.857  0.00  0.00    +0.000 A 
ATOM      9  N   UNL     1      44.072   2.402   9.972  0.00  0.00    +0.000 NA
ATOM     10  C   UNL     1      44.595   2.633   8.814  0.00  0.00    +0.000 A 
ATOM     11  N   UNL     1      45.237   3.793   8.463  0.00  0.00    +0.000 N 
ATOM     12  C   UNL     1      45.457   4.817   9.351  0.00  0.00    +0.000 A 
ATOM     13  O   UNL     1      46.165   5.775   9.052  0.00  0.00    +0.000 OA
ATOM     14  C   UNL     1      44.840   4.634  10.652  0.00  0.00    +0.000 A 
ATOM     15  H   UNL     1      45.654   3.897   7.550  0.00  0.00    +0.000 HD
ENDBRANCH   2   5
BRANCH   3  16
ATOM     16  C   UNL     1      46.769   8.251  13.435  0.00  0.00    +0.000 C 
BRANCH  16  17
ATOM     17  C   UNL     1      48.145   8.018  13.982  0.00  0.00    +0.000 A 
ATOM     18  C   UNL     1      49.172   8.943  13.775  0.00  0.00    +0.000 A 
ATOM     19  C   UNL     1      50.432   8.708  14.317  0.00  0.00    +0.000 A 
ATOM     20  C   UNL     1      50.628   7.545  15.042  0.00  0.00    +0.000 A 
ATOM     21  N   UNL     1      49.671   6.614  15.241  0.00  0.00    +0.000 NA
ATOM     22  C   UNL     1      48.457   6.867  14.700  0.00  0.00    +0.000 A 
ENDBRANCH  16  17
ENDBRANCH   3  16
TORSDOF 3
ENDMDL
MODEL 8
REMARK VINA RESULT:    -5.722      3.414      6.048
REMARK INTER + INTRA:          -7.199
REMARK INTER:                  -6.714
REMARK INTRA:                  -0.486
REMARK UNBOUND:                -0.474
REMARK  Name = 
REMARK  3 active torsions:
REMARK  status: ('A' for Active; 'I' for Inactive)
REMARK    1  A    between atoms: C_2  and  C_11
REMARK    2  A    between atoms: N_3  and  C_4
REMARK    3  A    between atoms: C_4  and  C_5
REMARK                            x       y       z     vdW  Elec       q    Type
REMARK                         _______ _______ _______ _____ _____    ______ ____
ROOT
ATOM      1  O   UNL     1      45.180   8.035  11.411  0.00  0.00    +0.000 OA
ATOM      2  C   UNL     1      45.842   7.004  11.476  0.00  0.00    +0.000 C 
ATOM      3  N   UNL     1      46.995   6.910  12.214  0.00  0.00    +0.000 N 
ATOM      4  H   UNL     1      47.587   6.097  12.094  0.00  0.00    +0.000 HD
ENDROOT
BRANCH   2   5
ATOM      5  C   UNL     1      45.411   5.768  10.813  0.00  0.00    +0.000 A 
ATOM      6  C   UNL     1      45.752   5.536   9.488  0.00  0.00    +0.000 A 
ATOM      7  S   UNL     1      45.138   4.066   8.872  0.00  0.00    +0.000 S 
ATOM      8  C   UNL     1      44.437   3.666  10.369  0.00  0.00    +0.000 A 
ATOM      9  N   UNL     1      43.766   2.495  10.540  0.00  0.00    +0.000 NA
ATOM     10  C   UNL     1      43.329   2.299  11.739  0.00  0.00    +0.000 A 
ATOM     11  N   UNL     1      43.493   3.174  12.783  0.00  0.00    +0.000 N 
ATOM     12  C   UNL     1      44.085   4.404  12.635  0.00  0.00    +0.000 A 
ATOM     13  O   UNL     1      44.081   5.224  13.549  0.00  0.00    +0.000 OA
ATOM     14  C   UNL     1      44.645   4.652  11.319  0.00  0.00    +0.000 A 
ATOM     15  H   UNL     1      43.098   2.975  13.690  0.00  0.00    +0.000 HD
ENDBRANCH   2   5
BRANCH   3  16
ATOM     16  C   UNL     1      47.591   8.034  12.886  0.00  0.00    +0.000 C 
BRANCH  16  17
ATOM     17  C   UNL     1      48.837   8.500  12.196  0.00  0.00    +0.000 A 
ATOM     18  C   UNL     1      48.965   9.816  11.745  0.00  0.00    +0.000 A 
ATOM     19  C   UNL     1      50.145  10.223  11.130  0.00  0.00    +0.000 A 
ATOM     20  C   UNL     1      51.159   9.293  10.973  0.00  0.00    +0.000 A 
ATOM     21  N   UNL     1      51.064   8.005  11.369  0.00  0.00    +0.000 NA
ATOM     22  C   UNL     1      49.904   7.637  11.961  0.00  0.00    +0.000 A 
ENDBRANCH  16  17
ENDBRANCH   3  16
TORSDOF 3
ENDMDL
MODEL 9
REMARK VINA RESULT:    -5.645      4.648      6.268
REMARK INTER + INTRA:          -7.110
REMARK INTER:                  -6.462
REMARK INTRA:                  -0.648
REMARK UNBOUND:                -0.474
REMARK  Name = 
REMARK  3 active torsions:
REMARK  status: ('A' for Active; 'I' for Inactive)
REMARK    1  A    between atoms: C_2  and  C_11
REMARK    2  A    between atoms: N_3  and  C_4
REMARK    3  A    between atoms: C_4  and  C_5
REMARK                            x       y       z     vdW  Elec       q    Type
REMARK                         _______ _______ _______ _____ _____    ______ ____
ROOT
ATOM      1  O   UNL     1      47.346   3.170  14.162  0.00  0.00    +0.000 OA
ATOM      2  C   UNL     1      47.211   4.185  14.837  0.00  0.00    +0.000 C 
ATOM      3  N   UNL     1      46.471   5.261  14.416  0.00  0.00    +0.000 N 
ATOM      4  H   UNL     1      46.536   6.131  14.931  0.00  0.00    +0.000 HD
ENDROOT
BRANCH   2   5
ATOM      5  C   UNL     1      47.787   4.300  16.183  0.00  0.00    +0.000 A 
ATOM      6  C   UNL     1      47.411   3.407  17.177  0.00  0.00    +0.000 A 
ATOM      7  S   UNL     1      48.154   3.711  18.684  0.00  0.00    +0.000 S 
ATOM      8  C   UNL     1      49.041   5.015  18.047  0.00  0.00    +0.000 A 
ATOM      9  N   UNL     1      49.912   5.716  18.822  0.00  0.00    +0.000 NA
ATOM     10  C   UNL     1      50.554   6.647  18.197  0.00  0.00    +0.000 A 
ATOM     11  N   UNL     1      50.395   6.949  16.868  0.00  0.00    +0.000 N 
ATOM     12  C   UNL     1      49.464   6.328  16.072  0.00  0.00    +0.000 A 
ATOM     13  O   UNL     1      49.240   6.723  14.931  0.00  0.00    +0.000 OA
ATOM     14  C   UNL     1      48.755   5.234  16.710  0.00  0.00    +0.000 A 
ATOM     15  H   UNL     1      50.903   7.712  16.447  0.00  0.00    +0.000 HD
ENDBRANCH   2   5
BRANCH   3  16
ATOM     16  C   UNL     1      45.879   5.342  13.107  0.00  0.00    +0.000 C 
BRANCH  16  17
ATOM     17  C   UNL     1      45.704   6.763  12.661  0.00  0.00    +0.000 A 
ATOM     18  C   UNL     1      44.717   7.114  11.738  0.00  0.00    +0.000 A 
ATOM     19  C   UNL     1      44.565   8.446  11.363  0.00  0.00    +0.000 A 
ATOM     20  C   UNL     1      45.418   9.385  11.917  0.00  0.00    +0.000 A 
ATOM     21  N   UNL     1      46.403   9.083  12.790  0.00  0.00    +0.000 NA
ATOM     22  C   UNL     1      46.529   7.780  13.134  0.00  0.00    +0.000 A 
ENDBRANCH  16  17
ENDBRANCH   3  16
TORSDOF 3
ENDMDL
