MODEL 1
REMARK VINA RESULT:    -8.212      0.000      0.000
REMARK INTER + INTRA:         -12.522
REMARK INTER:                 -11.092
REMARK INTRA:                  -1.430
REMARK UNBOUND:                -1.430
REMARK  Name = 
REMARK  7 active torsions:
REMARK  status: ('A' for Active; 'I' for Inactive)
REMARK    1  A    between atoms: C_1  and  C_2
REMARK    2  A    between atoms: C_2  and  C_3
REMARK    3  A    between atoms: C_2  and  C_15
REMARK    4  A    between atoms: C_3  and  N_4
REMARK    5  A    between atoms: N_4  and  C_5
REMARK    6  A    between atoms: C_8  and  C_9
REMARK    7  A    between atoms: C_19  and  C_20
REMARK                            x       y       z     vdW  Elec       q    Type
REMARK                         _______ _______ _______ _____ _____    ______ ____
ROOT
ATOM      1  C   UNL     1      43.933   3.175  12.076  0.00  0.00    +0.000 C 
ENDROOT
BRANCH   1   3
ATOM      2  C   UNL     1      42.595   5.335  12.397  0.00  0.00    +0.000 C 
ATOM      3  C   UNL     1      43.705   4.429  12.945  0.00  0.00    +0.000 C 
BRANCH   3   4
ATOM      4  C   UNL     1      45.000   5.221  13.109  0.00  0.00    +0.000 A 
ATOM      5  C   UNL     1      46.129   4.595  13.649  0.00  0.00    +0.000 A 
ATOM      6  C   UNL     1      47.309   5.309  13.835  0.00  0.00    +0.000 A 
ATOM      7  C   UNL     1      47.385   6.651  13.459  0.00  0.00    +0.000 A 
ATOM      8  C   UNL     1      46.297   7.308  12.856  0.00  0.00    +0.000 A 
ATOM      9  C   UNL     1      45.102   6.573  12.718  0.00  0.00    +0.000 A 
BRANCH   8  10
ATOM     10  C   UNL     1      46.431   8.689  12.322  0.00  0.00    +0.000 A 
ATOM     11  C   UNL     1      45.300   9.518  12.180  0.00  0.00    +0.000 A 
ATOM     12  C   UNL     1      45.407  10.846  11.754  0.00  0.00    +0.000 A 
ATOM     13  C   UNL     1      46.654  11.383  11.464  0.00  0.00    +0.000 A 
ATOM     14  C   UNL     1      47.789  10.585  11.578  0.00  0.00    +0.000 A 
ATOM     15  C   UNL     1      47.677   9.252  11.992  0.00  0.00    +0.000 A 
ENDBRANCH   8  10
ENDBRANCH   3   4
ENDBRANCH   1   3
BRANCH   1  16
ATOM     16  N   UNL     1      43.549   3.391  10.673  0.00  0.00    +0.000 N 
ATOM     17  H   UNL     1      43.150   4.315  10.499  0.00  0.00    +0.000 HD
BRANCH  16  18
ATOM     18  C   UNL     1      44.535   3.135   9.699  0.00  0.00    +0.000 A 
ATOM     19  C   UNL     1      44.815   1.848   9.229  0.00  0.00    +0.000 A 
ATOM     20  C   UNL     1      45.772   1.632   8.229  0.00  0.00    +0.000 A 
ATOM     21  C   UNL     1      46.455   2.710   7.654  0.00  0.00    +0.000 A 
ATOM     22  C   UNL     1      46.151   4.007   8.078  0.00  0.00    +0.000 A 
ATOM     23  C   UNL     1      45.196   4.206   9.073  0.00  0.00    +0.000 A 
ATOM     24  F   UNL     1      44.927   5.462   9.468  0.00  0.00    +0.000 F 
BRANCH  21  25
ATOM     25  C   UNL     1      47.493   2.540   6.599  0.00  0.00    +0.000 C 
ATOM     26  N   UNL     1      47.359   3.233   5.426  0.00  0.00    +0.000 N 
ATOM     27  O   UNL     1      48.448   1.790   6.760  0.00  0.00    +0.000 OA
ATOM     28  H   UNL     1      46.601   3.852   5.191  0.00  0.00    +0.000 HD
ATOM     29  H   UNL     1      48.076   3.083   4.728  0.00  0.00    +0.000 HD
ENDBRANCH  21  25
ENDBRANCH  16  18
ENDBRANCH   1  16
TORSDOF 6
ENDMDL
MODEL 2
REMARK VINA RESULT:    -8.125      2.010      3.974
REMARK INTER + INTRA:         -12.404
REMARK INTER:                 -11.129
REMARK INTRA:                  -1.276
REMARK UNBOUND:                -1.430
REMARK  Name = 
REMARK  7 active torsions:
REMARK  status: ('A' for Active; 'I' for Inactive)
REMARK    1  A    between atoms: C_1  and  C_2
REMARK    2  A    between atoms: C_2  and  C_3
REMARK    3  A    between atoms: C_2  and  C_15
REMARK    4  A    between atoms: C_3  and  N_4
REMARK    5  A    between atoms: N_4  and  C_5
REMARK    6  A    between atoms: C_8  and  C_9
REMARK    7  A    between atoms: C_19  and  C_20
REMARK                            x       y       z     vdW  Elec       q    Type
REMARK                         _______ _______ _______ _____ _____    ______ ____
ROOT
ATOM      1  C   UNL     1      43.925   3.192  11.609  0.00  0.00    +0.000 C 
ENDROOT
BRANCH   1   3
ATOM      2  C   UNL     1      42.942   5.548  11.805  0.00  0.00    +0.000 C 
ATOM      3  C   UNL     1      43.800   4.466  12.471  0.00  0.00    +0.000 C 
BRANCH   3   4
ATOM      4  C   UNL     1      45.178   5.025  12.820  0.00  0.00    +0.000 A 
ATOM      5  C   UNL     1      45.783   5.954  11.966  0.00  0.00    +0.000 A 
ATOM      6  C   UNL     1      47.051   6.450  12.251  0.00  0.00    +0.000 A 
ATOM      7  C   UNL     1      47.720   6.047  13.409  0.00  0.00    +0.000 A 
ATOM      8  C   UNL     1      47.129   5.163  14.329  0.00  0.00    +0.000 A 
ATOM      9  C   UNL     1      45.862   4.643  13.994  0.00  0.00    +0.000 A 
BRANCH   8  10
ATOM     10  C   UNL     1      47.781   4.854  15.628  0.00  0.00    +0.000 A 
ATOM     11  C   UNL     1      47.600   3.599  16.244  0.00  0.00    +0.000 A 
ATOM     12  C   UNL     1      48.262   3.254  17.426  0.00  0.00    +0.000 A 
ATOM     13  C   UNL     1      49.131   4.158  18.023  0.00  0.00    +0.000 A 
ATOM     14  C   UNL     1      49.319   5.412  17.450  0.00  0.00    +0.000 A 
ATOM     15  C   UNL     1      48.643   5.759  16.272  0.00  0.00    +0.000 A 
ENDBRANCH   8  10
ENDBRANCH   3   4
ENDBRANCH   1   3
BRANCH   1  16
ATOM     16  N   UNL     1      43.720   3.464  10.178  0.00  0.00    +0.000 N 
ATOM     17  H   UNL     1      43.497   4.440   9.979  0.00  0.00    +0.000 HD
BRANCH  16  18
ATOM     18  C   UNL     1      44.741   3.045   9.301  0.00  0.00    +0.000 A 
ATOM     19  C   UNL     1      45.009   1.697   9.044  0.00  0.00    +0.000 A 
ATOM     20  C   UNL     1      46.003   1.316   8.133  0.00  0.00    +0.000 A 
ATOM     21  C   UNL     1      46.737   2.282   7.436  0.00  0.00    +0.000 A 
ATOM     22  C   UNL     1      46.448   3.633   7.646  0.00  0.00    +0.000 A 
ATOM     23  C   UNL     1      45.457   3.997   8.554  0.00  0.00    +0.000 A 
ATOM     24  F   UNL     1      45.203   5.303   8.744  0.00  0.00    +0.000 F 
BRANCH  21  25
ATOM     25  C   UNL     1      47.816   1.935   6.468  0.00  0.00    +0.000 C 
ATOM     26  N   UNL     1      48.851   2.814   6.295  0.00  0.00    +0.000 N 
ATOM     27  O   UNL     1      47.785   0.893   5.825  0.00  0.00    +0.000 OA
ATOM     28  H   UNL     1      48.953   3.702   6.757  0.00  0.00    +0.000 HD
ATOM     29  H   UNL     1      49.559   2.551   5.621  0.00  0.00    +0.000 HD
ENDBRANCH  21  25
ENDBRANCH  16  18
ENDBRANCH   1  16
TORSDOF 6
ENDMDL
MODEL 3
REMARK VINA RESULT:    -7.818      3.445      7.404
REMARK INTER + INTRA:         -11.991
REMARK INTER:                 -10.568
REMARK INTRA:                  -1.422
REMARK UNBOUND:                -1.430
REMARK  Name = 
REMARK  7 active torsions:
REMARK  status: ('A' for Active; 'I' for Inactive)
REMARK    1  A    between atoms: C_1  and  C_2
REMARK    2  A    between atoms: C_2  and  C_3
REMARK    3  A    between atoms: C_2  and  C_15
REMARK    4  A    between atoms: C_3  and  N_4
REMARK    5  A    between atoms: N_4  and  C_5
REMARK    6  A    between atoms: C_8  and  C_9
REMARK    7  A    between atoms: C_19  and  C_20
REMARK                            x       y       z     vdW  Elec       q    Type
REMARK                         _______ _______ _______ _____ _____    ______ ____
ROOT
ATOM      1  C   UNL     1      46.192   7.730  12.805  0.00  0.00    +0.000 C 
ENDROOT
BRANCH   1   3
ATOM      2  C   UNL     1      44.404   8.903  11.397  0.00  0.00    +0.000 C 
ATOM      3  C   UNL     1      45.472   7.804  11.442  0.00  0.00    +0.000 C 
BRANCH   3   4
ATOM      4  C   UNL     1      44.857   6.455  11.077  0.00  0.00    +0.000 A 
ATOM      5  C   UNL     1      43.614   6.095  11.608  0.00  0.00    +0.000 A 
ATOM      6  C   UNL     1      43.052   4.858  11.311  0.00  0.00    +0.000 A 
ATOM      7  C   UNL     1      43.713   3.973  10.456  0.00  0.00    +0.000 A 
ATOM      8  C   UNL     1      44.935   4.313   9.849  0.00  0.00    +0.000 A 
ATOM      9  C   UNL     1      45.501   5.555  10.200  0.00  0.00    +0.000 A 
BRANCH   8  10
ATOM     10  C   UNL     1      45.559   3.432   8.826  0.00  0.00    +0.000 A 
ATOM     11  C   UNL     1      46.229   3.983   7.715  0.00  0.00    +0.000 A 
ATOM     12  C   UNL     1      46.890   3.180   6.780  0.00  0.00    +0.000 A 
ATOM     13  C   UNL     1      46.903   1.801   6.936  0.00  0.00    +0.000 A 
ATOM     14  C   UNL     1      46.236   1.225   8.013  0.00  0.00    +0.000 A 
ATOM     15  C   UNL     1      45.563   2.031   8.941  0.00  0.00    +0.000 A 
ENDBRANCH   8  10
ENDBRANCH   3   4
ENDBRANCH   1   3
BRANCH   1  16
ATOM     16  N   UNL     1      47.331   6.800  12.784  0.00  0.00    +0.000 N 
ATOM     17  H   UNL     1      48.212   7.243  12.519  0.00  0.00    +0.000 HD
BRANCH  16  18
ATOM     18  C   UNL     1      47.543   6.032  13.948  0.00  0.00    +0.000 A 
ATOM     19  C   UNL     1      48.323   6.483  15.017  0.00  0.00    +0.000 A 
ATOM     20  C   UNL     1      48.479   5.712  16.177  0.00  0.00    +0.000 A 
ATOM     21  C   UNL     1      47.831   4.478  16.303  0.00  0.00    +0.000 A 
ATOM     22  C   UNL     1      47.008   4.037  15.263  0.00  0.00    +0.000 A 
ATOM     23  C   UNL     1      46.862   4.814  14.116  0.00  0.00    +0.000 A 
ATOM     24  F   UNL     1      46.071   4.364  13.127  0.00  0.00    +0.000 F 
BRANCH  21  25
ATOM     25  C   UNL     1      47.972   3.610  17.506  0.00  0.00    +0.000 C 
ATOM     26  N   UNL     1      46.985   2.703  17.782  0.00  0.00    +0.000 N 
ATOM     27  O   UNL     1      48.943   3.702  18.248  0.00  0.00    +0.000 OA
ATOM     28  H   UNL     1      46.142   2.570  17.248  0.00  0.00    +0.000 HD
ATOM     29  H   UNL     1      47.109   2.139  18.613  0.00  0.00    +0.000 HD
ENDBRANCH  21  25
ENDBRANCH  16  18
ENDBRANCH   1  16
TORSDOF 6
ENDMDL
MODEL 4
REMARK VINA RESULT:    -7.059      4.178      7.728
REMARK INTER + INTRA:         -10.966
REMARK INTER:                  -9.505
REMARK INTRA:                  -1.461
REMARK UNBOUND:                -1.430
REMARK  Name = 
REMARK  7 active torsions:
REMARK  status: ('A' for Active; 'I' for Inactive)
REMARK    1  A    between atoms: C_1  and  C_2
REMARK    2  A    between atoms: C_2  and  C_3
REMARK    3  A    between atoms: C_2  and  C_15
REMARK    4  A    between atoms: C_3  and  N_4
REMARK    5  A    between atoms: N_4  and  C_5
REMARK    6  A    between atoms: C_8  and  C_9
REMARK    7  A    between atoms: C_19  and  C_20
REMARK                            x       y       z     vdW  Elec       q    Type
REMARK                         _______ _______ _______ _____ _____    ______ ____
ROOT
ATOM      1  C   UNL     1      49.572   7.357  12.982  0.00  0.00    +0.000 C 
ENDROOT
BRANCH   1   3
ATOM      2  C   UNL     1      48.925   9.720  12.237  0.00  0.00    +0.000 C 
ATOM      3  C   UNL     1      48.823   8.218  11.945  0.00  0.00    +0.000 C 
BRANCH   3   4
ATOM      4  C   UNL     1      47.358   7.798  11.844  0.00  0.00    +0.000 A 
ATOM      5  C   UNL     1      46.362   8.634  12.363  0.00  0.00    +0.000 A 
ATOM      6  C   UNL     1      45.025   8.253  12.308  0.00  0.00    +0.000 A 
ATOM      7  C   UNL     1      44.662   7.046  11.708  0.00  0.00    +0.000 A 
ATOM      8  C   UNL     1      45.618   6.202  11.117  0.00  0.00    +0.000 A 
ATOM      9  C   UNL     1      46.969   6.591  11.224  0.00  0.00    +0.000 A 
BRANCH   8  10
ATOM     10  C   UNL     1      45.212   4.995  10.351  0.00  0.00    +0.000 A 
ATOM     11  C   UNL     1      45.589   4.840   9.001  0.00  0.00    +0.000 A 
ATOM     12  C   UNL     1      45.287   3.681   8.279  0.00  0.00    +0.000 A 
ATOM     13  C   UNL     1      44.603   2.640   8.893  0.00  0.00    +0.000 A 
ATOM     14  C   UNL     1      44.201   2.769  10.219  0.00  0.00    +0.000 A 
ATOM     15  C   UNL     1      44.494   3.937  10.935  0.00  0.00    +0.000 A 
ENDBRANCH   8  10
ENDBRANCH   3   4
ENDBRANCH   1   3
BRANCH   1  16
ATOM     16  N   UNL     1      49.199   7.697  14.363  0.00  0.00    +0.000 N 
ATOM     17  H   UNL     1      48.535   8.470  14.426  0.00  0.00    +0.000 HD
BRANCH  16  18
ATOM     18  C   UNL     1      48.740   6.640  15.175  0.00  0.00    +0.000 A 
ATOM     19  C   UNL     1      47.785   5.716  14.741  0.00  0.00    +0.000 A 
ATOM     20  C   UNL     1      47.382   4.651  15.558  0.00  0.00    +0.000 A 
ATOM     21  C   UNL     1      47.951   4.471  16.824  0.00  0.00    +0.000 A 
ATOM     22  C   UNL     1      48.943   5.358  17.252  0.00  0.00    +0.000 A 
ATOM     23  C   UNL     1      49.333   6.412  16.429  0.00  0.00    +0.000 A 
ATOM     24  F   UNL     1      50.283   7.255  16.867  0.00  0.00    +0.000 F 
BRANCH  21  25
ATOM     25  C   UNL     1      47.550   3.367  17.741  0.00  0.00    +0.000 C 
ATOM     26  N   UNL     1      48.320   3.116  18.844  0.00  0.00    +0.000 N 
ATOM     27  O   UNL     1      46.560   2.681  17.518  0.00  0.00    +0.000 OA
ATOM     28  H   UNL     1      49.161   3.607  19.099  0.00  0.00    +0.000 HD
ATOM     29  H   UNL     1      48.024   2.351  19.437  0.00  0.00    +0.000 HD
ENDBRANCH  21  25
ENDBRANCH  16  18
ENDBRANCH   1  16
TORSDOF 6
ENDMDL
MODEL 5
REMARK VINA RESULT:    -6.928      4.713      7.955
REMARK INTER + INTRA:         -10.788
REMARK INTER:                  -9.677
REMARK INTRA:                  -1.112
REMARK UNBOUND:                -1.430
REMARK  Name = 
REMARK  7 active torsions:
REMARK  status: ('A' for Active; 'I' for Inactive)
REMARK    1  A    between atoms: C_1  and  C_2
REMARK    2  A    between atoms: C_2  and  C_3
REMARK    3  A    between atoms: C_2  and  C_15
REMARK    4  A    between atoms: C_3  and  N_4
REMARK    5  A    between atoms: N_4  and  C_5
REMARK    6  A    between atoms: C_8  and  C_9
REMARK    7  A    between atoms: C_19  and  C_20
REMARK                            x       y       z     vdW  Elec       q    Type
REMARK                         _______ _______ _______ _____ _____    ______ ____
ROOT
ATOM      1  C   UNL     1      48.708   7.558  15.432  0.00  0.00    +0.000 C 
ENDROOT
BRANCH   1   3
ATOM      2  C   UNL     1      49.935   7.710  13.190  0.00  0.00    +0.000 C 
ATOM      3  C   UNL     1      48.824   7.021  13.990  0.00  0.00    +0.000 C 
BRANCH   3   4
ATOM      4  C   UNL     1      47.491   7.140  13.255  0.00  0.00    +0.000 A 
ATOM      5  C   UNL     1      46.750   8.323  13.355  0.00  0.00    +0.000 A 
ATOM      6  C   UNL     1      45.519   8.439  12.718  0.00  0.00    +0.000 A 
ATOM      7  C   UNL     1      45.024   7.385  11.948  0.00  0.00    +0.000 A 
ATOM      8  C   UNL     1      45.758   6.200  11.766  0.00  0.00    +0.000 A 
ATOM      9  C   UNL     1      46.982   6.093  12.457  0.00  0.00    +0.000 A 
BRANCH   8  10
ATOM     10  C   UNL     1      45.297   5.144  10.827  0.00  0.00    +0.000 A 
ATOM     11  C   UNL     1      45.628   5.204   9.458  0.00  0.00    +0.000 A 
ATOM     12  C   UNL     1      45.274   4.185   8.568  0.00  0.00    +0.000 A 
ATOM     13  C   UNL     1      44.581   3.073   9.027  0.00  0.00    +0.000 A 
ATOM     14  C   UNL     1      44.224   2.992  10.370  0.00  0.00    +0.000 A 
ATOM     15  C   UNL     1      44.569   4.020  11.256  0.00  0.00    +0.000 A 
ENDBRANCH   8  10
ENDBRANCH   3   4
ENDBRANCH   1   3
BRANCH   1  16
ATOM     16  N   UNL     1      48.169   6.553  16.360  0.00  0.00    +0.000 N 
ATOM     17  H   UNL     1      47.259   6.186  16.077  0.00  0.00    +0.000 HD
BRANCH  16  18
ATOM     18  C   UNL     1      49.013   5.470  16.682  0.00  0.00    +0.000 A 
ATOM     19  C   UNL     1      50.352   5.639  17.045  0.00  0.00    +0.000 A 
ATOM     20  C   UNL     1      51.151   4.544  17.400  0.00  0.00    +0.000 A 
ATOM     21  C   UNL     1      50.616   3.252  17.427  0.00  0.00    +0.000 A 
ATOM     22  C   UNL     1      49.266   3.072  17.113  0.00  0.00    +0.000 A 
ATOM     23  C   UNL     1      48.483   4.170  16.762  0.00  0.00    +0.000 A 
ATOM     24  F   UNL     1      47.190   3.970  16.458  0.00  0.00    +0.000 F 
BRANCH  21  25
ATOM     25  C   UNL     1      51.422   2.050  17.781  0.00  0.00    +0.000 C 
ATOM     26  N   UNL     1      52.536   2.211  18.560  0.00  0.00    +0.000 N 
ATOM     27  O   UNL     1      51.112   0.934  17.382  0.00  0.00    +0.000 OA
ATOM     28  H   UNL     1      52.884   3.086  18.916  0.00  0.00    +0.000 HD
ATOM     29  H   UNL     1      53.065   1.374  18.770  0.00  0.00    +0.000 HD
ENDBRANCH  21  25
ENDBRANCH  16  18
ENDBRANCH   1  16
TORSDOF 6
ENDMDL
MODEL 6
REMARK VINA RESULT:    -6.685      4.694      7.468
REMARK INTER + INTRA:         -10.460
REMARK INTER:                  -9.375
REMARK INTRA:                  -1.085
REMARK UNBOUND:                -1.430
REMARK  Name = 
REMARK  7 active torsions:
REMARK  status: ('A' for Active; 'I' for Inactive)
REMARK    1  A    between atoms: C_1  and  C_2
REMARK    2  A    between atoms: C_2  and  C_3
REMARK    3  A    between atoms: C_2  and  C_15
REMARK    4  A    between atoms: C_3  and  N_4
REMARK    5  A    between atoms: N_4  and  C_5
REMARK    6  A    between atoms: C_8  and  C_9
REMARK    7  A    between atoms: C_19  and  C_20
REMARK                            x       y       z     vdW  Elec       q    Type
REMARK                         _______ _______ _______ _____ _____    ______ ____
ROOT
ATOM      1  C   UNL     1      48.512   6.675  14.509  0.00  0.00    +0.000 C 
ENDROOT
BRANCH   1   3
ATOM      2  C   UNL     1      49.707   7.615  16.569  0.00  0.00    +0.000 C 
ATOM      3  C   UNL     1      48.552   6.750  16.049  0.00  0.00    +0.000 C 
BRANCH   3   4
ATOM      4  C   UNL     1      48.622   5.353  16.661  0.00  0.00    +0.000 A 
ATOM      5  C   UNL     1      47.441   4.634  16.877  0.00  0.00    +0.000 A 
ATOM      6  C   UNL     1      47.482   3.372  17.462  0.00  0.00    +0.000 A 
ATOM      7  C   UNL     1      48.706   2.800  17.814  0.00  0.00    +0.000 A 
ATOM      8  C   UNL     1      49.924   3.456  17.562  0.00  0.00    +0.000 A 
ATOM      9  C   UNL     1      49.850   4.750  17.006  0.00  0.00    +0.000 A 
BRANCH   8  10
ATOM     10  C   UNL     1      51.226   2.781  17.800  0.00  0.00    +0.000 A 
ATOM     11  C   UNL     1      51.420   1.436  17.424  0.00  0.00    +0.000 A 
ATOM     12  C   UNL     1      52.657   0.801  17.565  0.00  0.00    +0.000 A 
ATOM     13  C   UNL     1      53.740   1.500  18.082  0.00  0.00    +0.000 A 
ATOM     14  C   UNL     1      53.578   2.824  18.478  0.00  0.00    +0.000 A 
ATOM     15  C   UNL     1      52.333   3.453  18.348  0.00  0.00    +0.000 A 
ENDBRANCH   8  10
ENDBRANCH   3   4
ENDBRANCH   1   3
BRANCH   1  16
ATOM     16  N   UNL     1      47.186   7.012  13.969  0.00  0.00    +0.000 N 
ATOM     17  H   UNL     1      47.177   7.877  13.425  0.00  0.00    +0.000 HD
BRANCH  16  18
ATOM     18  C   UNL     1      46.527   6.007  13.231  0.00  0.00    +0.000 A 
ATOM     19  C   UNL     1      46.439   4.684  13.672  0.00  0.00    +0.000 A 
ATOM     20  C   UNL     1      45.740   3.718  12.935  0.00  0.00    +0.000 A 
ATOM     21  C   UNL     1      45.087   4.066  11.747  0.00  0.00    +0.000 A 
ATOM     22  C   UNL     1      45.125   5.396  11.318  0.00  0.00    +0.000 A 
ATOM     23  C   UNL     1      45.824   6.344  12.062  0.00  0.00    +0.000 A 
ATOM     24  F   UNL     1      45.851   7.615  11.625  0.00  0.00    +0.000 F 
BRANCH  21  25
ATOM     25  C   UNL     1      44.343   3.079  10.915  0.00  0.00    +0.000 C 
ATOM     26  N   UNL     1      45.018   2.404   9.934  0.00  0.00    +0.000 N 
ATOM     27  O   UNL     1      43.147   2.874  11.087  0.00  0.00    +0.000 OA
ATOM     28  H   UNL     1      45.990   2.520   9.702  0.00  0.00    +0.000 HD
ATOM     29  H   UNL     1      44.477   1.751   9.381  0.00  0.00    +0.000 HD
ENDBRANCH  21  25
ENDBRANCH  16  18
ENDBRANCH   1  16
TORSDOF 6
ENDMDL
MODEL 7
REMARK VINA RESULT:    -6.683      3.710      6.514
REMARK INTER + INTRA:         -10.458
REMARK INTER:                  -9.130
REMARK INTRA:                  -1.327
REMARK UNBOUND:                -1.430
REMARK  Name = 
REMARK  7 active torsions:
REMARK  status: ('A' for Active; 'I' for Inactive)
REMARK    1  A    between atoms: C_1  and  C_2
REMARK    2  A    between atoms: C_2  and  C_3
REMARK    3  A    between atoms: C_2  and  C_15
REMARK    4  A    between atoms: C_3  and  N_4
REMARK    5  A    between atoms: N_4  and  C_5
REMARK    6  A    between atoms: C_8  and  C_9
REMARK    7  A    between atoms: C_19  and  C_20
REMARK                            x       y       z     vdW  Elec       q    Type
REMARK                         _______ _______ _______ _____ _____    ______ ____
ROOT
ATOM      1  C   UNL     1      47.600   7.795  12.992  0.00  0.00    +0.000 C 
ENDROOT
BRANCH   1   3
ATOM      2  C   UNL     1      49.533   9.439  13.332  0.00  0.00    +0.000 C 
ATOM      3  C   UNL     1      48.226   8.873  13.900  0.00  0.00    +0.000 C 
BRANCH   3   4
ATOM      4  C   UNL     1      48.453   8.333  15.311  0.00  0.00    +0.000 A 
ATOM      5  C   UNL     1      48.223   9.163  16.413  0.00  0.00    +0.000 A 
ATOM      6  C   UNL     1      48.454   8.699  17.704  0.00  0.00    +0.000 A 
ATOM      7  C   UNL     1      48.892   7.390  17.912  0.00  0.00    +0.000 A 
ATOM      8  C   UNL     1      49.079   6.498  16.841  0.00  0.00    +0.000 A 
ATOM      9  C   UNL     1      48.877   7.007  15.542  0.00  0.00    +0.000 A 
BRANCH   8  10
ATOM     10  C   UNL     1      49.399   5.066  17.077  0.00  0.00    +0.000 A 
ATOM     11  C   UNL     1      48.424   4.068  16.875  0.00  0.00    +0.000 A 
ATOM     12  C   UNL     1      48.720   2.708  17.014  0.00  0.00    +0.000 A 
ATOM     13  C   UNL     1      50.006   2.310  17.356  0.00  0.00    +0.000 A 
ATOM     14  C   UNL     1      50.987   3.271  17.580  0.00  0.00    +0.000 A 
ATOM     15  C   UNL     1      50.683   4.633  17.452  0.00  0.00    +0.000 A 
ENDBRANCH   8  10
ENDBRANCH   3   4
ENDBRANCH   1   3
BRANCH   1  16
ATOM     16  N   UNL     1      46.185   7.551  13.310  0.00  0.00    +0.000 N 
ATOM     17  H   UNL     1      45.585   8.360  13.142  0.00  0.00    +0.000 HD
BRANCH  16  18
ATOM     18  C   UNL     1      45.589   6.416  12.722  0.00  0.00    +0.000 A 
ATOM     19  C   UNL     1      44.943   6.460  11.483  0.00  0.00    +0.000 A 
ATOM     20  C   UNL     1      44.399   5.304  10.907  0.00  0.00    +0.000 A 
ATOM     21  C   UNL     1      44.516   4.067  11.550  0.00  0.00    +0.000 A 
ATOM     22  C   UNL     1      45.202   3.998  12.766  0.00  0.00    +0.000 A 
ATOM     23  C   UNL     1      45.737   5.155  13.326  0.00  0.00    +0.000 A 
ATOM     24  F   UNL     1      46.386   5.064  14.499  0.00  0.00    +0.000 F 
BRANCH  21  25
ATOM     25  C   UNL     1      43.944   2.809  10.992  0.00  0.00    +0.000 C 
ATOM     26  N   UNL     1      44.522   2.261   9.880  0.00  0.00    +0.000 N 
ATOM     27  O   UNL     1      42.969   2.271  11.503  0.00  0.00    +0.000 OA
ATOM     28  H   UNL     1      45.307   2.639   9.377  0.00  0.00    +0.000 HD
ATOM     29  H   UNL     1      44.099   1.413   9.522  0.00  0.00    +0.000 HD
ENDBRANCH  21  25
ENDBRANCH  16  18
ENDBRANCH   1  16
TORSDOF 6
ENDMDL
MODEL 8
REMARK VINA RESULT:    -6.470      2.956      5.499
REMARK INTER + INTRA:         -10.170
REMARK INTER:                  -8.303
REMARK INTRA:                  -1.866
REMARK UNBOUND:                -1.430
REMARK  Name = 
REMARK  7 active torsions:
REMARK  status: ('A' for Active; 'I' for Inactive)
REMARK    1  A    between atoms: C_1  and  C_2
REMARK    2  A    between atoms: C_2  and  C_3
REMARK    3  A    between atoms: C_2  and  C_15
REMARK    4  A    between atoms: C_3  and  N_4
REMARK    5  A    between atoms: N_4  and  C_5
REMARK    6  A    between atoms: C_8  and  C_9
REMARK    7  A    between atoms: C_19  and  C_20
REMARK                            x       y       z     vdW  Elec       q    Type
REMARK                         _______ _______ _______ _____ _____    ______ ____
ROOT
ATOM      1  C   UNL     1      44.713   9.321  12.159  0.00  0.00    +0.000 C 
ENDROOT
BRANCH   1   3
ATOM      2  C   UNL     1      46.412  10.951  11.153  0.00  0.00    +0.000 C 
ATOM      3  C   UNL     1      46.076  10.025  12.327  0.00  0.00    +0.000 C 
BRANCH   3   4
ATOM      4  C   UNL     1      47.195   9.005  12.533  0.00  0.00    +0.000 A 
ATOM      5  C   UNL     1      48.337   9.062  11.727  0.00  0.00    +0.000 A 
ATOM      6  C   UNL     1      49.353   8.123  11.879  0.00  0.00    +0.000 A 
ATOM      7  C   UNL     1      49.252   7.131  12.857  0.00  0.00    +0.000 A 
ATOM      8  C   UNL     1      48.153   7.070  13.731  0.00  0.00    +0.000 A 
ATOM      9  C   UNL     1      47.120   8.007  13.528  0.00  0.00    +0.000 A 
BRANCH   8  10
ATOM     10  C   UNL     1      48.122   6.108  14.864  0.00  0.00    +0.000 A 
ATOM     11  C   UNL     1      47.318   4.951  14.803  0.00  0.00    +0.000 A 
ATOM     12  C   UNL     1      47.329   3.991  15.820  0.00  0.00    +0.000 A 
ATOM     13  C   UNL     1      48.153   4.161  16.925  0.00  0.00    +0.000 A 
ATOM     14  C   UNL     1      48.945   5.300  17.023  0.00  0.00    +0.000 A 
ATOM     15  C   UNL     1      48.922   6.266  16.009  0.00  0.00    +0.000 A 
ENDBRANCH   8  10
ENDBRANCH   3   4
ENDBRANCH   1   3
BRANCH   1  16
ATOM     16  N   UNL     1      44.673   8.461  10.968  0.00  0.00    +0.000 N 
ATOM     17  H   UNL     1      45.506   8.538  10.382  0.00  0.00    +0.000 HD
BRANCH  16  18
ATOM     18  C   UNL     1      44.397   7.095  11.181  0.00  0.00    +0.000 A 
ATOM     19  C   UNL     1      43.116   6.622  11.482  0.00  0.00    +0.000 A 
ATOM     20  C   UNL     1      42.867   5.253  11.647  0.00  0.00    +0.000 A 
ATOM     21  C   UNL     1      43.897   4.319  11.485  0.00  0.00    +0.000 A 
ATOM     22  C   UNL     1      45.172   4.772  11.135  0.00  0.00    +0.000 A 
ATOM     23  C   UNL     1      45.404   6.136  10.975  0.00  0.00    +0.000 A 
ATOM     24  F   UNL     1      46.641   6.546  10.646  0.00  0.00    +0.000 F 
BRANCH  21  25
ATOM     25  C   UNL     1      43.694   2.853  11.662  0.00  0.00    +0.000 C 
ATOM     26  N   UNL     1      43.941   2.023  10.603  0.00  0.00    +0.000 N 
ATOM     27  O   UNL     1      43.304   2.388  12.727  0.00  0.00    +0.000 OA
ATOM     28  H   UNL     1      44.240   2.310   9.686  0.00  0.00    +0.000 HD
ATOM     29  H   UNL     1      43.781   1.035  10.757  0.00  0.00    +0.000 HD
ENDBRANCH  21  25
ENDBRANCH  16  18
ENDBRANCH   1  16
TORSDOF 6
ENDMDL
MODEL 9
REMARK VINA RESULT:    -6.305      3.725      6.725
REMARK INTER + INTRA:          -9.947
REMARK INTER:                  -8.459
REMARK INTRA:                  -1.488
REMARK UNBOUND:                -1.430
REMARK  Name = 
REMARK  7 active torsions:
REMARK  status: ('A' for Active; 'I' for Inactive)
REMARK    1  A    between atoms: C_1  and  C_2
REMARK    2  A    between atoms: C_2  and  C_3
REMARK    3  A    between atoms: C_2  and  C_15
REMARK    4  A    between atoms: C_3  and  N_4
REMARK    5  A    between atoms: N_4  and  C_5
REMARK    6  A    between atoms: C_8  and  C_9
REMARK    7  A    between atoms: C_19  and  C_20
REMARK                            x       y       z     vdW  Elec       q    Type
REMARK                         _______ _______ _______ _____ _____    ______ ____
ROOT
ATOM      1  C   UNL     1      48.494   8.460  13.243  0.00  0.00    +0.000 C 
ENDROOT
BRANCH   1   3
ATOM      2  C   UNL     1      49.809  10.330  14.396  0.00  0.00    +0.000 C 
ATOM      3  C   UNL     1      48.566   9.433  14.438  0.00  0.00    +0.000 C 
BRANCH   3   4
ATOM      4  C   UNL     1      48.506   8.675  15.762  0.00  0.00    +0.000 A 
ATOM      5  C   UNL     1      48.074   9.336  16.918  0.00  0.00    +0.000 A 
ATOM      6  C   UNL     1      48.042   8.670  18.139  0.00  0.00    +0.000 A 
ATOM      7  C   UNL     1      48.415   7.327  18.217  0.00  0.00    +0.000 A 
ATOM      8  C   UNL     1      48.798   6.603  17.075  0.00  0.00    +0.000 A 
ATOM      9  C   UNL     1      48.861   7.312  15.859  0.00  0.00    +0.000 A 
BRANCH   8  10
ATOM     10  C   UNL     1      49.049   5.139  17.139  0.00  0.00    +0.000 A 
ATOM     11  C   UNL     1      48.064   4.221  16.720  0.00  0.00    +0.000 A 
ATOM     12  C   UNL     1      48.302   2.844  16.696  0.00  0.00    +0.000 A 
ATOM     13  C   UNL     1      49.538   2.346  17.087  0.00  0.00    +0.000 A 
ATOM     14  C   UNL     1      50.526   3.225  17.522  0.00  0.00    +0.000 A 
ATOM     15  C   UNL     1      50.280   4.603  17.557  0.00  0.00    +0.000 A 
ENDBRANCH   8  10
ENDBRANCH   3   4
ENDBRANCH   1   3
BRANCH   1  16
ATOM     16  N   UNL     1      47.153   8.413  12.642  0.00  0.00    +0.000 N 
ATOM     17  H   UNL     1      47.092   8.898  11.746  0.00  0.00    +0.000 HD
BRANCH  16  18
ATOM     18  C   UNL     1      46.563   7.139  12.508  0.00  0.00    +0.000 A 
ATOM     19  C   UNL     1      47.014   6.021  13.214  0.00  0.00    +0.000 A 
ATOM     20  C   UNL     1      46.377   4.778  13.089  0.00  0.00    +0.000 A 
ATOM     21  C   UNL     1      45.251   4.635  12.271  0.00  0.00    +0.000 A 
ATOM     22  C   UNL     1      44.758   5.756  11.596  0.00  0.00    +0.000 A 
ATOM     23  C   UNL     1      45.402   6.984  11.730  0.00  0.00    +0.000 A 
ATOM     24  F   UNL     1      44.912   8.045  11.066  0.00  0.00    +0.000 F 
BRANCH  21  25
ATOM     25  C   UNL     1      44.544   3.337  12.088  0.00  0.00    +0.000 C 
ATOM     26  N   UNL     1      44.784   2.612  10.952  0.00  0.00    +0.000 N 
ATOM     27  O   UNL     1      43.753   2.919  12.925  0.00  0.00    +0.000 OA
ATOM     28  H   UNL     1      45.396   2.881  10.200  0.00  0.00    +0.000 HD
ATOM     29  H   UNL     1      44.276   1.741  10.857  0.00  0.00    +0.000 HD
ENDBRANCH  21  25
ENDBRANCH  16  18
ENDBRANCH   1  16
TORSDOF 6
ENDMDL
