MODEL 1
REMARK VINA RESULT:    -8.490      0.000      0.000
REMARK INTER + INTRA:         -11.377
REMARK INTER:                 -10.972
REMARK INTRA:                  -0.405
REMARK UNBOUND:                -0.405
REMARK  Name = 
REMARK  5 active torsions:
REMARK  status: ('A' for Active; 'I' for Inactive)
REMARK    1  A    between atoms: C_2  and  C_18
REMARK    2  A    between atoms: N_3  and  C_4
REMARK    3  A    between atoms: C_4  and  C_5
REMARK    4  A    between atoms: C_8  and  C_9
REMARK    5  A    between atoms: C_9  and  C_10
REMARK                            x       y       z     vdW  Elec       q    Type
REMARK                         _______ _______ _______ _____ _____    ______ ____
ROOT
ATOM      1  O   UNL     1      48.664   6.887  12.779  0.00  0.00    +0.000 OA
ATOM      2  C   UNL     1      47.936   6.707  13.751  0.00  0.00    +0.000 C 
ATOM      3  N   UNL     1      46.573   6.834  13.684  0.00  0.00    +0.000 N 
ATOM      4  H   UNL     1      46.035   6.843  14.543  0.00  0.00    +0.000 HD
ENDROOT
BRANCH   2   5
ATOM      5  C   UNL     1      48.481   6.291  15.049  0.00  0.00    +0.000 A 
ATOM      6  C   UNL     1      49.472   7.047  15.656  0.00  0.00    +0.000 A 
ATOM      7  S   UNL     1      49.974   6.428  17.164  0.00  0.00    +0.000 S 
ATOM      8  C   UNL     1      48.855   5.149  17.073  0.00  0.00    +0.000 A 
ATOM      9  N   UNL     1      48.727   4.254  18.089  0.00  0.00    +0.000 NA
ATOM     10  C   UNL     1      47.811   3.360  17.904  0.00  0.00    +0.000 A 
ATOM     11  N   UNL     1      47.023   3.272  16.785  0.00  0.00    +0.000 N 
ATOM     12  C   UNL     1      47.174   4.102  15.703  0.00  0.00    +0.000 A 
ATOM     13  O   UNL     1      46.566   3.897  14.655  0.00  0.00    +0.000 OA
ATOM     14  C   UNL     1      48.141   5.168  15.888  0.00  0.00    +0.000 A 
ATOM     15  H   UNL     1      46.352   2.525  16.687  0.00  0.00    +0.000 HD
ENDBRANCH   2   5
BRANCH   3  16
ATOM     16  C   UNL     1      45.895   7.280  12.495  0.00  0.00    +0.000 C 
BRANCH  16  17
ATOM     17  C   UNL     1      45.506   6.134  11.611  0.00  0.00    +0.000 A 
ATOM     18  C   UNL     1      45.876   6.097  10.266  0.00  0.00    +0.000 A 
ATOM     19  C   UNL     1      45.551   4.990   9.487  0.00  0.00    +0.000 A 
ATOM     20  C   UNL     1      44.837   3.944  10.067  0.00  0.00    +0.000 A 
ATOM     21  N   UNL     1      44.423   3.978  11.361  0.00  0.00    +0.000 NA
ATOM     22  C   UNL     1      44.760   5.065  12.094  0.00  0.00    +0.000 A 
BRANCH  20  23
ATOM     23  C   UNL     1      44.557   2.681   9.284  0.00  0.00    +0.000 C 
BRANCH  23  24
ATOM     24  C   UNL     1      45.601   2.403   8.225  0.00  0.00    +0.000 A 
ATOM     25  C   UNL     1      45.799   3.299   7.174  0.00  0.00    +0.000 A 
ATOM     26  C   UNL     1      46.716   2.982   6.176  0.00  0.00    +0.000 A 
ATOM     27  C   UNL     1      47.429   1.794   6.263  0.00  0.00    +0.000 A 
ATOM     28  C   UNL     1      47.202   0.975   7.356  0.00  0.00    +0.000 A 
ATOM     29  N   UNL     1      46.307   1.248   8.333  0.00  0.00    +0.000 NA
ENDBRANCH  23  24
ENDBRANCH  20  23
ENDBRANCH  16  17
ENDBRANCH   3  16
TORSDOF 5
ENDMDL
MODEL 2
REMARK VINA RESULT:    -8.074      1.307      1.823
REMARK INTER + INTRA:         -10.839
REMARK INTER:                 -10.009
REMARK INTRA:                  -0.830
REMARK UNBOUND:                -0.405
REMARK  Name = 
REMARK  5 active torsions:
REMARK  status: ('A' for Active; 'I' for Inactive)
REMARK    1  A    between atoms: C_2  and  C_18
REMARK    2  A    between atoms: N_3  and  C_4
REMARK    3  A    between atoms: C_4  and  C_5
REMARK    4  A    between atoms: C_8  and  C_9
REMARK    5  A    between atoms: C_9  and  C_10
REMARK                            x       y       z     vdW  Elec       q    Type
REMARK                         _______ _______ _______ _____ _____    ______ ____
ROOT
ATOM      1  O   UNL     1      49.727   6.982  13.967  0.00  0.00    +0.000 OA
ATOM      2  C   UNL     1      48.868   6.941  14.843  0.00  0.00    +0.000 C 
ATOM      3  N   UNL     1      47.582   7.369  14.634  0.00  0.00    +0.000 N 
ATOM      4  H   UNL     1      46.962   7.474  15.429  0.00  0.00    +0.000 HD
ENDROOT
BRANCH   2   5
ATOM      5  C   UNL     1      49.153   6.381  16.169  0.00  0.00    +0.000 A 
ATOM      6  C   UNL     1      49.961   7.079  17.055  0.00  0.00    +0.000 A 
ATOM      7  S   UNL     1      50.171   6.290  18.553  0.00  0.00    +0.000 S 
ATOM      8  C   UNL     1      49.157   5.007  18.080  0.00  0.00    +0.000 A 
ATOM      9  N   UNL     1      48.865   3.990  18.936  0.00  0.00    +0.000 NA
ATOM     10  C   UNL     1      48.051   3.105  18.460  0.00  0.00    +0.000 A 
ATOM     11  N   UNL     1      47.516   3.139  17.198  0.00  0.00    +0.000 N 
ATOM     12  C   UNL     1      47.847   4.098  16.275  0.00  0.00    +0.000 A 
ATOM     13  O   UNL     1      47.478   4.011  15.107  0.00  0.00    +0.000 OA
ATOM     14  C   UNL     1      48.702   5.155  16.782  0.00  0.00    +0.000 A 
ATOM     15  H   UNL     1      46.916   2.394  16.875  0.00  0.00    +0.000 HD
ENDBRANCH   2   5
BRANCH   3  16
ATOM     16  C   UNL     1      47.162   7.985  13.404  0.00  0.00    +0.000 C 
BRANCH  16  17
ATOM     17  C   UNL     1      46.247   7.095  12.617  0.00  0.00    +0.000 A 
ATOM     18  C   UNL     1      45.232   7.622  11.818  0.00  0.00    +0.000 A 
ATOM     19  C   UNL     1      44.439   6.770  11.054  0.00  0.00    +0.000 A 
ATOM     20  C   UNL     1      44.664   5.397  11.122  0.00  0.00    +0.000 A 
ATOM     21  N   UNL     1      45.614   4.857  11.930  0.00  0.00    +0.000 NA
ATOM     22  C   UNL     1      46.372   5.711  12.656  0.00  0.00    +0.000 A 
BRANCH  20  23
ATOM     23  C   UNL     1      43.895   4.450  10.228  0.00  0.00    +0.000 C 
BRANCH  23  24
ATOM     24  C   UNL     1      44.782   3.715   9.248  0.00  0.00    +0.000 A 
ATOM     25  C   UNL     1      44.917   2.328   9.318  0.00  0.00    +0.000 A 
ATOM     26  C   UNL     1      45.796   1.688   8.449  0.00  0.00    +0.000 A 
ATOM     27  C   UNL     1      46.497   2.441   7.517  0.00  0.00    +0.000 A 
ATOM     28  C   UNL     1      46.281   3.808   7.486  0.00  0.00    +0.000 A 
ATOM     29  N   UNL     1      45.446   4.461   8.327  0.00  0.00    +0.000 NA
ENDBRANCH  23  24
ENDBRANCH  20  23
ENDBRANCH  16  17
ENDBRANCH   3  16
TORSDOF 5
ENDMDL
MODEL 3
REMARK VINA RESULT:    -8.004      2.746      5.005
REMARK INTER + INTRA:         -10.748
REMARK INTER:                 -10.062
REMARK INTRA:                  -0.686
REMARK UNBOUND:                -0.405
REMARK  Name = 
REMARK  5 active torsions:
REMARK  status: ('A' for Active; 'I' for Inactive)
REMARK    1  A    between atoms: C_2  and  C_18
REMARK    2  A    between atoms: N_3  and  C_4
REMARK    3  A    between atoms: C_4  and  C_5
REMARK    4  A    between atoms: C_8  and  C_9
REMARK    5  A    between atoms: C_9  and  C_10
REMARK                            x       y       z     vdW  Elec       q    Type
REMARK                         _______ _______ _______ _____ _____    ______ ____
ROOT
ATOM      1  O   UNL     1      44.626   3.682  12.330  0.00  0.00    +0.000 OA
ATOM      2  C   UNL     1      44.973   4.510  11.492  0.00  0.00    +0.000 C 
ATOM      3  N   UNL     1      45.027   4.224  10.152  0.00  0.00    +0.000 N 
ATOM      4  H   UNL     1      45.479   4.880   9.525  0.00  0.00    +0.000 HD
ENDROOT
BRANCH   2   5
ATOM      5  C   UNL     1      45.310   5.887  11.871  0.00  0.00    +0.000 A 
ATOM      6  C   UNL     1      44.602   6.946  11.323  0.00  0.00    +0.000 A 
ATOM      7  S   UNL     1      45.114   8.473  11.888  0.00  0.00    +0.000 S 
ATOM      8  C   UNL     1      46.273   7.765  12.914  0.00  0.00    +0.000 A 
ATOM      9  N   UNL     1      47.043   8.528  13.736  0.00  0.00    +0.000 NA
ATOM     10  C   UNL     1      47.852   7.856  14.488  0.00  0.00    +0.000 A 
ATOM     11  N   UNL     1      47.971   6.490  14.480  0.00  0.00    +0.000 N 
ATOM     12  C   UNL     1      47.276   5.689  13.610  0.00  0.00    +0.000 A 
ATOM     13  O   UNL     1      47.521   4.489  13.516  0.00  0.00    +0.000 OA
ATOM     14  C   UNL     1      46.301   6.387  12.792  0.00  0.00    +0.000 A 
ATOM     15  H   UNL     1      48.652   6.031  15.066  0.00  0.00    +0.000 HD
ENDBRANCH   2   5
BRANCH   3  16
ATOM     16  C   UNL     1      44.771   2.907   9.631  0.00  0.00    +0.000 C 
BRANCH  16  17
ATOM     17  C   UNL     1      45.620   2.606   8.433  0.00  0.00    +0.000 A 
ATOM     18  C   UNL     1      46.215   1.355   8.261  0.00  0.00    +0.000 A 
ATOM     19  C   UNL     1      46.948   1.088   7.108  0.00  0.00    +0.000 A 
ATOM     20  C   UNL     1      47.091   2.093   6.153  0.00  0.00    +0.000 A 
ATOM     21  N   UNL     1      46.563   3.334   6.321  0.00  0.00    +0.000 NA
ATOM     22  C   UNL     1      45.851   3.560   7.449  0.00  0.00    +0.000 A 
BRANCH  20  23
ATOM     23  C   UNL     1      47.790   1.808   4.843  0.00  0.00    +0.000 C 
BRANCH  23  24
ATOM     24  C   UNL     1      46.997   0.887   3.942  0.00  0.00    +0.000 A 
ATOM     25  C   UNL     1      45.936   1.381   3.183  0.00  0.00    +0.000 A 
ATOM     26  C   UNL     1      45.180   0.496   2.418  0.00  0.00    +0.000 A 
ATOM     27  C   UNL     1      45.516  -0.852   2.410  0.00  0.00    +0.000 A 
ATOM     28  C   UNL     1      46.605  -1.257   3.162  0.00  0.00    +0.000 A 
ATOM     29  N   UNL     1      47.349  -0.425   3.926  0.00  0.00    +0.000 NA
ENDBRANCH  23  24
ENDBRANCH  20  23
ENDBRANCH  16  17
ENDBRANCH   3  16
TORSDOF 5
ENDMDL
MODEL 4
REMARK VINA RESULT:    -7.980      1.444      2.094
REMARK INTER + INTRA:         -10.717
REMARK INTER:                 -10.408
REMARK INTRA:                  -0.309
REMARK UNBOUND:                -0.405
REMARK  Name = 
REMARK  5 active torsions:
REMARK  status: ('A' for Active; 'I' for Inactive)
REMARK    1  A    between atoms: C_2  and  C_18
REMARK    2  A    between atoms: N_3  and  C_4
REMARK    3  A    between atoms: C_4  and  C_5
REMARK    4  A    between atoms: C_8  and  C_9
REMARK    5  A    between atoms: C_9  and  C_10
REMARK                            x       y       z     vdW  Elec       q    Type
REMARK                         _______ _______ _______ _____ _____    ______ ____
ROOT
ATOM      1  O   UNL     1      48.390   5.748  13.444  0.00  0.00    +0.000 OA
ATOM      2  C   UNL     1      47.518   5.568  14.288  0.00  0.00    +0.000 C 
ATOM      3  N   UNL     1      46.195   5.839  14.051  0.00  0.00    +0.000 N 
ATOM      4  H   UNL     1      45.543   5.837  14.827  0.00  0.00    +0.000 HD
ENDROOT
BRANCH   2   5
ATOM      5  C   UNL     1      47.832   4.999  15.604  0.00  0.00    +0.000 A 
ATOM      6  C   UNL     1      47.463   3.694  15.898  0.00  0.00    +0.000 A 
ATOM      7  S   UNL     1      47.922   3.192  17.462  0.00  0.00    +0.000 S 
ATOM      8  C   UNL     1      48.665   4.690  17.784  0.00  0.00    +0.000 A 
ATOM      9  N   UNL     1      49.311   4.915  18.960  0.00  0.00    +0.000 NA
ATOM     10  C   UNL     1      49.863   6.081  19.053  0.00  0.00    +0.000 A 
ATOM     11  N   UNL     1      49.813   7.046  18.081  0.00  0.00    +0.000 N 
ATOM     12  C   UNL     1      49.104   6.893  16.916  0.00  0.00    +0.000 A 
ATOM     13  O   UNL     1      48.945   7.831  16.140  0.00  0.00    +0.000 OA
ATOM     14  C   UNL     1      48.524   5.576  16.731  0.00  0.00    +0.000 A 
ATOM     15  H   UNL     1      50.233   7.951  18.234  0.00  0.00    +0.000 HD
ENDBRANCH   2   5
BRANCH   3  16
ATOM     16  C   UNL     1      45.737   6.443  12.828  0.00  0.00    +0.000 C 
BRANCH  16  17
ATOM     17  C   UNL     1      45.389   5.416  11.793  0.00  0.00    +0.000 A 
ATOM     18  C   UNL     1      45.506   5.689  10.430  0.00  0.00    +0.000 A 
ATOM     19  C   UNL     1      45.232   4.693   9.496  0.00  0.00    +0.000 A 
ATOM     20  C   UNL     1      44.821   3.441   9.948  0.00  0.00    +0.000 A 
ATOM     21  N   UNL     1      44.652   3.165  11.268  0.00  0.00    +0.000 NA
ATOM     22  C   UNL     1      44.932   4.153  12.151  0.00  0.00    +0.000 A 
BRANCH  20  23
ATOM     23  C   UNL     1      44.616   2.305   8.971  0.00  0.00    +0.000 C 
BRANCH  23  24
ATOM     24  C   UNL     1      45.742   2.182   7.968  0.00  0.00    +0.000 A 
ATOM     25  C   UNL     1      45.931   3.163   6.993  0.00  0.00    +0.000 A 
ATOM     26  C   UNL     1      46.930   2.987   6.040  0.00  0.00    +0.000 A 
ATOM     27  C   UNL     1      47.729   1.853   6.096  0.00  0.00    +0.000 A 
ATOM     28  C   UNL     1      47.502   0.945   7.115  0.00  0.00    +0.000 A 
ATOM     29  N   UNL     1      46.530   1.079   8.046  0.00  0.00    +0.000 NA
ENDBRANCH  23  24
ENDBRANCH  20  23
ENDBRANCH  16  17
ENDBRANCH   3  16
TORSDOF 5
ENDMDL
MODEL 5
REMARK VINA RESULT:    -7.748      2.322      2.959
REMARK INTER + INTRA:         -10.418
REMARK INTER:                  -9.728
REMARK INTRA:                  -0.690
REMARK UNBOUND:                -0.405
REMARK  Name = 
REMARK  5 active torsions:
REMARK  status: ('A' for Active; 'I' for Inactive)
REMARK    1  A    between atoms: C_2  and  C_18
REMARK    2  A    between atoms: N_3  and  C_4
REMARK    3  A    between atoms: C_4  and  C_5
REMARK    4  A    between atoms: C_8  and  C_9
REMARK    5  A    between atoms: C_9  and  C_10
REMARK                            x       y       z     vdW  Elec       q    Type
REMARK                         _______ _______ _______ _____ _____    ______ ____
ROOT
ATOM      1  O   UNL     1      49.951   6.565  15.516  0.00  0.00    +0.000 OA
ATOM      2  C   UNL     1      48.852   6.152  15.873  0.00  0.00    +0.000 C 
ATOM      3  N   UNL     1      47.738   6.241  15.079  0.00  0.00    +0.000 N 
ATOM      4  H   UNL     1      46.828   6.044  15.481  0.00  0.00    +0.000 HD
ENDROOT
BRANCH   2   5
ATOM      5  C   UNL     1      48.669   5.485  17.168  0.00  0.00    +0.000 A 
ATOM      6  C   UNL     1      48.856   4.114  17.271  0.00  0.00    +0.000 A 
ATOM      7  S   UNL     1      48.619   3.511  18.849  0.00  0.00    +0.000 S 
ATOM      8  C   UNL     1      48.297   5.069  19.455  0.00  0.00    +0.000 A 
ATOM      9  N   UNL     1      48.056   5.272  20.778  0.00  0.00    +0.000 NA
ATOM     10  C   UNL     1      47.867   6.509  21.105  0.00  0.00    +0.000 A 
ATOM     11  N   UNL     1      47.881   7.558  20.222  0.00  0.00    +0.000 N 
ATOM     12  C   UNL     1      48.037   7.391  18.870  0.00  0.00    +0.000 A 
ATOM     13  O   UNL     1      47.884   8.328  18.091  0.00  0.00    +0.000 OA
ATOM     14  C   UNL     1      48.323   6.029  18.459  0.00  0.00    +0.000 A 
ATOM     15  H   UNL     1      47.687   8.497  20.538  0.00  0.00    +0.000 HD
ENDBRANCH   2   5
BRANCH   3  16
ATOM     16  C   UNL     1      47.748   6.908  13.804  0.00  0.00    +0.000 C 
BRANCH  16  17
ATOM     17  C   UNL     1      46.778   6.290  12.842  0.00  0.00    +0.000 A 
ATOM     18  C   UNL     1      46.260   7.015  11.769  0.00  0.00    +0.000 A 
ATOM     19  C   UNL     1      45.408   6.393  10.859  0.00  0.00    +0.000 A 
ATOM     20  C   UNL     1      45.072   5.055  11.056  0.00  0.00    +0.000 A 
ATOM     21  N   UNL     1      45.525   4.343  12.121  0.00  0.00    +0.000 NA
ATOM     22  C   UNL     1      46.356   4.974  12.984  0.00  0.00    +0.000 A 
BRANCH  20  23
ATOM     23  C   UNL     1      44.236   4.318  10.034  0.00  0.00    +0.000 C 
BRANCH  23  24
ATOM     24  C   UNL     1      45.073   3.565   9.023  0.00  0.00    +0.000 A 
ATOM     25  C   UNL     1      45.247   2.186   9.136  0.00  0.00    +0.000 A 
ATOM     26  C   UNL     1      46.080   1.532   8.232  0.00  0.00    +0.000 A 
ATOM     27  C   UNL     1      46.697   2.263   7.226  0.00  0.00    +0.000 A 
ATOM     28  C   UNL     1      46.445   3.622   7.160  0.00  0.00    +0.000 A 
ATOM     29  N   UNL     1      45.654   4.289   8.031  0.00  0.00    +0.000 NA
ENDBRANCH  23  24
ENDBRANCH  20  23
ENDBRANCH  16  17
ENDBRANCH   3  16
TORSDOF 5
ENDMDL
MODEL 6
REMARK VINA RESULT:    -7.675      3.057      3.923
REMARK INTER + INTRA:         -10.324
REMARK INTER:                  -9.702
REMARK INTRA:                  -0.621
REMARK UNBOUND:                -0.405
REMARK  Name = 
REMARK  5 active torsions:
REMARK  status: ('A' for Active; 'I' for Inactive)
REMARK    1  A    between atoms: C_2  and  C_18
REMARK    2  A    between atoms: N_3  and  C_4
REMARK    3  A    between atoms: C_4  and  C_5
REMARK    4  A    between atoms: C_8  and  C_9
REMARK    5  A    between atoms: C_9  and  C_10
REMARK                            x       y       z     vdW  Elec       q    Type
REMARK                         _______ _______ _______ _____ _____    ______ ____
ROOT
ATOM      1  O   UNL     1      45.114   9.177  12.865  0.00  0.00    +0.000 OA
ATOM      2  C   UNL     1      46.131   8.513  12.687  0.00  0.00    +0.000 C 
ATOM      3  N   UNL     1      46.128   7.142  12.707  0.00  0.00    +0.000 N 
ATOM      4  H   UNL     1      47.013   6.646  12.726  0.00  0.00    +0.000 HD
ENDROOT
BRANCH   2   5
ATOM      5  C   UNL     1      47.419   9.150  12.390  0.00  0.00    +0.000 A 
ATOM      6  C   UNL     1      47.451  10.364  11.721  0.00  0.00    +0.000 A 
ATOM      7  S   UNL     1      49.028  10.967  11.476  0.00  0.00    +0.000 S 
ATOM      8  C   UNL     1      49.719   9.642  12.292  0.00  0.00    +0.000 A 
ATOM      9  N   UNL     1      51.063   9.560  12.486  0.00  0.00    +0.000 NA
ATOM     10  C   UNL     1      51.446   8.523  13.156  0.00  0.00    +0.000 A 
ATOM     11  N   UNL     1      50.605   7.551  13.635  0.00  0.00    +0.000 N 
ATOM     12  C   UNL     1      49.254   7.551  13.392  0.00  0.00    +0.000 A 
ATOM     13  O   UNL     1      48.554   6.588  13.694  0.00  0.00    +0.000 OA
ATOM     14  C   UNL     1      48.764   8.731  12.705  0.00  0.00    +0.000 A 
ATOM     15  H   UNL     1      50.974   6.745  14.118  0.00  0.00    +0.000 HD
ENDBRANCH   2   5
BRANCH   3  16
ATOM     16  C   UNL     1      44.954   6.375  13.030  0.00  0.00    +0.000 C 
BRANCH  16  17
ATOM     17  C   UNL     1      44.725   5.264  12.050  0.00  0.00    +0.000 A 
ATOM     18  C   UNL     1      43.808   5.395  11.007  0.00  0.00    +0.000 A 
ATOM     19  C   UNL     1      43.662   4.367  10.078  0.00  0.00    +0.000 A 
ATOM     20  C   UNL     1      44.427   3.212  10.226  0.00  0.00    +0.000 A 
ATOM     21  N   UNL     1      45.291   3.042  11.261  0.00  0.00    +0.000 NA
ATOM     22  C   UNL     1      45.414   4.061  12.143  0.00  0.00    +0.000 A 
BRANCH  20  23
ATOM     23  C   UNL     1      44.374   2.121   9.181  0.00  0.00    +0.000 C 
BRANCH  23  24
ATOM     24  C   UNL     1      45.606   2.087   8.304  0.00  0.00    +0.000 A 
ATOM     25  C   UNL     1      46.032   3.236   7.637  0.00  0.00    +0.000 A 
ATOM     26  C   UNL     1      47.127   3.156   6.780  0.00  0.00    +0.000 A 
ATOM     27  C   UNL     1      47.783   1.941   6.629  0.00  0.00    +0.000 A 
ATOM     28  C   UNL     1      47.321   0.856   7.354  0.00  0.00    +0.000 A 
ATOM     29  N   UNL     1      46.252   0.898   8.181  0.00  0.00    +0.000 NA
ENDBRANCH  23  24
ENDBRANCH  20  23
ENDBRANCH  16  17
ENDBRANCH   3  16
TORSDOF 5
ENDMDL
MODEL 7
REMARK VINA RESULT:    -7.547      1.832      2.570
REMARK INTER + INTRA:         -10.158
REMARK INTER:                  -9.380
REMARK INTRA:                  -0.778
REMARK UNBOUND:                -0.405
REMARK  Name = 
REMARK  5 active torsions:
REMARK  status: ('A' for Active; 'I' for Inactive)
REMARK    1  A    between atoms: C_2  and  C_18
REMARK    2  A    between atoms: N_3  and  C_4
REMARK    3  A    between atoms: C_4  and  C_5
REMARK    4  A    between atoms: C_8  and  C_9
REMARK    5  A    between atoms: C_9  and  C_10
REMARK                            x       y       z     vdW  Elec       q    Type
REMARK                         _______ _______ _______ _____ _____    ______ ____
ROOT
ATOM      1  O   UNL     1      47.564   3.967  14.108  0.00  0.00    +0.000 OA
ATOM      2  C   UNL     1      47.261   5.156  14.135  0.00  0.00    +0.000 C 
ATOM      3  N   UNL     1      45.978   5.594  13.929  0.00  0.00    +0.000 N 
ATOM      4  H   UNL     1      45.811   6.584  13.792  0.00  0.00    +0.000 HD
ENDROOT
BRANCH   2   5
ATOM      5  C   UNL     1      48.254   6.192  14.442  0.00  0.00    +0.000 A 
ATOM      6  C   UNL     1      48.765   6.982  13.423  0.00  0.00    +0.000 A 
ATOM      7  S   UNL     1      49.892   8.145  13.962  0.00  0.00    +0.000 S 
ATOM      8  C   UNL     1      49.704   7.656  15.582  0.00  0.00    +0.000 A 
ATOM      9  N   UNL     1      50.363   8.290  16.588  0.00  0.00    +0.000 NA
ATOM     10  C   UNL     1      50.096   7.841  17.771  0.00  0.00    +0.000 A 
ATOM     11  N   UNL     1      49.240   6.803  18.035  0.00  0.00    +0.000 N 
ATOM     12  C   UNL     1      48.618   6.082  17.047  0.00  0.00    +0.000 A 
ATOM     13  O   UNL     1      47.987   5.061  17.306  0.00  0.00    +0.000 OA
ATOM     14  C   UNL     1      48.829   6.591  15.704  0.00  0.00    +0.000 A 
ATOM     15  H   UNL     1      49.105   6.476  18.980  0.00  0.00    +0.000 HD
ENDBRANCH   2   5
BRANCH   3  16
ATOM     16  C   UNL     1      44.905   4.704  13.572  0.00  0.00    +0.000 C 
BRANCH  16  17
ATOM     17  C   UNL     1      44.777   4.551  12.087  0.00  0.00    +0.000 A 
ATOM     18  C   UNL     1      45.542   5.319  11.209  0.00  0.00    +0.000 A 
ATOM     19  C   UNL     1      45.443   5.109   9.836  0.00  0.00    +0.000 A 
ATOM     20  C   UNL     1      44.556   4.144   9.364  0.00  0.00    +0.000 A 
ATOM     21  N   UNL     1      43.764   3.417  10.196  0.00  0.00    +0.000 NA
ATOM     22  C   UNL     1      43.889   3.641  11.526  0.00  0.00    +0.000 A 
BRANCH  20  23
ATOM     23  C   UNL     1      44.497   3.815   7.889  0.00  0.00    +0.000 C 
BRANCH  23  24
ATOM     24  C   UNL     1      45.685   3.005   7.420  0.00  0.00    +0.000 A 
ATOM     25  C   UNL     1      45.996   1.787   8.025  0.00  0.00    +0.000 A 
ATOM     26  C   UNL     1      47.137   1.100   7.619  0.00  0.00    +0.000 A 
ATOM     27  C   UNL     1      47.924   1.630   6.605  0.00  0.00    +0.000 A 
ATOM     28  C   UNL     1      47.528   2.825   6.030  0.00  0.00    +0.000 A 
ATOM     29  N   UNL     1      46.435   3.524   6.413  0.00  0.00    +0.000 NA
ENDBRANCH  23  24
ENDBRANCH  20  23
ENDBRANCH  16  17
ENDBRANCH   3  16
TORSDOF 5
ENDMDL
MODEL 8
REMARK VINA RESULT:    -7.258      2.269      2.955
REMARK INTER + INTRA:          -9.785
REMARK INTER:                  -9.053
REMARK INTRA:                  -0.731
REMARK UNBOUND:                -0.405
REMARK  Name = 
REMARK  5 active torsions:
REMARK  status: ('A' for Active; 'I' for Inactive)
REMARK    1  A    between atoms: C_2  and  C_18
REMARK    2  A    between atoms: N_3  and  C_4
REMARK    3  A    between atoms: C_4  and  C_5
REMARK    4  A    between atoms: C_8  and  C_9
REMARK    5  A    between atoms: C_9  and  C_10
REMARK                            x       y       z     vdW  Elec       q    Type
REMARK                         _______ _______ _______ _____ _____    ______ ____
ROOT
ATOM      1  O   UNL     1      46.803   8.892  13.149  0.00  0.00    +0.000 OA
ATOM      2  C   UNL     1      47.569   7.955  13.355  0.00  0.00    +0.000 C 
ATOM      3  N   UNL     1      47.141   6.653  13.418  0.00  0.00    +0.000 N 
ATOM      4  H   UNL     1      47.777   5.941  13.757  0.00  0.00    +0.000 HD
ENDROOT
BRANCH   2   5
ATOM      5  C   UNL     1      49.014   8.165  13.500  0.00  0.00    +0.000 A 
ATOM      6  C   UNL     1      49.678   9.020  12.633  0.00  0.00    +0.000 A 
ATOM      7  S   UNL     1      51.347   9.159  12.958  0.00  0.00    +0.000 S 
ATOM      8  C   UNL     1      51.230   8.111  14.294  0.00  0.00    +0.000 A 
ATOM      9  N   UNL     1      52.314   7.834  15.067  0.00  0.00    +0.000 NA
ATOM     10  C   UNL     1      52.072   7.055  16.071  0.00  0.00    +0.000 A 
ATOM     11  N   UNL     1      50.845   6.517  16.361  0.00  0.00    +0.000 N 
ATOM     12  C   UNL     1      49.745   6.702  15.563  0.00  0.00    +0.000 A 
ATOM     13  O   UNL     1      48.705   6.078  15.759  0.00  0.00    +0.000 OA
ATOM     14  C   UNL     1      49.945   7.625  14.461  0.00  0.00    +0.000 A 
ATOM     15  H   UNL     1      50.734   5.884  17.139  0.00  0.00    +0.000 HD
ENDBRANCH   2   5
BRANCH   3  16
ATOM     16  C   UNL     1      45.750   6.292  13.341  0.00  0.00    +0.000 C 
BRANCH  16  17
ATOM     17  C   UNL     1      45.484   5.329  12.223  0.00  0.00    +0.000 A 
ATOM     18  C   UNL     1      45.264   3.974  12.470  0.00  0.00    +0.000 A 
ATOM     19  C   UNL     1      44.960   3.117  11.415  0.00  0.00    +0.000 A 
ATOM     20  C   UNL     1      44.905   3.634  10.122  0.00  0.00    +0.000 A 
ATOM     21  N   UNL     1      45.164   4.940   9.851  0.00  0.00    +0.000 NA
ATOM     22  C   UNL     1      45.450   5.748  10.899  0.00  0.00    +0.000 A 
BRANCH  20  23
ATOM     23  C   UNL     1      44.475   2.758   8.966  0.00  0.00    +0.000 C 
BRANCH  23  24
ATOM     24  C   UNL     1      45.624   2.378   8.059  0.00  0.00    +0.000 A 
ATOM     25  C   UNL     1      46.061   3.256   7.065  0.00  0.00    +0.000 A 
ATOM     26  C   UNL     1      47.073   2.849   6.199  0.00  0.00    +0.000 A 
ATOM     27  C   UNL     1      47.639   1.592   6.360  0.00  0.00    +0.000 A 
ATOM     28  C   UNL     1      47.175   0.795   7.392  0.00  0.00    +0.000 A 
ATOM     29  N   UNL     1      46.184   1.154   8.239  0.00  0.00    +0.000 NA
ENDBRANCH  23  24
ENDBRANCH  20  23
ENDBRANCH  16  17
ENDBRANCH   3  16
TORSDOF 5
ENDMDL
MODEL 9
REMARK VINA RESULT:    -7.175      3.143      8.039
REMARK INTER + INTRA:          -9.678
REMARK INTER:                  -8.788
REMARK INTRA:                  -0.889
REMARK UNBOUND:                -0.405
REMARK  Name = 
REMARK  5 active torsions:
REMARK  status: ('A' for Active; 'I' for Inactive)
REMARK    1  A    between atoms: C_2  and  C_18
REMARK    2  A    between atoms: N_3  and  C_4
REMARK    3  A    between atoms: C_4  and  C_5
REMARK    4  A    between atoms: C_8  and  C_9
REMARK    5  A    between atoms: C_9  and  C_10
REMARK                            x       y       z     vdW  Elec       q    Type
REMARK                         _______ _______ _______ _____ _____    ______ ____
ROOT
ATOM      1  O   UNL     1      46.031   7.814  11.732  0.00  0.00    +0.000 OA
ATOM      2  C   UNL     1      46.414   6.648  11.740  0.00  0.00    +0.000 C 
ATOM      3  N   UNL     1      47.475   6.227  12.499  0.00  0.00    +0.000 N 
ATOM      4  H   UNL     1      47.858   5.301  12.343  0.00  0.00    +0.000 HD
ENDROOT
BRANCH   2   5
ATOM      5  C   UNL     1      45.724   5.609  10.967  0.00  0.00    +0.000 A 
ATOM      6  C   UNL     1      45.868   5.564   9.588  0.00  0.00    +0.000 A 
ATOM      7  S   UNL     1      45.012   4.284   8.854  0.00  0.00    +0.000 S 
ATOM      8  C   UNL     1      44.450   3.724  10.361  0.00  0.00    +0.000 A 
ATOM      9  N   UNL     1      43.685   2.603  10.453  0.00  0.00    +0.000 NA
ATOM     10  C   UNL     1      43.364   2.271  11.661  0.00  0.00    +0.000 A 
ATOM     11  N   UNL     1      43.727   2.970  12.783  0.00  0.00    +0.000 N 
ATOM     12  C   UNL     1      44.426   4.149  12.731  0.00  0.00    +0.000 A 
ATOM     13  O   UNL     1      44.596   4.833  13.737  0.00  0.00    +0.000 OA
ATOM     14  C   UNL     1      44.872   4.529  11.404  0.00  0.00    +0.000 A 
ATOM     15  H   UNL     1      43.409   2.677  13.695  0.00  0.00    +0.000 HD
ENDBRANCH   2   5
BRANCH   3  16
ATOM     16  C   UNL     1      48.281   7.133  13.274  0.00  0.00    +0.000 C 
BRANCH  16  17
ATOM     17  C   UNL     1      48.622   6.568  14.619  0.00  0.00    +0.000 A 
ATOM     18  C   UNL     1      47.798   5.631  15.244  0.00  0.00    +0.000 A 
ATOM     19  C   UNL     1      48.174   5.081  16.466  0.00  0.00    +0.000 A 
ATOM     20  C   UNL     1      49.366   5.499  17.054  0.00  0.00    +0.000 A 
ATOM     21  N   UNL     1      50.161   6.446  16.490  0.00  0.00    +0.000 NA
ATOM     22  C   UNL     1      49.770   6.957  15.299  0.00  0.00    +0.000 A 
BRANCH  20  23
ATOM     23  C   UNL     1      49.860   4.849  18.327  0.00  0.00    +0.000 C 
BRANCH  23  24
ATOM     24  C   UNL     1      50.829   3.716  18.071  0.00  0.00    +0.000 A 
ATOM     25  C   UNL     1      50.400   2.546  17.445  0.00  0.00    +0.000 A 
ATOM     26  C   UNL     1      51.298   1.493  17.287  0.00  0.00    +0.000 A 
ATOM     27  C   UNL     1      52.604   1.642  17.734  0.00  0.00    +0.000 A 
ATOM     28  C   UNL     1      52.961   2.848  18.313  0.00  0.00    +0.000 A 
ATOM     29  N   UNL     1      52.109   3.883  18.494  0.00  0.00    +0.000 NA
ENDBRANCH  23  24
ENDBRANCH  20  23
ENDBRANCH  16  17
ENDBRANCH   3  16
TORSDOF 5
ENDMDL
