MODEL 1
REMARK VINA RESULT:    -7.821      0.000      0.000
REMARK INTER + INTRA:         -12.600
REMARK INTER:                 -11.478
REMARK INTRA:                  -1.121
REMARK UNBOUND:                -1.121
REMARK  Name = 
REMARK  9 active torsions:
REMARK  status: ('A' for Active; 'I' for Inactive)
REMARK    1  A    between atoms: C_2  and  C_23
REMARK    2  A    between atoms: N_3  and  CA_4
REMARK    3  A    between atoms: CA_4  and  C_5
REMARK    4  A    between atoms: CA_4  and  C_7
REMARK    5  A    between atoms: C_5  and  O_6
REMARK    6  A    between atoms: N_11  and  C_12
REMARK    7  A    between atoms: C_12  and  C_13
REMARK    8  A    between atoms: C_13  and  O_14
REMARK    9  A    between atoms: C_13  and  C_15
REMARK                            x       y       z     vdW  Elec       q    Type
REMARK                         _______ _______ _______ _____ _____    ______ ____
ROOT
ATOM      1  CA  UNL     1      47.635   7.602  13.233  0.00  0.00    +0.000 C 
ENDROOT
BRANCH   1   2
ATOM      2  C   UNL     1      46.600   6.693  12.599  0.00  0.00    +0.000 A 
ATOM      3  C   UNL     1      45.640   5.984  13.329  0.00  0.00    +0.000 A 
ATOM      4  C   UNL     1      44.748   5.133  12.676  0.00  0.00    +0.000 A 
ATOM      5  C   UNL     1      44.853   4.949  11.305  0.00  0.00    +0.000 A 
ATOM      6  N   UNL     1      44.026   3.990  10.718  0.00  0.00    +0.000 N 
ATOM      7  N   UNL     1      45.782   5.600  10.581  0.00  0.00    +0.000 NA
ATOM      8  C   UNL     1      46.617   6.453  11.227  0.00  0.00    +0.000 A 
ATOM      9  H   UNL     1      43.042   4.224  10.840  0.00  0.00    +0.000 HD
BRANCH   6  10
ATOM     10  C   UNL     1      44.332   3.641   9.330  0.00  0.00    +0.000 C 
BRANCH  10  11
ATOM     11  C   UNL     1      45.133   2.326   9.318  0.00  0.00    +0.000 C 
BRANCH  11  12
ATOM     12  C   UNL     1      45.989   2.233   8.071  0.00  0.00    +0.000 A 
ATOM     13  C   UNL     1      46.038   3.298   7.172  0.00  0.00    +0.000 A 
ATOM     14  C   UNL     1      46.822   3.174   6.030  0.00  0.00    +0.000 A 
ATOM     15  C   UNL     1      47.529   1.997   5.816  0.00  0.00    +0.000 A 
ATOM     16  C   UNL     1      47.424   0.986   6.758  0.00  0.00    +0.000 A 
ATOM     17  N   UNL     1      46.672   1.074   7.877  0.00  0.00    +0.000 NA
ENDBRANCH  11  12
BRANCH  11  18
ATOM     18  O   UNL     1      44.208   1.222   9.373  0.00  0.00    +0.000 OA
ATOM     19  H   UNL     1      44.740   0.446   9.098  0.00  0.00    +0.000 HD
ENDBRANCH  11  18
ENDBRANCH  10  11
ENDBRANCH   6  10
ENDBRANCH   1   2
BRANCH   1  22
ATOM     20  O   UNL     1      50.014   6.908  14.784  0.00  0.00    +0.000 OA
ATOM     21  C   UNL     1      48.879   6.795  15.254  0.00  0.00    +0.000 C 
ATOM     22  N   UNL     1      47.739   7.271  14.649  0.00  0.00    +0.000 N 
ATOM     23  H   UNL     1      46.866   6.971  15.051  0.00  0.00    +0.000 HD
BRANCH  21  24
ATOM     24  C   UNL     1      48.544   5.941  16.385  0.00  0.00    +0.000 A 
ATOM     25  C   UNL     1      47.693   4.851  16.314  0.00  0.00    +0.000 A 
ATOM     26  N   UNL     1      47.106   4.730  17.549  0.00  0.00    +0.000 N 
ATOM     27  C   UNL     1      47.693   5.599  18.439  0.00  0.00    +0.000 A 
ATOM     28  C   UNL     1      47.360   5.945  19.739  0.00  0.00    +0.000 A 
ATOM     29  N   UNL     1      48.159   6.801  20.420  0.00  0.00    +0.000 NA
ATOM     30  C   UNL     1      49.271   7.283  19.822  0.00  0.00    +0.000 A 
ATOM     31  C   UNL     1      49.623   7.035  18.508  0.00  0.00    +0.000 A 
ATOM     32  C   UNL     1      48.761   6.199  17.778  0.00  0.00    +0.000 A 
ATOM     33  H   UNL     1      46.301   4.152  17.749  0.00  0.00    +0.000 HD
ENDBRANCH  21  24
ENDBRANCH   1  22
BRANCH   1  34
ATOM     34  C   UNL     1      47.283   9.103  13.114  0.00  0.00    +0.000 C 
BRANCH  34  35
ATOM     35  O   UNL     1      45.888   9.357  13.267  0.00  0.00    +0.000 OA
ATOM     36  H   UNL     1      45.664   9.231  14.204  0.00  0.00    +0.000 HD
ENDBRANCH  34  35
ENDBRANCH   1  34
TORSDOF 9
ENDMDL
MODEL 2
REMARK VINA RESULT:    -7.744      2.312      3.495
REMARK INTER + INTRA:         -12.487
REMARK INTER:                 -11.899
REMARK INTRA:                  -0.587
REMARK UNBOUND:                -1.121
REMARK  Name = 
REMARK  9 active torsions:
REMARK  status: ('A' for Active; 'I' for Inactive)
REMARK    1  A    between atoms: C_2  and  C_23
REMARK    2  A    between atoms: N_3  and  CA_4
REMARK    3  A    between atoms: CA_4  and  C_5
REMARK    4  A    between atoms: CA_4  and  C_7
REMARK    5  A    between atoms: C_5  and  O_6
REMARK    6  A    between atoms: N_11  and  C_12
REMARK    7  A    between atoms: C_12  and  C_13
REMARK    8  A    between atoms: C_13  and  O_14
REMARK    9  A    between atoms: C_13  and  C_15
REMARK                            x       y       z     vdW  Elec       q    Type
REMARK                         _______ _______ _______ _____ _____    ______ ____
ROOT
ATOM      1  CA  UNL     1      49.256   7.631  15.263  0.00  0.00    +0.000 C 
ENDROOT
BRANCH   1   2
ATOM      2  C   UNL     1      48.423   7.079  14.122  0.00  0.00    +0.000 A 
ATOM      3  C   UNL     1      48.328   7.689  12.866  0.00  0.00    +0.000 A 
ATOM      4  C   UNL     1      47.506   7.143  11.880  0.00  0.00    +0.000 A 
ATOM      5  C   UNL     1      46.738   6.024  12.168  0.00  0.00    +0.000 A 
ATOM      6  N   UNL     1      45.834   5.595  11.195  0.00  0.00    +0.000 N 
ATOM      7  N   UNL     1      46.791   5.431  13.375  0.00  0.00    +0.000 NA
ATOM      8  C   UNL     1      47.625   5.953  14.310  0.00  0.00    +0.000 A 
ATOM      9  H   UNL     1      46.313   5.326  10.337  0.00  0.00    +0.000 HD
BRANCH   6  10
ATOM     10  C   UNL     1      44.869   4.579  11.619  0.00  0.00    +0.000 C 
BRANCH  10  11
ATOM     11  C   UNL     1      44.039   4.148  10.395  0.00  0.00    +0.000 C 
BRANCH  11  12
ATOM     12  C   UNL     1      44.934   3.565   9.321  0.00  0.00    +0.000 A 
ATOM     13  C   UNL     1      45.166   2.190   9.270  0.00  0.00    +0.000 A 
ATOM     14  C   UNL     1      46.005   1.690   8.280  0.00  0.00    +0.000 A 
ATOM     15  C   UNL     1      46.588   2.568   7.375  0.00  0.00    +0.000 A 
ATOM     16  C   UNL     1      46.307   3.919   7.496  0.00  0.00    +0.000 A 
ATOM     17  N   UNL     1      45.497   4.439   8.445  0.00  0.00    +0.000 NA
ENDBRANCH  11  12
BRANCH  11  18
ATOM     18  O   UNL     1      43.334   5.299   9.888  0.00  0.00    +0.000 OA
ATOM     19  H   UNL     1      43.725   6.055  10.374  0.00  0.00    +0.000 HD
ENDBRANCH  11  18
ENDBRANCH  10  11
ENDBRANCH   6  10
ENDBRANCH   1   2
BRANCH   1  22
ATOM     20  O   UNL     1      50.712   7.710  17.796  0.00  0.00    +0.000 OA
ATOM     21  C   UNL     1      50.080   6.711  17.444  0.00  0.00    +0.000 C 
ATOM     22  N   UNL     1      49.234   6.672  16.361  0.00  0.00    +0.000 N 
ATOM     23  H   UNL     1      48.910   5.759  16.084  0.00  0.00    +0.000 HD
BRANCH  21  24
ATOM     24  C   UNL     1      50.315   5.371  17.963  0.00  0.00    +0.000 A 
ATOM     25  C   UNL     1      51.385   5.023  18.772  0.00  0.00    +0.000 A 
ATOM     26  N   UNL     1      51.662   3.705  18.510  0.00  0.00    +0.000 N 
ATOM     27  C   UNL     1      50.692   3.170  17.694  0.00  0.00    +0.000 A 
ATOM     28  C   UNL     1      50.608   1.945  17.050  0.00  0.00    +0.000 A 
ATOM     29  N   UNL     1      49.492   1.648  16.342  0.00  0.00    +0.000 NA
ATOM     30  C   UNL     1      48.481   2.542  16.297  0.00  0.00    +0.000 A 
ATOM     31  C   UNL     1      48.528   3.806  16.857  0.00  0.00    +0.000 A 
ATOM     32  C   UNL     1      49.710   4.143  17.537  0.00  0.00    +0.000 A 
ATOM     33  H   UNL     1      52.504   3.225  18.799  0.00  0.00    +0.000 HD
ENDBRANCH  21  24
ENDBRANCH   1  22
BRANCH   1  34
ATOM     34  C   UNL     1      48.738   8.986  15.796  0.00  0.00    +0.000 C 
BRANCH  34  35
ATOM     35  O   UNL     1      47.325   9.130  15.661  0.00  0.00    +0.000 OA
ATOM     36  H   UNL     1      46.904   8.531  16.301  0.00  0.00    +0.000 HD
ENDBRANCH  34  35
ENDBRANCH   1  34
TORSDOF 9
ENDMDL
MODEL 3
REMARK VINA RESULT:    -7.671      2.373      3.836
REMARK INTER + INTRA:         -12.379
REMARK INTER:                 -11.289
REMARK INTRA:                  -1.090
REMARK UNBOUND:                -1.121
REMARK  Name = 
REMARK  9 active torsions:
REMARK  status: ('A' for Active; 'I' for Inactive)
REMARK    1  A    between atoms: C_2  and  C_23
REMARK    2  A    between atoms: N_3  and  CA_4
REMARK    3  A    between atoms: CA_4  and  C_5
REMARK    4  A    between atoms: CA_4  and  C_7
REMARK    5  A    between atoms: C_5  and  O_6
REMARK    6  A    between atoms: N_11  and  C_12
REMARK    7  A    between atoms: C_12  and  C_13
REMARK    8  A    between atoms: C_13  and  O_14
REMARK    9  A    between atoms: C_13  and  C_15
REMARK                            x       y       z     vdW  Elec       q    Type
REMARK                         _______ _______ _______ _____ _____    ______ ____
ROOT
ATOM      1  CA  UNL     1      44.000   5.590  11.652  0.00  0.00    +0.000 C 
ENDROOT
BRANCH   1   2
ATOM      2  C   UNL     1      44.414   4.688  10.503  0.00  0.00    +0.000 A 
ATOM      3  C   UNL     1      44.305   3.294  10.536  0.00  0.00    +0.000 A 
ATOM      4  C   UNL     1      44.747   2.530   9.456  0.00  0.00    +0.000 A 
ATOM      5  C   UNL     1      45.347   3.154   8.372  0.00  0.00    +0.000 A 
ATOM      6  N   UNL     1      45.891   2.339   7.378  0.00  0.00    +0.000 N 
ATOM      7  N   UNL     1      45.485   4.493   8.325  0.00  0.00    +0.000 NA
ATOM      8  C   UNL     1      45.015   5.223   9.367  0.00  0.00    +0.000 A 
ATOM      9  H   UNL     1      45.175   1.762   6.939  0.00  0.00    +0.000 HD
BRANCH   6  10
ATOM     10  C   UNL     1      46.730   3.011   6.385  0.00  0.00    +0.000 C 
BRANCH  10  11
ATOM     11  C   UNL     1      47.762   2.002   5.848  0.00  0.00    +0.000 C 
BRANCH  11  12
ATOM     12  C   UNL     1      47.157   1.153   4.749  0.00  0.00    +0.000 A 
ATOM     13  C   UNL     1      46.337   1.735   3.783  0.00  0.00    +0.000 A 
ATOM     14  C   UNL     1      45.786   0.924   2.796  0.00  0.00    +0.000 A 
ATOM     15  C   UNL     1      46.064  -0.437   2.801  0.00  0.00    +0.000 A 
ATOM     16  C   UNL     1      46.887  -0.936   3.797  0.00  0.00    +0.000 A 
ATOM     17  N   UNL     1      47.439  -0.177   4.771  0.00  0.00    +0.000 NA
ENDBRANCH  11  12
BRANCH  11  18
ATOM     18  O   UNL     1      48.202   1.168   6.939  0.00  0.00    +0.000 OA
ATOM     19  H   UNL     1      48.715   0.454   6.506  0.00  0.00    +0.000 HD
ENDBRANCH  11  18
ENDBRANCH  10  11
ENDBRANCH   6  10
ENDBRANCH   1   2
BRANCH   1  22
ATOM     20  O   UNL     1      46.378   6.994  12.607  0.00  0.00    +0.000 OA
ATOM     21  C   UNL     1      46.035   5.908  13.080  0.00  0.00    +0.000 C 
ATOM     22  N   UNL     1      44.839   5.288  12.805  0.00  0.00    +0.000 N 
ATOM     23  H   UNL     1      44.751   4.335  13.120  0.00  0.00    +0.000 HD
BRANCH  21  24
ATOM     24  C   UNL     1      46.928   5.010  13.798  0.00  0.00    +0.000 A 
ATOM     25  C   UNL     1      46.876   3.628  13.716  0.00  0.00    +0.000 A 
ATOM     26  N   UNL     1      47.322   3.147  14.922  0.00  0.00    +0.000 N 
ATOM     27  C   UNL     1      47.815   4.177  15.690  0.00  0.00    +0.000 A 
ATOM     28  C   UNL     1      48.234   4.216  17.011  0.00  0.00    +0.000 A 
ATOM     29  N   UNL     1      48.738   5.371  17.508  0.00  0.00    +0.000 NA
ATOM     30  C   UNL     1      48.837   6.450  16.701  0.00  0.00    +0.000 A 
ATOM     31  C   UNL     1      48.374   6.498  15.399  0.00  0.00    +0.000 A 
ATOM     32  C   UNL     1      47.792   5.321  14.899  0.00  0.00    +0.000 A 
ATOM     33  H   UNL     1      47.218   2.191  15.234  0.00  0.00    +0.000 HD
ENDBRANCH  21  24
ENDBRANCH   1  22
BRANCH   1  34
ATOM     34  C   UNL     1      42.523   5.407  12.068  0.00  0.00    +0.000 C 
BRANCH  34  35
ATOM     35  O   UNL     1      41.726   6.561  11.803  0.00  0.00    +0.000 OA
ATOM     36  H   UNL     1      42.150   7.320  12.238  0.00  0.00    +0.000 HD
ENDBRANCH  34  35
ENDBRANCH   1  34
TORSDOF 9
ENDMDL
MODEL 4
REMARK VINA RESULT:    -7.630      2.783      5.124
REMARK INTER + INTRA:         -12.319
REMARK INTER:                 -11.388
REMARK INTRA:                  -0.931
REMARK UNBOUND:                -1.121
REMARK  Name = 
REMARK  9 active torsions:
REMARK  status: ('A' for Active; 'I' for Inactive)
REMARK    1  A    between atoms: C_2  and  C_23
REMARK    2  A    between atoms: N_3  and  CA_4
REMARK    3  A    between atoms: CA_4  and  C_5
REMARK    4  A    between atoms: CA_4  and  C_7
REMARK    5  A    between atoms: C_5  and  O_6
REMARK    6  A    between atoms: N_11  and  C_12
REMARK    7  A    between atoms: C_12  and  C_13
REMARK    8  A    between atoms: C_13  and  O_14
REMARK    9  A    between atoms: C_13  and  C_15
REMARK                            x       y       z     vdW  Elec       q    Type
REMARK                         _______ _______ _______ _____ _____    ______ ____
ROOT
ATOM      1  CA  UNL     1      44.085   4.464  11.533  0.00  0.00    +0.000 C 
ENDROOT
BRANCH   1   2
ATOM      2  C   UNL     1      44.838   4.227  10.237  0.00  0.00    +0.000 A 
ATOM      3  C   UNL     1      45.533   5.229   9.551  0.00  0.00    +0.000 A 
ATOM      4  C   UNL     1      46.166   4.941   8.341  0.00  0.00    +0.000 A 
ATOM      5  C   UNL     1      46.057   3.672   7.793  0.00  0.00    +0.000 A 
ATOM      6  N   UNL     1      46.594   3.470   6.521  0.00  0.00    +0.000 N 
ATOM      7  N   UNL     1      45.375   2.695   8.420  0.00  0.00    +0.000 NA
ATOM      8  C   UNL     1      44.797   2.982   9.615  0.00  0.00    +0.000 A 
ATOM      9  H   UNL     1      47.600   3.634   6.513  0.00  0.00    +0.000 HD
BRANCH   6  10
ATOM     10  C   UNL     1      46.246   2.207   5.869  0.00  0.00    +0.000 C 
BRANCH  10  11
ATOM     11  C   UNL     1      47.212   1.978   4.692  0.00  0.00    +0.000 C 
BRANCH  11  12
ATOM     12  C   UNL     1      46.740   0.825   3.830  0.00  0.00    +0.000 A 
ATOM     13  C   UNL     1      45.826   1.045   2.801  0.00  0.00    +0.000 A 
ATOM     14  C   UNL     1      45.402  -0.038   2.039  0.00  0.00    +0.000 A 
ATOM     15  C   UNL     1      45.898  -1.305   2.324  0.00  0.00    +0.000 A 
ATOM     16  C   UNL     1      46.802  -1.439   3.365  0.00  0.00    +0.000 A 
ATOM     17  N   UNL     1      47.234  -0.408   4.125  0.00  0.00    +0.000 NA
ENDBRANCH  11  12
BRANCH  11  18
ATOM     18  O   UNL     1      48.526   1.704   5.220  0.00  0.00    +0.000 OA
ATOM     19  H   UNL     1      48.511   2.093   6.119  0.00  0.00    +0.000 HD
ENDBRANCH  11  18
ENDBRANCH  10  11
ENDBRANCH   6  10
ENDBRANCH   1   2
BRANCH   1  22
ATOM     20  O   UNL     1      44.793   6.961  12.876  0.00  0.00    +0.000 OA
ATOM     21  C   UNL     1      45.438   5.925  13.055  0.00  0.00    +0.000 C 
ATOM     22  N   UNL     1      45.053   4.686  12.599  0.00  0.00    +0.000 N 
ATOM     23  H   UNL     1      45.744   3.955  12.666  0.00  0.00    +0.000 HD
BRANCH  21  24
ATOM     24  C   UNL     1      46.805   5.889  13.554  0.00  0.00    +0.000 A 
ATOM     25  C   UNL     1      47.172   5.377  14.788  0.00  0.00    +0.000 A 
ATOM     26  N   UNL     1      48.286   6.073  15.186  0.00  0.00    +0.000 N 
ATOM     27  C   UNL     1      48.729   6.882  14.165  0.00  0.00    +0.000 A 
ATOM     28  C   UNL     1      49.709   7.862  14.130  0.00  0.00    +0.000 A 
ATOM     29  N   UNL     1      49.986   8.476  12.955  0.00  0.00    +0.000 NA
ATOM     30  C   UNL     1      49.315   8.107  11.843  0.00  0.00    +0.000 A 
ATOM     31  C   UNL     1      48.280   7.189  11.821  0.00  0.00    +0.000 A 
ATOM     32  C   UNL     1      47.946   6.597  13.051  0.00  0.00    +0.000 A 
ATOM     33  H   UNL     1      48.668   6.061  16.122  0.00  0.00    +0.000 HD
ENDBRANCH  21  24
ENDBRANCH   1  22
BRANCH   1  34
ATOM     34  C   UNL     1      43.183   3.277  11.939  0.00  0.00    +0.000 C 
BRANCH  34  35
ATOM     35  O   UNL     1      43.910   2.218  12.561  0.00  0.00    +0.000 OA
ATOM     36  H   UNL     1      43.785   1.417  12.023  0.00  0.00    +0.000 HD
ENDBRANCH  34  35
ENDBRANCH   1  34
TORSDOF 9
ENDMDL
MODEL 5
REMARK VINA RESULT:    -7.592      0.919      1.825
REMARK INTER + INTRA:         -12.264
REMARK INTER:                 -10.983
REMARK INTRA:                  -1.281
REMARK UNBOUND:                -1.121
REMARK  Name = 
REMARK  9 active torsions:
REMARK  status: ('A' for Active; 'I' for Inactive)
REMARK    1  A    between atoms: C_2  and  C_23
REMARK    2  A    between atoms: N_3  and  CA_4
REMARK    3  A    between atoms: CA_4  and  C_5
REMARK    4  A    between atoms: CA_4  and  C_7
REMARK    5  A    between atoms: C_5  and  O_6
REMARK    6  A    between atoms: N_11  and  C_12
REMARK    7  A    between atoms: C_12  and  C_13
REMARK    8  A    between atoms: C_13  and  O_14
REMARK    9  A    between atoms: C_13  and  C_15
REMARK                            x       y       z     vdW  Elec       q    Type
REMARK                         _______ _______ _______ _____ _____    ______ ____
ROOT
ATOM      1  CA  UNL     1      48.062   7.682  13.247  0.00  0.00    +0.000 C 
ENDROOT
BRANCH   1   2
ATOM      2  C   UNL     1      46.962   6.770  12.736  0.00  0.00    +0.000 A 
ATOM      3  C   UNL     1      46.122   6.027  13.572  0.00  0.00    +0.000 A 
ATOM      4  C   UNL     1      45.161   5.177  13.025  0.00  0.00    +0.000 A 
ATOM      5  C   UNL     1      45.078   5.028  11.648  0.00  0.00    +0.000 A 
ATOM      6  N   UNL     1      44.192   4.069  11.155  0.00  0.00    +0.000 N 
ATOM      7  N   UNL     1      45.889   5.714  10.821  0.00  0.00    +0.000 NA
ATOM      8  C   UNL     1      46.794   6.565  11.370  0.00  0.00    +0.000 A 
ATOM      9  H   UNL     1      43.231   4.283  11.418  0.00  0.00    +0.000 HD
BRANCH   6  10
ATOM     10  C   UNL     1      44.308   3.761   9.729  0.00  0.00    +0.000 C 
BRANCH  10  11
ATOM     11  C   UNL     1      44.951   2.370   9.578  0.00  0.00    +0.000 C 
BRANCH  11  12
ATOM     12  C   UNL     1      45.829   2.319   8.344  0.00  0.00    +0.000 A 
ATOM     13  C   UNL     1      45.910   3.421   7.493  0.00  0.00    +0.000 A 
ATOM     14  C   UNL     1      46.713   3.334   6.361  0.00  0.00    +0.000 A 
ATOM     15  C   UNL     1      47.408   2.158   6.109  0.00  0.00    +0.000 A 
ATOM     16  C   UNL     1      47.271   1.108   7.003  0.00  0.00    +0.000 A 
ATOM     17  N   UNL     1      46.499   1.158   8.112  0.00  0.00    +0.000 NA
ENDBRANCH  11  12
BRANCH  11  18
ATOM     18  O   UNL     1      43.903   1.384   9.488  0.00  0.00    +0.000 OA
ATOM     19  H   UNL     1      44.360   0.573   9.181  0.00  0.00    +0.000 HD
ENDBRANCH  11  18
ENDBRANCH  10  11
ENDBRANCH   6  10
ENDBRANCH   1   2
BRANCH   1  22
ATOM     20  O   UNL     1      50.300   7.378  15.102  0.00  0.00    +0.000 OA
ATOM     21  C   UNL     1      49.130   7.345  15.490  0.00  0.00    +0.000 C 
ATOM     22  N   UNL     1      48.045   7.660  14.704  0.00  0.00    +0.000 N 
ATOM     23  H   UNL     1      47.141   7.434  15.087  0.00  0.00    +0.000 HD
BRANCH  21  24
ATOM     24  C   UNL     1      48.700   6.743  16.744  0.00  0.00    +0.000 A 
ATOM     25  C   UNL     1      48.928   7.295  17.994  0.00  0.00    +0.000 A 
ATOM     26  N   UNL     1      49.021   6.247  18.875  0.00  0.00    +0.000 N 
ATOM     27  C   UNL     1      48.686   5.070  18.247  0.00  0.00    +0.000 A 
ATOM     28  C   UNL     1      48.765   3.751  18.668  0.00  0.00    +0.000 A 
ATOM     29  N   UNL     1      48.303   2.771  17.855  0.00  0.00    +0.000 NA
ATOM     30  C   UNL     1      47.759   3.102  16.664  0.00  0.00    +0.000 A 
ATOM     31  C   UNL     1      47.713   4.388  16.155  0.00  0.00    +0.000 A 
ATOM     32  C   UNL     1      48.250   5.400  16.968  0.00  0.00    +0.000 A 
ATOM     33  H   UNL     1      49.374   6.319  19.820  0.00  0.00    +0.000 HD
ENDBRANCH  21  24
ENDBRANCH   1  22
BRANCH   1  34
ATOM     34  C   UNL     1      47.901   9.149  12.786  0.00  0.00    +0.000 C 
BRANCH  34  35
ATOM     35  O   UNL     1      46.567   9.631  12.932  0.00  0.00    +0.000 OA
ATOM     36  H   UNL     1      45.962   8.916  12.670  0.00  0.00    +0.000 HD
ENDBRANCH  34  35
ENDBRANCH   1  34
TORSDOF 9
ENDMDL
MODEL 6
REMARK VINA RESULT:    -7.446      3.648      5.051
REMARK INTER + INTRA:         -12.050
REMARK INTER:                 -11.122
REMARK INTRA:                  -0.929
REMARK UNBOUND:                -1.121
REMARK  Name = 
REMARK  9 active torsions:
REMARK  status: ('A' for Active; 'I' for Inactive)
REMARK    1  A    between atoms: C_2  and  C_23
REMARK    2  A    between atoms: N_3  and  CA_4
REMARK    3  A    between atoms: CA_4  and  C_5
REMARK    4  A    between atoms: CA_4  and  C_7
REMARK    5  A    between atoms: C_5  and  O_6
REMARK    6  A    between atoms: N_11  and  C_12
REMARK    7  A    between atoms: C_12  and  C_13
REMARK    8  A    between atoms: C_13  and  O_14
REMARK    9  A    between atoms: C_13  and  C_15
REMARK                            x       y       z     vdW  Elec       q    Type
REMARK                         _______ _______ _______ _____ _____    ______ ____
ROOT
ATOM      1  CA  UNL     1      44.698   5.682  11.756  0.00  0.00    +0.000 C 
ENDROOT
BRANCH   1   2
ATOM      2  C   UNL     1      44.896   4.833  10.514  0.00  0.00    +0.000 A 
ATOM      3  C   UNL     1      44.495   3.496  10.417  0.00  0.00    +0.000 A 
ATOM      4  C   UNL     1      44.751   2.769   9.254  0.00  0.00    +0.000 A 
ATOM      5  C   UNL     1      45.455   3.359   8.215  0.00  0.00    +0.000 A 
ATOM      6  N   UNL     1      45.801   2.552   7.130  0.00  0.00    +0.000 N 
ATOM      7  N   UNL     1      45.874   4.636   8.291  0.00  0.00    +0.000 NA
ATOM      8  C   UNL     1      45.583   5.341   9.414  0.00  0.00    +0.000 A 
ATOM      9  H   UNL     1      44.973   2.185   6.663  0.00  0.00    +0.000 HD
BRANCH   6  10
ATOM     10  C   UNL     1      46.750   3.129   6.178  0.00  0.00    +0.000 C 
BRANCH  10  11
ATOM     11  C   UNL     1      47.738   2.031   5.741  0.00  0.00    +0.000 C 
BRANCH  11  12
ATOM     12  C   UNL     1      47.126   1.160   4.664  0.00  0.00    +0.000 A 
ATOM     13  C   UNL     1      46.283   1.718   3.703  0.00  0.00    +0.000 A 
ATOM     14  C   UNL     1      45.726   0.887   2.737  0.00  0.00    +0.000 A 
ATOM     15  C   UNL     1      46.022  -0.471   2.756  0.00  0.00    +0.000 A 
ATOM     16  C   UNL     1      46.868  -0.946   3.746  0.00  0.00    +0.000 A 
ATOM     17  N   UNL     1      47.425  -0.166   4.699  0.00  0.00    +0.000 NA
ENDBRANCH  11  12
BRANCH  11  18
ATOM     18  O   UNL     1      48.082   1.235   6.893  0.00  0.00    +0.000 OA
ATOM     19  H   UNL     1      47.332   1.368   7.511  0.00  0.00    +0.000 HD
ENDBRANCH  11  18
ENDBRANCH  10  11
ENDBRANCH   6  10
ENDBRANCH   1   2
BRANCH   1  22
ATOM     20  O   UNL     1      45.545   8.252  12.860  0.00  0.00    +0.000 OA
ATOM     21  C   UNL     1      46.355   7.356  12.613  0.00  0.00    +0.000 C 
ATOM     22  N   UNL     1      46.007   6.071  12.266  0.00  0.00    +0.000 N 
ATOM     23  H   UNL     1      46.754   5.485  11.930  0.00  0.00    +0.000 HD
BRANCH  21  24
ATOM     24  C   UNL     1      47.781   7.575  12.412  0.00  0.00    +0.000 A 
ATOM     25  C   UNL     1      48.764   6.652  12.728  0.00  0.00    +0.000 A 
ATOM     26  N   UNL     1      49.889   7.371  13.048  0.00  0.00    +0.000 N 
ATOM     27  C   UNL     1      49.692   8.705  12.773  0.00  0.00    +0.000 A 
ATOM     28  C   UNL     1      50.463   9.823  13.054  0.00  0.00    +0.000 A 
ATOM     29  N   UNL     1      50.052  11.035  12.610  0.00  0.00    +0.000 NA
ATOM     30  C   UNL     1      48.913  11.124  11.889  0.00  0.00    +0.000 A 
ATOM     31  C   UNL     1      48.063  10.062  11.634  0.00  0.00    +0.000 A 
ATOM     32  C   UNL     1      48.453   8.814  12.149  0.00  0.00    +0.000 A 
ATOM     33  H   UNL     1      50.706   6.989  13.503  0.00  0.00    +0.000 HD
ENDBRANCH  21  24
ENDBRANCH   1  22
BRANCH   1  34
ATOM     34  C   UNL     1      43.942   4.944  12.884  0.00  0.00    +0.000 C 
BRANCH  34  35
ATOM     35  O   UNL     1      42.865   5.710  13.421  0.00  0.00    +0.000 OA
ATOM     36  H   UNL     1      42.718   6.469  12.831  0.00  0.00    +0.000 HD
ENDBRANCH  34  35
ENDBRANCH   1  34
TORSDOF 9
ENDMDL
MODEL 7
REMARK VINA RESULT:    -7.405      1.992      9.499
REMARK INTER + INTRA:         -11.990
REMARK INTER:                 -10.837
REMARK INTRA:                  -1.153
REMARK UNBOUND:                -1.121
REMARK  Name = 
REMARK  9 active torsions:
REMARK  status: ('A' for Active; 'I' for Inactive)
REMARK    1  A    between atoms: C_2  and  C_23
REMARK    2  A    between atoms: N_3  and  CA_4
REMARK    3  A    between atoms: CA_4  and  C_5
REMARK    4  A    between atoms: CA_4  and  C_7
REMARK    5  A    between atoms: C_5  and  O_6
REMARK    6  A    between atoms: N_11  and  C_12
REMARK    7  A    between atoms: C_12  and  C_13
REMARK    8  A    between atoms: C_13  and  O_14
REMARK    9  A    between atoms: C_13  and  C_15
REMARK                            x       y       z     vdW  Elec       q    Type
REMARK                         _______ _______ _______ _____ _____    ______ ____
ROOT
ATOM      1  CA  UNL     1      46.879   6.785  12.272  0.00  0.00    +0.000 C 
ENDROOT
BRANCH   1   2
ATOM      2  C   UNL     1      47.221   5.881  13.441  0.00  0.00    +0.000 A 
ATOM      3  C   UNL     1      46.625   4.634  13.657  0.00  0.00    +0.000 A 
ATOM      4  C   UNL     1      46.962   3.878  14.780  0.00  0.00    +0.000 A 
ATOM      5  C   UNL     1      47.849   4.393  15.713  0.00  0.00    +0.000 A 
ATOM      6  N   UNL     1      48.053   3.659  16.883  0.00  0.00    +0.000 N 
ATOM      7  N   UNL     1      48.421   5.600  15.543  0.00  0.00    +0.000 NA
ATOM      8  C   UNL     1      48.110   6.305  14.426  0.00  0.00    +0.000 A 
ATOM      9  H   UNL     1      48.445   2.741  16.680  0.00  0.00    +0.000 HD
BRANCH   6  10
ATOM     10  C   UNL     1      48.790   4.340  17.948  0.00  0.00    +0.000 C 
BRANCH  10  11
ATOM     11  C   UNL     1      47.912   4.370  19.212  0.00  0.00    +0.000 C 
BRANCH  11  12
ATOM     12  C   UNL     1      47.749   5.790  19.717  0.00  0.00    +0.000 A 
ATOM     13  C   UNL     1      47.745   6.857  18.820  0.00  0.00    +0.000 A 
ATOM     14  C   UNL     1      47.609   8.149  19.318  0.00  0.00    +0.000 A 
ATOM     15  C   UNL     1      47.483   8.339  20.688  0.00  0.00    +0.000 A 
ATOM     16  C   UNL     1      47.499   7.224  21.511  0.00  0.00    +0.000 A 
ATOM     17  N   UNL     1      47.630   5.956  21.061  0.00  0.00    +0.000 NA
ENDBRANCH  11  12
BRANCH  11  18
ATOM     18  O   UNL     1      48.531   3.548  20.223  0.00  0.00    +0.000 OA
ATOM     19  H   UNL     1      48.955   2.823  19.718  0.00  0.00    +0.000 HD
ENDBRANCH  11  18
ENDBRANCH  10  11
ENDBRANCH   6  10
ENDBRANCH   1   2
BRANCH   1  22
ATOM     20  O   UNL     1      44.092   6.850  11.396  0.00  0.00    +0.000 OA
ATOM     21  C   UNL     1      44.869   5.972  11.015  0.00  0.00    +0.000 C 
ATOM     22  N   UNL     1      46.226   5.987  11.243  0.00  0.00    +0.000 N 
ATOM     23  H   UNL     1      46.720   5.136  11.027  0.00  0.00    +0.000 HD
BRANCH  21  24
ATOM     24  C   UNL     1      44.449   4.682  10.486  0.00  0.00    +0.000 A 
ATOM     25  C   UNL     1      43.707   3.752  11.196  0.00  0.00    +0.000 A 
ATOM     26  N   UNL     1      44.066   2.516  10.718  0.00  0.00    +0.000 N 
ATOM     27  C   UNL     1      44.877   2.653   9.614  0.00  0.00    +0.000 A 
ATOM     28  C   UNL     1      45.597   1.720   8.884  0.00  0.00    +0.000 A 
ATOM     29  N   UNL     1      46.279   2.126   7.786  0.00  0.00    +0.000 NA
ATOM     30  C   UNL     1      46.227   3.425   7.419  0.00  0.00    +0.000 A 
ATOM     31  C   UNL     1      45.587   4.417   8.140  0.00  0.00    +0.000 A 
ATOM     32  C   UNL     1      44.932   4.011   9.315  0.00  0.00    +0.000 A 
ATOM     33  H   UNL     1      43.842   1.638  11.166  0.00  0.00    +0.000 HD
ENDBRANCH  21  24
ENDBRANCH   1  22
BRANCH   1  34
ATOM     34  C   UNL     1      48.118   7.462  11.643  0.00  0.00    +0.000 C 
BRANCH  34  35
ATOM     35  O   UNL     1      48.127   8.878  11.825  0.00  0.00    +0.000 OA
ATOM     36  H   UNL     1      47.232   9.207  11.636  0.00  0.00    +0.000 HD
ENDBRANCH  34  35
ENDBRANCH   1  34
TORSDOF 9
ENDMDL
MODEL 8
REMARK VINA RESULT:    -7.400      1.569      2.034
REMARK INTER + INTRA:         -11.983
REMARK INTER:                 -10.864
REMARK INTRA:                  -1.118
REMARK UNBOUND:                -1.121
REMARK  Name = 
REMARK  9 active torsions:
REMARK  status: ('A' for Active; 'I' for Inactive)
REMARK    1  A    between atoms: C_2  and  C_23
REMARK    2  A    between atoms: N_3  and  CA_4
REMARK    3  A    between atoms: CA_4  and  C_5
REMARK    4  A    between atoms: CA_4  and  C_7
REMARK    5  A    between atoms: C_5  and  O_6
REMARK    6  A    between atoms: N_11  and  C_12
REMARK    7  A    between atoms: C_12  and  C_13
REMARK    8  A    between atoms: C_13  and  O_14
REMARK    9  A    between atoms: C_13  and  C_15
REMARK                            x       y       z     vdW  Elec       q    Type
REMARK                         _______ _______ _______ _____ _____    ______ ____
ROOT
ATOM      1  CA  UNL     1      48.743   8.279  14.437  0.00  0.00    +0.000 C 
ENDROOT
BRANCH   1   2
ATOM      2  C   UNL     1      47.645   7.663  13.590  0.00  0.00    +0.000 A 
ATOM      3  C   UNL     1      46.442   8.311  13.291  0.00  0.00    +0.000 A 
ATOM      4  C   UNL     1      45.462   7.660  12.541  0.00  0.00    +0.000 A 
ATOM      5  C   UNL     1      45.662   6.348  12.140  0.00  0.00    +0.000 A 
ATOM      6  N   UNL     1      44.601   5.698  11.507  0.00  0.00    +0.000 N 
ATOM      7  N   UNL     1      46.801   5.692  12.433  0.00  0.00    +0.000 NA
ATOM      8  C   UNL     1      47.759   6.353  13.132  0.00  0.00    +0.000 A 
ATOM      9  H   UNL     1      44.347   6.164  10.637  0.00  0.00    +0.000 HD
BRANCH   6  10
ATOM     10  C   UNL     1      44.750   4.254  11.324  0.00  0.00    +0.000 C 
BRANCH  10  11
ATOM     11  C   UNL     1      44.060   3.851  10.007  0.00  0.00    +0.000 C 
BRANCH  11  12
ATOM     12  C   UNL     1      45.079   3.371   8.995  0.00  0.00    +0.000 A 
ATOM     13  C   UNL     1      45.408   2.018   8.917  0.00  0.00    +0.000 A 
ATOM     14  C   UNL     1      46.359   1.613   7.986  0.00  0.00    +0.000 A 
ATOM     15  C   UNL     1      46.954   2.563   7.165  0.00  0.00    +0.000 A 
ATOM     16  C   UNL     1      46.572   3.887   7.308  0.00  0.00    +0.000 A 
ATOM     17  N   UNL     1      45.652   4.315   8.201  0.00  0.00    +0.000 NA
ENDBRANCH  11  12
BRANCH  11  18
ATOM     18  O   UNL     1      43.344   4.992   9.494  0.00  0.00    +0.000 OA
ATOM     19  H   UNL     1      43.991   5.726   9.544  0.00  0.00    +0.000 HD
ENDBRANCH  11  18
ENDBRANCH  10  11
ENDBRANCH   6  10
ENDBRANCH   1   2
BRANCH   1  22
ATOM     20  O   UNL     1      50.607   6.495  15.810  0.00  0.00    +0.000 OA
ATOM     21  C   UNL     1      49.500   6.762  16.284  0.00  0.00    +0.000 C 
ATOM     22  N   UNL     1      48.656   7.727  15.784  0.00  0.00    +0.000 N 
ATOM     23  H   UNL     1      47.720   7.733  16.155  0.00  0.00    +0.000 HD
BRANCH  21  24
ATOM     24  C   UNL     1      48.818   5.947  17.279  0.00  0.00    +0.000 A 
ATOM     25  C   UNL     1      47.759   5.099  16.999  0.00  0.00    +0.000 A 
ATOM     26  N   UNL     1      46.988   5.047  18.134  0.00  0.00    +0.000 N 
ATOM     27  C   UNL     1      47.623   5.696  19.168  0.00  0.00    +0.000 A 
ATOM     28  C   UNL     1      47.192   6.033  20.442  0.00  0.00    +0.000 A 
ATOM     29  N   UNL     1      48.058   6.631  21.294  0.00  0.00    +0.000 NA
ATOM     30  C   UNL     1      49.325   6.868  20.890  0.00  0.00    +0.000 A 
ATOM     31  C   UNL     1      49.798   6.622  19.613  0.00  0.00    +0.000 A 
ATOM     32  C   UNL     1      48.884   6.061  18.706  0.00  0.00    +0.000 A 
ATOM     33  H   UNL     1      46.052   4.669  18.176  0.00  0.00    +0.000 HD
ENDBRANCH  21  24
ENDBRANCH   1  22
BRANCH   1  34
ATOM     34  C   UNL     1      48.641   9.818  14.540  0.00  0.00    +0.000 C 
BRANCH  34  35
ATOM     35  O   UNL     1      48.385  10.268  15.870  0.00  0.00    +0.000 OA
ATOM     36  H   UNL     1      48.951  11.040  16.036  0.00  0.00    +0.000 HD
ENDBRANCH  34  35
ENDBRANCH   1  34
TORSDOF 9
ENDMDL
MODEL 9
REMARK VINA RESULT:    -7.265      2.289      8.688
REMARK INTER + INTRA:         -11.784
REMARK INTER:                 -10.220
REMARK INTRA:                  -1.564
REMARK UNBOUND:                -1.121
REMARK  Name = 
REMARK  9 active torsions:
REMARK  status: ('A' for Active; 'I' for Inactive)
REMARK    1  A    between atoms: C_2  and  C_23
REMARK    2  A    between atoms: N_3  and  CA_4
REMARK    3  A    between atoms: CA_4  and  C_5
REMARK    4  A    between atoms: CA_4  and  C_7
REMARK    5  A    between atoms: C_5  and  O_6
REMARK    6  A    between atoms: N_11  and  C_12
REMARK    7  A    between atoms: C_12  and  C_13
REMARK    8  A    between atoms: C_13  and  O_14
REMARK    9  A    between atoms: C_13  and  C_15
REMARK                            x       y       z     vdW  Elec       q    Type
REMARK                         _______ _______ _______ _____ _____    ______ ____
ROOT
ATOM      1  CA  UNL     1      44.672   7.475  11.981  0.00  0.00    +0.000 C 
ENDROOT
BRANCH   1   2
ATOM      2  C   UNL     1      46.062   7.303  12.565  0.00  0.00    +0.000 A 
ATOM      3  C   UNL     1      46.804   6.121  12.463  0.00  0.00    +0.000 A 
ATOM      4  C   UNL     1      48.059   6.026  13.064  0.00  0.00    +0.000 A 
ATOM      5  C   UNL     1      48.545   7.089  13.812  0.00  0.00    +0.000 A 
ATOM      6  N   UNL     1      49.743   6.898  14.502  0.00  0.00    +0.000 N 
ATOM      7  N   UNL     1      47.842   8.229  13.946  0.00  0.00    +0.000 NA
ATOM      8  C   UNL     1      46.639   8.318  13.323  0.00  0.00    +0.000 A 
ATOM      9  H   UNL     1      50.512   6.701  13.862  0.00  0.00    +0.000 HD
BRANCH   6  10
ATOM     10  C   UNL     1      50.098   7.934  15.472  0.00  0.00    +0.000 C 
BRANCH  10  11
ATOM     11  C   UNL     1      49.521   7.541  16.845  0.00  0.00    +0.000 C 
BRANCH  11  12
ATOM     12  C   UNL     1      49.615   6.043  17.054  0.00  0.00    +0.000 A 
ATOM     13  C   UNL     1      50.832   5.457  17.402  0.00  0.00    +0.000 A 
ATOM     14  C   UNL     1      50.886   4.078  17.572  0.00  0.00    +0.000 A 
ATOM     15  C   UNL     1      49.732   3.325  17.390  0.00  0.00    +0.000 A 
ATOM     16  C   UNL     1      48.564   3.984  17.042  0.00  0.00    +0.000 A 
ATOM     17  N   UNL     1      48.477   5.322  16.869  0.00  0.00    +0.000 NA
ENDBRANCH  11  12
BRANCH  11  18
ATOM     18  O   UNL     1      48.146   7.970  16.908  0.00  0.00    +0.000 OA
ATOM     19  H   UNL     1      47.637   7.137  16.992  0.00  0.00    +0.000 HD
ENDBRANCH  11  18
ENDBRANCH  10  11
ENDBRANCH   6  10
ENDBRANCH   1   2
BRANCH   1  22
ATOM     20  O   UNL     1      42.143   6.066  11.576  0.00  0.00    +0.000 OA
ATOM     21  C   UNL     1      43.204   5.636  11.116  0.00  0.00    +0.000 C 
ATOM     22  N   UNL     1      44.388   6.337  11.115  0.00  0.00    +0.000 N 
ATOM     23  H   UNL     1      45.211   5.815  10.863  0.00  0.00    +0.000 HD
BRANCH  21  24
ATOM     24  C   UNL     1      43.425   4.250  10.730  0.00  0.00    +0.000 A 
ATOM     25  C   UNL     1      43.282   3.170  11.584  0.00  0.00    +0.000 A 
ATOM     26  N   UNL     1      44.159   2.207  11.150  0.00  0.00    +0.000 N 
ATOM     27  C   UNL     1      44.718   2.583   9.951  0.00  0.00    +0.000 A 
ATOM     28  C   UNL     1      45.745   2.026   9.203  0.00  0.00    +0.000 A 
ATOM     29  N   UNL     1      46.062   2.576   8.007  0.00  0.00    +0.000 NA
ATOM     30  C   UNL     1      45.359   3.641   7.562  0.00  0.00    +0.000 A 
ATOM     31  C   UNL     1      44.373   4.286   8.287  0.00  0.00    +0.000 A 
ATOM     32  C   UNL     1      44.085   3.757   9.556  0.00  0.00    +0.000 A 
ATOM     33  H   UNL     1      44.422   1.387  11.680  0.00  0.00    +0.000 HD
ENDBRANCH  21  24
ENDBRANCH   1  22
BRANCH   1  34
ATOM     34  C   UNL     1      44.517   8.766  11.145  0.00  0.00    +0.000 C 
BRANCH  34  35
ATOM     35  O   UNL     1      43.160   9.044  10.802  0.00  0.00    +0.000 OA
ATOM     36  H   UNL     1      42.692   9.287  11.618  0.00  0.00    +0.000 HD
ENDBRANCH  34  35
ENDBRANCH   1  34
TORSDOF 9
ENDMDL
