MODEL 1
REMARK VINA RESULT:    -9.352      0.000      0.000
REMARK INTER + INTRA:         -12.736
REMARK INTER:                 -12.359
REMARK INTRA:                  -0.377
REMARK UNBOUND:                -0.377
REMARK  Name = 
REMARK  6 active torsions:
REMARK  status: ('A' for Active; 'I' for Inactive)
REMARK    1  A    between atoms: C_2  and  C_19
REMARK    2  A    between atoms: N_3  and  C_4
REMARK    3  A    between atoms: C_4  and  C_5
REMARK    4  A    between atoms: N_8  and  C_9
REMARK    5  A    between atoms: C_9  and  C_10
REMARK    6  A    between atoms: C_13  and  O_14
REMARK                            x       y       z     vdW  Elec       q    Type
REMARK                         _______ _______ _______ _____ _____    ______ ____
ROOT
ATOM      1  C   UNL     1      44.848   5.029  13.146  0.00  0.00    +0.000 C 
ENDROOT
BRANCH   1   2
ATOM      2  C   UNL     1      44.559   5.999  11.984  0.00  0.00    +0.000 C 
ATOM      3  C   UNL     1      43.211   5.671  11.336  0.00  0.00    +0.000 C 
ATOM      4  C   UNL     1      43.239   4.288  10.690  0.00  0.00    +0.000 C 
ATOM      5  N   UNL     1      44.280   4.176   9.657  0.00  0.00    +0.000 NA
ATOM      6  C   UNL     1      45.612   4.632  10.105  0.00  0.00    +0.000 C 
ATOM      7  C   UNL     1      45.608   5.963  10.865  0.00  0.00    +0.000 C 
BRANCH   5   8
ATOM      8  C   UNL     1      44.397   2.776   9.179  0.00  0.00    +0.000 C 
BRANCH   8   9
ATOM      9  C   UNL     1      45.544   2.563   8.211  0.00  0.00    +0.000 A 
ATOM     10  C   UNL     1      45.848   3.542   7.253  0.00  0.00    +0.000 A 
ATOM     11  C   UNL     1      46.834   3.308   6.293  0.00  0.00    +0.000 A 
ATOM     12  C   UNL     1      47.526   2.101   6.302  0.00  0.00    +0.000 A 
ATOM     13  C   UNL     1      47.261   1.133   7.262  0.00  0.00    +0.000 A 
ATOM     14  C   UNL     1      46.270   1.362   8.217  0.00  0.00    +0.000 A 
BRANCH  12  15
ATOM     15  O   UNL     1      48.472   1.820   5.361  0.00  0.00    +0.000 OA
ATOM     16  H   UNL     1      48.670   2.637   4.874  0.00  0.00    +0.000 HD
ENDBRANCH  12  15
ENDBRANCH   8   9
ENDBRANCH   5   8
ENDBRANCH   1   2
BRANCH   1  19
ATOM     17  O   UNL     1      47.080   3.532  14.046  0.00  0.00    +0.000 OA
ATOM     18  C   UNL     1      46.948   4.691  14.416  0.00  0.00    +0.000 C 
ATOM     19  N   UNL     1      45.894   5.497  14.024  0.00  0.00    +0.000 N 
ATOM     20  H   UNL     1      45.856   6.455  14.340  0.00  0.00    +0.000 HD
BRANCH  18  21
ATOM     21  C   UNL     1      47.875   5.332  15.344  0.00  0.00    +0.000 A 
ATOM     22  C   UNL     1      48.742   6.346  14.968  0.00  0.00    +0.000 A 
ATOM     23  S   UNL     1      49.663   6.961  16.266  0.00  0.00    +0.000 S 
ATOM     24  C   UNL     1      48.917   5.904  17.373  0.00  0.00    +0.000 A 
ATOM     25  N   UNL     1      49.243   5.925  18.688  0.00  0.00    +0.000 NA
ATOM     26  C   UNL     1      48.590   5.076  19.412  0.00  0.00    +0.000 A 
ATOM     27  N   UNL     1      47.647   4.204  18.934  0.00  0.00    +0.000 N 
ATOM     28  C   UNL     1      47.337   4.090  17.595  0.00  0.00    +0.000 A 
ATOM     29  O   UNL     1      46.621   3.180  17.192  0.00  0.00    +0.000 OA
ATOM     30  C   UNL     1      47.996   5.074  16.754  0.00  0.00    +0.000 A 
ATOM     31  H   UNL     1      47.212   3.527  19.541  0.00  0.00    +0.000 HD
ENDBRANCH  18  21
ENDBRANCH   1  19
TORSDOF 6
ENDMDL
MODEL 2
REMARK VINA RESULT:    -8.767      1.406      2.098
REMARK INTER + INTRA:         -11.962
REMARK INTER:                 -11.744
REMARK INTRA:                  -0.219
REMARK UNBOUND:                -0.377
REMARK  Name = 
REMARK  6 active torsions:
REMARK  status: ('A' for Active; 'I' for Inactive)
REMARK    1  A    between atoms: C_2  and  C_19
REMARK    2  A    between atoms: N_3  and  C_4
REMARK    3  A    between atoms: C_4  and  C_5
REMARK    4  A    between atoms: N_8  and  C_9
REMARK    5  A    between atoms: C_9  and  C_10
REMARK    6  A    between atoms: C_13  and  O_14
REMARK                            x       y       z     vdW  Elec       q    Type
REMARK                         _______ _______ _______ _____ _____    ______ ____
ROOT
ATOM      1  C   UNL     1      45.616   4.222  13.236  0.00  0.00    +0.000 C 
ENDROOT
BRANCH   1   2
ATOM      2  C   UNL     1      44.878   5.275  12.387  0.00  0.00    +0.000 C 
ATOM      3  C   UNL     1      43.452   4.811  12.080  0.00  0.00    +0.000 C 
ATOM      4  C   UNL     1      43.464   3.553  11.214  0.00  0.00    +0.000 C 
ATOM      5  N   UNL     1      44.161   3.762   9.935  0.00  0.00    +0.000 NA
ATOM      6  C   UNL     1      45.496   4.376  10.081  0.00  0.00    +0.000 C 
ATOM      7  C   UNL     1      45.547   5.572  11.039  0.00  0.00    +0.000 C 
BRANCH   5   8
ATOM      8  C   UNL     1      44.309   2.480   9.202  0.00  0.00    +0.000 C 
BRANCH   8   9
ATOM      9  C   UNL     1      45.477   2.470   8.237  0.00  0.00    +0.000 A 
ATOM     10  C   UNL     1      45.680   3.548   7.363  0.00  0.00    +0.000 A 
ATOM     11  C   UNL     1      46.691   3.499   6.402  0.00  0.00    +0.000 A 
ATOM     12  C   UNL     1      47.508   2.376   6.326  0.00  0.00    +0.000 A 
ATOM     13  C   UNL     1      47.344   1.312   7.203  0.00  0.00    +0.000 A 
ATOM     14  C   UNL     1      46.329   1.357   8.159  0.00  0.00    +0.000 A 
BRANCH  12  15
ATOM     15  O   UNL     1      48.485   2.275   5.380  0.00  0.00    +0.000 OA
ATOM     16  H   UNL     1      49.143   1.631   5.689  0.00  0.00    +0.000 HD
ENDBRANCH  12  15
ENDBRANCH   8   9
ENDBRANCH   5   8
ENDBRANCH   1   2
BRANCH   1  19
ATOM     17  O   UNL     1      47.599   2.993  14.846  0.00  0.00    +0.000 OA
ATOM     18  C   UNL     1      47.180   4.101  15.154  0.00  0.00    +0.000 C 
ATOM     19  N   UNL     1      46.218   4.778  14.425  0.00  0.00    +0.000 N 
ATOM     20  H   UNL     1      45.934   5.703  14.713  0.00  0.00    +0.000 HD
BRANCH  18  21
ATOM     21  C   UNL     1      47.628   4.809  16.350  0.00  0.00    +0.000 A 
ATOM     22  C   UNL     1      47.250   4.442  17.632  0.00  0.00    +0.000 A 
ATOM     23  S   UNL     1      47.973   5.396  18.847  0.00  0.00    +0.000 S 
ATOM     24  C   UNL     1      48.829   6.316  17.698  0.00  0.00    +0.000 A 
ATOM     25  N   UNL     1      49.666   7.310  18.081  0.00  0.00    +0.000 NA
ATOM     26  C   UNL     1      50.256   7.916  17.103  0.00  0.00    +0.000 A 
ATOM     27  N   UNL     1      50.074   7.619  15.777  0.00  0.00    +0.000 N 
ATOM     28  C   UNL     1      49.176   6.670  15.333  0.00  0.00    +0.000 A 
ATOM     29  O   UNL     1      48.919   6.560  14.140  0.00  0.00    +0.000 OA
ATOM     30  C   UNL     1      48.544   5.916  16.402  0.00  0.00    +0.000 A 
ATOM     31  H   UNL     1      50.522   8.165  15.057  0.00  0.00    +0.000 HD
ENDBRANCH  18  21
ENDBRANCH   1  19
TORSDOF 6
ENDMDL
MODEL 3
REMARK VINA RESULT:    -8.616      1.597      2.795
REMARK INTER + INTRA:         -11.764
REMARK INTER:                 -11.175
REMARK INTRA:                  -0.589
REMARK UNBOUND:                -0.377
REMARK  Name = 
REMARK  6 active torsions:
REMARK  status: ('A' for Active; 'I' for Inactive)
REMARK    1  A    between atoms: C_2  and  C_19
REMARK    2  A    between atoms: N_3  and  C_4
REMARK    3  A    between atoms: C_4  and  C_5
REMARK    4  A    between atoms: N_8  and  C_9
REMARK    5  A    between atoms: C_9  and  C_10
REMARK    6  A    between atoms: C_13  and  O_14
REMARK                            x       y       z     vdW  Elec       q    Type
REMARK                         _______ _______ _______ _____ _____    ______ ____
ROOT
ATOM      1  C   UNL     1      44.814   4.745  13.345  0.00  0.00    +0.000 C 
ENDROOT
BRANCH   1   2
ATOM      2  C   UNL     1      44.296   5.614  12.182  0.00  0.00    +0.000 C 
ATOM      3  C   UNL     1      42.995   5.036  11.621  0.00  0.00    +0.000 C 
ATOM      4  C   UNL     1      43.233   3.661  11.001  0.00  0.00    +0.000 C 
ATOM      5  N   UNL     1      44.221   3.703   9.912  0.00  0.00    +0.000 NA
ATOM      6  C   UNL     1      45.473   4.398  10.273  0.00  0.00    +0.000 C 
ATOM      7  C   UNL     1      45.274   5.730  11.006  0.00  0.00    +0.000 C 
BRANCH   5   8
ATOM      8  C   UNL     1      44.558   2.331   9.456  0.00  0.00    +0.000 C 
BRANCH   8   9
ATOM      9  C   UNL     1      45.541   2.305   8.303  0.00  0.00    +0.000 A 
ATOM     10  C   UNL     1      46.356   1.181   8.097  0.00  0.00    +0.000 A 
ATOM     11  C   UNL     1      47.335   1.190   7.101  0.00  0.00    +0.000 A 
ATOM     12  C   UNL     1      47.487   2.319   6.303  0.00  0.00    +0.000 A 
ATOM     13  C   UNL     1      46.669   3.430   6.470  0.00  0.00    +0.000 A 
ATOM     14  C   UNL     1      45.696   3.424   7.470  0.00  0.00    +0.000 A 
BRANCH  12  15
ATOM     15  O   UNL     1      48.453   2.382   5.342  0.00  0.00    +0.000 OA
ATOM     16  H   UNL     1      49.239   2.803   5.727  0.00  0.00    +0.000 HD
ENDBRANCH  12  15
ENDBRANCH   8   9
ENDBRANCH   5   8
ENDBRANCH   1   2
BRANCH   1  19
ATOM     17  O   UNL     1      47.117   3.419  14.330  0.00  0.00    +0.000 OA
ATOM     18  C   UNL     1      46.998   4.624  14.508  0.00  0.00    +0.000 C 
ATOM     19  N   UNL     1      45.912   5.353  14.058  0.00  0.00    +0.000 N 
ATOM     20  H   UNL     1      45.885   6.351  14.210  0.00  0.00    +0.000 HD
BRANCH  18  21
ATOM     21  C   UNL     1      47.978   5.411  15.250  0.00  0.00    +0.000 A 
ATOM     22  C   UNL     1      48.190   5.267  16.612  0.00  0.00    +0.000 A 
ATOM     23  S   UNL     1      49.441   6.262  17.210  0.00  0.00    +0.000 S 
ATOM     24  C   UNL     1      49.751   6.901  15.662  0.00  0.00    +0.000 A 
ATOM     25  N   UNL     1      50.734   7.813  15.467  0.00  0.00    +0.000 NA
ATOM     26  C   UNL     1      50.863   8.202  14.241  0.00  0.00    +0.000 A 
ATOM     27  N   UNL     1      50.090   7.765  13.197  0.00  0.00    +0.000 N 
ATOM     28  C   UNL     1      49.028   6.898  13.357  0.00  0.00    +0.000 A 
ATOM     29  O   UNL     1      48.258   6.672  12.431  0.00  0.00    +0.000 OA
ATOM     30  C   UNL     1      48.892   6.381  14.708  0.00  0.00    +0.000 A 
ATOM     31  H   UNL     1      50.203   8.148  12.272  0.00  0.00    +0.000 HD
ENDBRANCH  18  21
ENDBRANCH   1  19
TORSDOF 6
ENDMDL
MODEL 4
REMARK VINA RESULT:    -8.593      1.063      1.724
REMARK INTER + INTRA:         -11.732
REMARK INTER:                 -11.057
REMARK INTRA:                  -0.675
REMARK UNBOUND:                -0.377
REMARK  Name = 
REMARK  6 active torsions:
REMARK  status: ('A' for Active; 'I' for Inactive)
REMARK    1  A    between atoms: C_2  and  C_19
REMARK    2  A    between atoms: N_3  and  C_4
REMARK    3  A    between atoms: C_4  and  C_5
REMARK    4  A    between atoms: N_8  and  C_9
REMARK    5  A    between atoms: C_9  and  C_10
REMARK    6  A    between atoms: C_13  and  O_14
REMARK                            x       y       z     vdW  Elec       q    Type
REMARK                         _______ _______ _______ _____ _____    ______ ____
ROOT
ATOM      1  C   UNL     1      45.463   6.121  12.977  0.00  0.00    +0.000 C 
ENDROOT
BRANCH   1   2
ATOM      2  C   UNL     1      44.550   4.898  13.188  0.00  0.00    +0.000 C 
ATOM      3  C   UNL     1      45.182   3.646  12.575  0.00  0.00    +0.000 C 
ATOM      4  C   UNL     1      45.302   3.784  11.058  0.00  0.00    +0.000 C 
ATOM      5  N   UNL     1      43.998   3.999  10.412  0.00  0.00    +0.000 NA
ATOM      6  C   UNL     1      43.202   5.079  11.029  0.00  0.00    +0.000 C 
ATOM      7  C   UNL     1      43.157   5.043  12.562  0.00  0.00    +0.000 C 
BRANCH   5   8
ATOM      8  C   UNL     1      44.171   4.306   8.971  0.00  0.00    +0.000 C 
BRANCH   8   9
ATOM      9  C   UNL     1      45.197   3.425   8.286  0.00  0.00    +0.000 A 
ATOM     10  C   UNL     1      45.297   2.067   8.623  0.00  0.00    +0.000 A 
ATOM     11  C   UNL     1      46.306   1.274   8.073  0.00  0.00    +0.000 A 
ATOM     12  C   UNL     1      47.205   1.839   7.174  0.00  0.00    +0.000 A 
ATOM     13  C   UNL     1      47.102   3.174   6.803  0.00  0.00    +0.000 A 
ATOM     14  C   UNL     1      46.099   3.968   7.359  0.00  0.00    +0.000 A 
BRANCH  12  15
ATOM     15  O   UNL     1      48.225   1.108   6.640  0.00  0.00    +0.000 OA
ATOM     16  H   UNL     1      48.175   0.207   6.998  0.00  0.00    +0.000 HD
ENDBRANCH  12  15
ENDBRANCH   8   9
ENDBRANCH   5   8
ENDBRANCH   1   2
BRANCH   1  19
ATOM     17  O   UNL     1      48.230   5.506  12.931  0.00  0.00    +0.000 OA
ATOM     18  C   UNL     1      47.739   5.981  13.946  0.00  0.00    +0.000 C 
ATOM     19  N   UNL     1      46.402   6.316  14.057  0.00  0.00    +0.000 N 
ATOM     20  H   UNL     1      46.062   6.732  14.912  0.00  0.00    +0.000 HD
BRANCH  18  21
ATOM     21  C   UNL     1      48.513   6.208  15.163  0.00  0.00    +0.000 A 
ATOM     22  C   UNL     1      49.502   7.174  15.262  0.00  0.00    +0.000 A 
ATOM     23  S   UNL     1      50.198   7.271  16.816  0.00  0.00    +0.000 S 
ATOM     24  C   UNL     1      49.185   6.038  17.410  0.00  0.00    +0.000 A 
ATOM     25  N   UNL     1      49.255   5.639  18.704  0.00  0.00    +0.000 NA
ATOM     26  C   UNL     1      48.420   4.703  19.017  0.00  0.00    +0.000 A 
ATOM     27  N   UNL     1      47.529   4.128  18.149  0.00  0.00    +0.000 N 
ATOM     28  C   UNL     1      47.473   4.444  16.807  0.00  0.00    +0.000 A 
ATOM     29  O   UNL     1      46.787   3.784  16.035  0.00  0.00    +0.000 OA
ATOM     30  C   UNL     1      48.345   5.542  16.426  0.00  0.00    +0.000 A 
ATOM     31  H   UNL     1      46.941   3.363  18.441  0.00  0.00    +0.000 HD
ENDBRANCH  18  21
ENDBRANCH   1  19
TORSDOF 6
ENDMDL
MODEL 5
REMARK VINA RESULT:    -8.457      1.852      2.214
REMARK INTER + INTRA:         -11.553
REMARK INTER:                 -11.552
REMARK INTRA:                  -0.001
REMARK UNBOUND:                -0.377
REMARK  Name = 
REMARK  6 active torsions:
REMARK  status: ('A' for Active; 'I' for Inactive)
REMARK    1  A    between atoms: C_2  and  C_19
REMARK    2  A    between atoms: N_3  and  C_4
REMARK    3  A    between atoms: C_4  and  C_5
REMARK    4  A    between atoms: N_8  and  C_9
REMARK    5  A    between atoms: C_9  and  C_10
REMARK    6  A    between atoms: C_13  and  O_14
REMARK                            x       y       z     vdW  Elec       q    Type
REMARK                         _______ _______ _______ _____ _____    ______ ____
ROOT
ATOM      1  C   UNL     1      45.900   4.582  14.028  0.00  0.00    +0.000 C 
ENDROOT
BRANCH   1   2
ATOM      2  C   UNL     1      45.408   5.776  13.188  0.00  0.00    +0.000 C 
ATOM      3  C   UNL     1      43.909   5.650  12.905  0.00  0.00    +0.000 C 
ATOM      4  C   UNL     1      43.620   4.423  12.042  0.00  0.00    +0.000 C 
ATOM      5  N   UNL     1      44.325   4.469  10.752  0.00  0.00    +0.000 NA
ATOM      6  C   UNL     1      45.768   4.763  10.875  0.00  0.00    +0.000 C 
ATOM      7  C   UNL     1      46.105   5.914  11.830  0.00  0.00    +0.000 C 
BRANCH   5   8
ATOM      8  C   UNL     1      44.165   3.189  10.020  0.00  0.00    +0.000 C 
BRANCH   8   9
ATOM      9  C   UNL     1      45.165   3.009   8.896  0.00  0.00    +0.000 A 
ATOM     10  C   UNL     1      45.760   1.757   8.674  0.00  0.00    +0.000 A 
ATOM     11  C   UNL     1      46.757   1.609   7.708  0.00  0.00    +0.000 A 
ATOM     12  C   UNL     1      47.147   2.711   6.954  0.00  0.00    +0.000 A 
ATOM     13  C   UNL     1      46.547   3.951   7.136  0.00  0.00    +0.000 A 
ATOM     14  C   UNL     1      45.557   4.101   8.107  0.00  0.00    +0.000 A 
BRANCH  12  15
ATOM     15  O   UNL     1      48.140   2.616   6.024  0.00  0.00    +0.000 OA
ATOM     16  H   UNL     1      47.952   1.852   5.454  0.00  0.00    +0.000 HD
ENDBRANCH  12  15
ENDBRANCH   8   9
ENDBRANCH   5   8
ENDBRANCH   1   2
BRANCH   1  19
ATOM     17  O   UNL     1      46.581   3.481  16.550  0.00  0.00    +0.000 OA
ATOM     18  C   UNL     1      47.328   4.302  16.033  0.00  0.00    +0.000 C 
ATOM     19  N   UNL     1      47.079   4.886  14.804  0.00  0.00    +0.000 N 
ATOM     20  H   UNL     1      47.748   5.535  14.417  0.00  0.00    +0.000 HD
BRANCH  18  21
ATOM     21  C   UNL     1      48.546   4.777  16.683  0.00  0.00    +0.000 A 
ATOM     22  C   UNL     1      48.749   6.103  17.032  0.00  0.00    +0.000 A 
ATOM     23  S   UNL     1      50.228   6.369  17.840  0.00  0.00    +0.000 S 
ATOM     24  C   UNL     1      50.633   4.717  17.765  0.00  0.00    +0.000 A 
ATOM     25  N   UNL     1      51.789   4.255  18.301  0.00  0.00    +0.000 NA
ATOM     26  C   UNL     1      51.960   2.980  18.180  0.00  0.00    +0.000 A 
ATOM     27  N   UNL     1      51.080   2.129  17.562  0.00  0.00    +0.000 N 
ATOM     28  C   UNL     1      49.930   2.560  16.934  0.00  0.00    +0.000 A 
ATOM     29  O   UNL     1      49.266   1.793  16.246  0.00  0.00    +0.000 OA
ATOM     30  C   UNL     1      49.663   3.978  17.108  0.00  0.00    +0.000 A 
ATOM     31  H   UNL     1      51.297   1.151  17.451  0.00  0.00    +0.000 HD
ENDBRANCH  18  21
ENDBRANCH   1  19
TORSDOF 6
ENDMDL
MODEL 6
REMARK VINA RESULT:    -7.832      3.788      5.147
REMARK INTER + INTRA:         -10.727
REMARK INTER:                  -9.900
REMARK INTRA:                  -0.827
REMARK UNBOUND:                -0.377
REMARK  Name = 
REMARK  6 active torsions:
REMARK  status: ('A' for Active; 'I' for Inactive)
REMARK    1  A    between atoms: C_2  and  C_19
REMARK    2  A    between atoms: N_3  and  C_4
REMARK    3  A    between atoms: C_4  and  C_5
REMARK    4  A    between atoms: N_8  and  C_9
REMARK    5  A    between atoms: C_9  and  C_10
REMARK    6  A    between atoms: C_13  and  O_14
REMARK                            x       y       z     vdW  Elec       q    Type
REMARK                         _______ _______ _______ _____ _____    ______ ____
ROOT
ATOM      1  C   UNL     1      44.039   5.971  12.910  0.00  0.00    +0.000 C 
ENDROOT
BRANCH   1   2
ATOM      2  C   UNL     1      44.510   4.567  13.333  0.00  0.00    +0.000 C 
ATOM      3  C   UNL     1      45.785   4.181  12.579  0.00  0.00    +0.000 C 
ATOM      4  C   UNL     1      45.516   4.065  11.080  0.00  0.00    +0.000 C 
ATOM      5  N   UNL     1      44.484   3.063  10.774  0.00  0.00    +0.000 NA
ATOM      6  C   UNL     1      43.251   3.219  11.571  0.00  0.00    +0.000 C 
ATOM      7  C   UNL     1      43.485   3.458  13.068  0.00  0.00    +0.000 C 
BRANCH   5   8
ATOM      8  C   UNL     1      44.123   3.104   9.335  0.00  0.00    +0.000 C 
BRANCH   8   9
ATOM      9  C   UNL     1      45.283   2.785   8.413  0.00  0.00    +0.000 A 
ATOM     10  C   UNL     1      45.848   1.501   8.410  0.00  0.00    +0.000 A 
ATOM     11  C   UNL     1      46.981   1.229   7.641  0.00  0.00    +0.000 A 
ATOM     12  C   UNL     1      47.538   2.239   6.863  0.00  0.00    +0.000 A 
ATOM     13  C   UNL     1      46.973   3.508   6.828  0.00  0.00    +0.000 A 
ATOM     14  C   UNL     1      45.846   3.782   7.603  0.00  0.00    +0.000 A 
BRANCH  12  15
ATOM     15  O   UNL     1      48.664   2.024   6.124  0.00  0.00    +0.000 OA
ATOM     16  H   UNL     1      49.430   2.318   6.643  0.00  0.00    +0.000 HD
ENDBRANCH  12  15
ENDBRANCH   8   9
ENDBRANCH   5   8
ENDBRANCH   1   2
BRANCH   1  19
ATOM     17  O   UNL     1      45.057   7.443  10.712  0.00  0.00    +0.000 OA
ATOM     18  C   UNL     1      45.531   7.625  11.825  0.00  0.00    +0.000 C 
ATOM     19  N   UNL     1      45.093   6.957  12.955  0.00  0.00    +0.000 N 
ATOM     20  H   UNL     1      45.504   7.173  13.851  0.00  0.00    +0.000 HD
BRANCH  18  21
ATOM     21  C   UNL     1      46.638   8.545  12.069  0.00  0.00    +0.000 A 
ATOM     22  C   UNL     1      47.955   8.130  12.189  0.00  0.00    +0.000 A 
ATOM     23  S   UNL     1      49.052   9.419  12.402  0.00  0.00    +0.000 S 
ATOM     24  C   UNL     1      47.803  10.573  12.321  0.00  0.00    +0.000 A 
ATOM     25  N   UNL     1      48.068  11.898  12.417  0.00  0.00    +0.000 NA
ATOM     26  C   UNL     1      47.026  12.657  12.328  0.00  0.00    +0.000 A 
ATOM     27  N   UNL     1      45.743  12.206  12.160  0.00  0.00    +0.000 N 
ATOM     28  C   UNL     1      45.412  10.867  12.135  0.00  0.00    +0.000 A 
ATOM     29  O   UNL     1      44.240  10.509  12.160  0.00  0.00    +0.000 OA
ATOM     30  C   UNL     1      46.561   9.978  12.160  0.00  0.00    +0.000 A 
ATOM     31  H   UNL     1      44.964  12.847  12.153  0.00  0.00    +0.000 HD
ENDBRANCH  18  21
ENDBRANCH   1  19
TORSDOF 6
ENDMDL
MODEL 7
REMARK VINA RESULT:    -7.607      3.740      8.424
REMARK INTER + INTRA:         -10.430
REMARK INTER:                  -9.592
REMARK INTRA:                  -0.838
REMARK UNBOUND:                -0.377
REMARK  Name = 
REMARK  6 active torsions:
REMARK  status: ('A' for Active; 'I' for Inactive)
REMARK    1  A    between atoms: C_2  and  C_19
REMARK    2  A    between atoms: N_3  and  C_4
REMARK    3  A    between atoms: C_4  and  C_5
REMARK    4  A    between atoms: N_8  and  C_9
REMARK    5  A    between atoms: C_9  and  C_10
REMARK    6  A    between atoms: C_13  and  O_14
REMARK                            x       y       z     vdW  Elec       q    Type
REMARK                         _______ _______ _______ _____ _____    ______ ____
ROOT
ATOM      1  C   UNL     1      49.328   7.414  15.881  0.00  0.00    +0.000 C 
ENDROOT
BRANCH   1   2
ATOM      2  C   UNL     1      49.080   8.468  16.977  0.00  0.00    +0.000 C 
ATOM      3  C   UNL     1      50.289   8.563  17.911  0.00  0.00    +0.000 C 
ATOM      4  C   UNL     1      50.494   7.254  18.671  0.00  0.00    +0.000 C 
ATOM      5  N   UNL     1      49.320   6.889  19.479  0.00  0.00    +0.000 NA
ATOM      6  C   UNL     1      48.048   6.929  18.730  0.00  0.00    +0.000 C 
ATOM      7  C   UNL     1      47.860   8.177  17.859  0.00  0.00    +0.000 C 
BRANCH   5   8
ATOM      8  C   UNL     1      49.483   5.532  20.058  0.00  0.00    +0.000 C 
BRANCH   8   9
ATOM      9  C   UNL     1      49.461   4.428  19.020  0.00  0.00    +0.000 A 
ATOM     10  C   UNL     1      50.659   3.973  18.449  0.00  0.00    +0.000 A 
ATOM     11  C   UNL     1      50.638   3.030  17.419  0.00  0.00    +0.000 A 
ATOM     12  C   UNL     1      49.418   2.531  16.973  0.00  0.00    +0.000 A 
ATOM     13  C   UNL     1      48.223   2.945  17.549  0.00  0.00    +0.000 A 
ATOM     14  C   UNL     1      48.243   3.893  18.572  0.00  0.00    +0.000 A 
BRANCH  12  15
ATOM     15  O   UNL     1      49.352   1.635  15.948  0.00  0.00    +0.000 OA
ATOM     16  H   UNL     1      48.670   1.934  15.325  0.00  0.00    +0.000 HD
ENDBRANCH  12  15
ENDBRANCH   8   9
ENDBRANCH   5   8
ENDBRANCH   1   2
BRANCH   1  19
ATOM     17  O   UNL     1      49.258   6.463  13.211  0.00  0.00    +0.000 OA
ATOM     18  C   UNL     1      48.206   6.656  13.806  0.00  0.00    +0.000 C 
ATOM     19  N   UNL     1      48.144   7.112  15.110  0.00  0.00    +0.000 N 
ATOM     20  H   UNL     1      47.246   7.224  15.557  0.00  0.00    +0.000 HD
BRANCH  18  21
ATOM     21  C   UNL     1      46.901   6.456  13.183  0.00  0.00    +0.000 A 
ATOM     22  C   UNL     1      46.140   7.496  12.671  0.00  0.00    +0.000 A 
ATOM     23  S   UNL     1      44.691   6.974  11.938  0.00  0.00    +0.000 S 
ATOM     24  C   UNL     1      45.045   5.341  12.266  0.00  0.00    +0.000 A 
ATOM     25  N   UNL     1      44.203   4.352  11.878  0.00  0.00    +0.000 NA
ATOM     26  C   UNL     1      44.604   3.162  12.184  0.00  0.00    +0.000 A 
ATOM     27  N   UNL     1      45.768   2.877  12.849  0.00  0.00    +0.000 N 
ATOM     28  C   UNL     1      46.618   3.850  13.333  0.00  0.00    +0.000 A 
ATOM     29  O   UNL     1      47.552   3.558  14.071  0.00  0.00    +0.000 OA
ATOM     30  C   UNL     1      46.242   5.200  12.949  0.00  0.00    +0.000 A 
ATOM     31  H   UNL     1      45.999   1.930  13.108  0.00  0.00    +0.000 HD
ENDBRANCH  18  21
ENDBRANCH   1  19
TORSDOF 6
ENDMDL
MODEL 8
REMARK VINA RESULT:    -7.325      3.439      9.372
REMARK INTER + INTRA:         -10.057
REMARK INTER:                  -9.264
REMARK INTRA:                  -0.793
REMARK UNBOUND:                -0.377
REMARK  Name = 
REMARK  6 active torsions:
REMARK  status: ('A' for Active; 'I' for Inactive)
REMARK    1  A    between atoms: C_2  and  C_19
REMARK    2  A    between atoms: N_3  and  C_4
REMARK    3  A    between atoms: C_4  and  C_5
REMARK    4  A    between atoms: N_8  and  C_9
REMARK    5  A    between atoms: C_9  and  C_10
REMARK    6  A    between atoms: C_13  and  O_14
REMARK                            x       y       z     vdW  Elec       q    Type
REMARK                         _______ _______ _______ _____ _____    ______ ____
ROOT
ATOM      1  C   UNL     1      48.376   5.298  15.810  0.00  0.00    +0.000 C 
ENDROOT
BRANCH   1   2
ATOM      2  C   UNL     1      48.207   4.085  16.745  0.00  0.00    +0.000 C 
ATOM      3  C   UNL     1      47.022   4.299  17.691  0.00  0.00    +0.000 C 
ATOM      4  C   UNL     1      47.279   5.478  18.627  0.00  0.00    +0.000 C 
ATOM      5  N   UNL     1      48.487   5.288  19.445  0.00  0.00    +0.000 NA
ATOM      6  C   UNL     1      49.679   4.901  18.663  0.00  0.00    +0.000 C 
ATOM      7  C   UNL     1      49.430   3.799  17.625  0.00  0.00    +0.000 C 
BRANCH   5   8
ATOM      8  C   UNL     1      48.804   6.522  20.207  0.00  0.00    +0.000 C 
BRANCH   8   9
ATOM      9  C   UNL     1      48.380   7.793  19.499  0.00  0.00    +0.000 A 
ATOM     10  C   UNL     1      49.013   8.183  18.310  0.00  0.00    +0.000 A 
ATOM     11  C   UNL     1      48.700   9.404  17.709  0.00  0.00    +0.000 A 
ATOM     12  C   UNL     1      47.740  10.226  18.292  0.00  0.00    +0.000 A 
ATOM     13  C   UNL     1      47.079   9.842  19.452  0.00  0.00    +0.000 A 
ATOM     14  C   UNL     1      47.398   8.626  20.056  0.00  0.00    +0.000 A 
BRANCH  12  15
ATOM     15  O   UNL     1      47.429  11.440  17.755  0.00  0.00    +0.000 OA
ATOM     16  H   UNL     1      47.760  12.131  18.352  0.00  0.00    +0.000 HD
ENDBRANCH  12  15
ENDBRANCH   8   9
ENDBRANCH   5   8
ENDBRANCH   1   2
BRANCH   1  19
ATOM     17  O   UNL     1      48.590   6.128  13.108  0.00  0.00    +0.000 OA
ATOM     18  C   UNL     1      47.488   5.858  13.566  0.00  0.00    +0.000 C 
ATOM     19  N   UNL     1      47.289   5.440  14.870  0.00  0.00    +0.000 N 
ATOM     20  H   UNL     1      46.359   5.204  15.181  0.00  0.00    +0.000 HD
BRANCH  18  21
ATOM     21  C   UNL     1      46.259   5.987  12.789  0.00  0.00    +0.000 A 
ATOM     22  C   UNL     1      45.760   7.207  12.359  0.00  0.00    +0.000 A 
ATOM     23  S   UNL     1      44.349   7.063  11.411  0.00  0.00    +0.000 S 
ATOM     24  C   UNL     1      44.373   5.364  11.530  0.00  0.00    +0.000 A 
ATOM     25  N   UNL     1      43.431   4.607  10.916  0.00  0.00    +0.000 NA
ATOM     26  C   UNL     1      43.580   3.334  11.083  0.00  0.00    +0.000 A 
ATOM     27  N   UNL     1      44.583   2.754  11.816  0.00  0.00    +0.000 N 
ATOM     28  C   UNL     1      45.517   3.482  12.523  0.00  0.00    +0.000 A 
ATOM     29  O   UNL     1      46.285   2.930  13.303  0.00  0.00    +0.000 OA
ATOM     30  C   UNL     1      45.430   4.916  12.306  0.00  0.00    +0.000 A 
ATOM     31  H   UNL     1      44.613   1.756  11.955  0.00  0.00    +0.000 HD
ENDBRANCH  18  21
ENDBRANCH   1  19
TORSDOF 6
ENDMDL
MODEL 9
REMARK VINA RESULT:    -6.975      3.359      8.768
REMARK INTER + INTRA:          -9.594
REMARK INTER:                  -8.995
REMARK INTRA:                  -0.600
REMARK UNBOUND:                -0.377
REMARK  Name = 
REMARK  6 active torsions:
REMARK  status: ('A' for Active; 'I' for Inactive)
REMARK    1  A    between atoms: C_2  and  C_19
REMARK    2  A    between atoms: N_3  and  C_4
REMARK    3  A    between atoms: C_4  and  C_5
REMARK    4  A    between atoms: N_8  and  C_9
REMARK    5  A    between atoms: C_9  and  C_10
REMARK    6  A    between atoms: C_13  and  O_14
REMARK                            x       y       z     vdW  Elec       q    Type
REMARK                         _______ _______ _______ _____ _____    ______ ____
ROOT
ATOM      1  C   UNL     1      48.103   5.180  16.015  0.00  0.00    +0.000 C 
ENDROOT
BRANCH   1   2
ATOM      2  C   UNL     1      47.767   4.041  16.997  0.00  0.00    +0.000 C 
ATOM      3  C   UNL     1      47.513   4.601  18.399  0.00  0.00    +0.000 C 
ATOM      4  C   UNL     1      48.777   5.242  18.967  0.00  0.00    +0.000 C 
ATOM      5  N   UNL     1      49.896   4.290  19.051  0.00  0.00    +0.000 NA
ATOM      6  C   UNL     1      50.137   3.545  17.799  0.00  0.00    +0.000 C 
ATOM      7  C   UNL     1      48.873   2.987  17.134  0.00  0.00    +0.000 C 
BRANCH   5   8
ATOM      8  C   UNL     1      51.149   4.985  19.435  0.00  0.00    +0.000 C 
BRANCH   8   9
ATOM      9  C   UNL     1      51.909   5.553  18.254  0.00  0.00    +0.000 A 
ATOM     10  C   UNL     1      51.314   6.523  17.433  0.00  0.00    +0.000 A 
ATOM     11  C   UNL     1      51.967   6.974  16.284  0.00  0.00    +0.000 A 
ATOM     12  C   UNL     1      53.223   6.466  15.967  0.00  0.00    +0.000 A 
ATOM     13  C   UNL     1      53.843   5.530  16.786  0.00  0.00    +0.000 A 
ATOM     14  C   UNL     1      53.187   5.073  17.929  0.00  0.00    +0.000 A 
BRANCH  12  15
ATOM     15  O   UNL     1      53.880   6.856  14.838  0.00  0.00    +0.000 OA
ATOM     16  H   UNL     1      54.281   6.070  14.431  0.00  0.00    +0.000 HD
ENDBRANCH  12  15
ENDBRANCH   8   9
ENDBRANCH   5   8
ENDBRANCH   1   2
BRANCH   1  19
ATOM     17  O   UNL     1      48.548   6.115  13.377  0.00  0.00    +0.000 OA
ATOM     18  C   UNL     1      47.411   5.822  13.725  0.00  0.00    +0.000 C 
ATOM     19  N   UNL     1      47.102   5.353  14.989  0.00  0.00    +0.000 N 
ATOM     20  H   UNL     1      46.150   5.100  15.207  0.00  0.00    +0.000 HD
BRANCH  18  21
ATOM     21  C   UNL     1      46.255   5.974  12.847  0.00  0.00    +0.000 A 
ATOM     22  C   UNL     1      45.795   7.206  12.409  0.00  0.00    +0.000 A 
ATOM     23  S   UNL     1      44.472   7.090  11.338  0.00  0.00    +0.000 S 
ATOM     24  C   UNL     1      44.486   5.389  11.412  0.00  0.00    +0.000 A 
ATOM     25  N   UNL     1      43.602   4.650  10.698  0.00  0.00    +0.000 NA
ATOM     26  C   UNL     1      43.737   3.373  10.843  0.00  0.00    +0.000 A 
ATOM     27  N   UNL     1      44.671   2.772  11.644  0.00  0.00    +0.000 N 
ATOM     28  C   UNL     1      45.541   3.479  12.449  0.00  0.00    +0.000 A 
ATOM     29  O   UNL     1      46.237   2.903  13.278  0.00  0.00    +0.000 OA
ATOM     30  C   UNL     1      45.472   4.918  12.264  0.00  0.00    +0.000 A 
ATOM     31  H   UNL     1      44.690   1.770  11.758  0.00  0.00    +0.000 HD
ENDBRANCH  18  21
ENDBRANCH   1  19
TORSDOF 6
ENDMDL
