MODEL 1
REMARK VINA RESULT:    -8.496      0.000      0.000
REMARK INTER + INTRA:         -13.151
REMARK INTER:                 -11.973
REMARK INTRA:                  -1.178
REMARK UNBOUND:                -1.178
REMARK  Name = 
REMARK  9 active torsions:
REMARK  status: ('A' for Active; 'I' for Inactive)
REMARK    1  A    between atoms: C_1  and  C_2
REMARK    2  A    between atoms: C_4  and  O_5
REMARK    3  A    between atoms: O_5  and  C_6
REMARK    4  A    between atoms: C_6  and  C_7
REMARK    5  A    between atoms: C_7  and  C_8
REMARK    6  A    between atoms: C_7  and  C_9
REMARK    7  A    between atoms: C_13  and  O_14
REMARK    8  A    between atoms: O_14  and  C_15
REMARK    9  A    between atoms: C_22  and  C_23
REMARK                            x       y       z     vdW  Elec       q    Type
REMARK                         _______ _______ _______ _____ _____    ______ ____
ROOT
ATOM      1  C   UNL     1      44.173   3.210  11.664  0.00  0.00    +0.000 C 
ENDROOT
BRANCH   1   2
ATOM      2  C   UNL     1      43.996   4.614  12.275  0.00  0.00    +0.000 C 
ATOM      3  C   UNL     1      43.104   5.504  11.403  0.00  0.00    +0.000 C 
BRANCH   2   4
ATOM      4  C   UNL     1      45.353   5.263  12.520  0.00  0.00    +0.000 A 
ATOM      5  C   UNL     1      45.909   6.171  11.606  0.00  0.00    +0.000 A 
ATOM      6  C   UNL     1      47.158   6.751  11.843  0.00  0.00    +0.000 A 
ATOM      7  C   UNL     1      47.879   6.427  12.993  0.00  0.00    +0.000 A 
ATOM      8  C   UNL     1      47.352   5.514  13.903  0.00  0.00    +0.000 A 
ATOM      9  C   UNL     1      46.090   4.948  13.673  0.00  0.00    +0.000 A 
BRANCH   8  10
ATOM     10  O   UNL     1      47.968   5.125  15.066  0.00  0.00    +0.000 OA
BRANCH  10  11
ATOM     11  C   UNL     1      47.263   4.229  15.956  0.00  0.00    +0.000 C 
ATOM     12  C   UNL     1      47.287   4.535  17.460  0.00  0.00    +0.000 C 
ATOM     13  O   UNL     1      47.768   3.204  17.771  0.00  0.00    +0.000 OA
ATOM     14  C   UNL     1      48.036   2.967  16.368  0.00  0.00    +0.000 C 
ENDBRANCH  10  11
ENDBRANCH   8  10
ENDBRANCH   2   4
ENDBRANCH   1   2
BRANCH   1  15
ATOM     15  O   UNL     1      43.651   3.150  10.330  0.00  0.00    +0.000 OA
BRANCH  15  19
ATOM     16  C   UNL     1      46.653   0.180   7.728  0.00  0.00    +0.000 C 
ATOM     17  C   UNL     1      46.096   1.554   7.994  0.00  0.00    +0.000 A 
ATOM     18  C   UNL     1      45.151   1.693   9.030  0.00  0.00    +0.000 A 
ATOM     19  C   UNL     1      44.577   2.927   9.340  0.00  0.00    +0.000 A 
ATOM     20  C   UNL     1      44.958   4.048   8.602  0.00  0.00    +0.000 A 
ATOM     21  C   UNL     1      45.896   3.933   7.568  0.00  0.00    +0.000 A 
ATOM     22  C   UNL     1      46.467   2.688   7.248  0.00  0.00    +0.000 A 
BRANCH  22  23
ATOM     23  C   UNL     1      47.474   2.596   6.144  0.00  0.00    +0.000 C 
ATOM     24  N   UNL     1      48.787   2.800   6.470  0.00  0.00    +0.000 N 
ATOM     25  O   UNL     1      47.167   2.371   4.980  0.00  0.00    +0.000 OA
ATOM     26  H   UNL     1      49.088   3.180   7.355  0.00  0.00    +0.000 HD
ATOM     27  H   UNL     1      49.441   2.826   5.697  0.00  0.00    +0.000 HD
ENDBRANCH  22  23
ENDBRANCH  15  19
ENDBRANCH   1  15
TORSDOF 7
ENDMDL
MODEL 2
REMARK VINA RESULT:    -7.209      2.054      3.419
REMARK INTER + INTRA:         -11.337
REMARK INTER:                 -10.515
REMARK INTRA:                  -0.821
REMARK UNBOUND:                -1.178
REMARK  Name = 
REMARK  9 active torsions:
REMARK  status: ('A' for Active; 'I' for Inactive)
REMARK    1  A    between atoms: C_1  and  C_2
REMARK    2  A    between atoms: C_4  and  O_5
REMARK    3  A    between atoms: O_5  and  C_6
REMARK    4  A    between atoms: C_6  and  C_7
REMARK    5  A    between atoms: C_7  and  C_8
REMARK    6  A    between atoms: C_7  and  C_9
REMARK    7  A    between atoms: C_13  and  O_14
REMARK    8  A    between atoms: O_14  and  C_15
REMARK    9  A    between atoms: C_22  and  C_23
REMARK                            x       y       z     vdW  Elec       q    Type
REMARK                         _______ _______ _______ _____ _____    ______ ____
ROOT
ATOM      1  C   UNL     1      43.914   4.554  10.763  0.00  0.00    +0.000 C 
ENDROOT
BRANCH   1   2
ATOM      2  C   UNL     1      43.976   4.502  12.302  0.00  0.00    +0.000 C 
ATOM      3  C   UNL     1      42.756   5.174  12.943  0.00  0.00    +0.000 C 
BRANCH   2   4
ATOM      4  C   UNL     1      45.275   5.121  12.805  0.00  0.00    +0.000 A 
ATOM      5  C   UNL     1      46.067   4.483  13.772  0.00  0.00    +0.000 A 
ATOM      6  C   UNL     1      47.251   5.069  14.226  0.00  0.00    +0.000 A 
ATOM      7  C   UNL     1      47.662   6.307  13.730  0.00  0.00    +0.000 A 
ATOM      8  C   UNL     1      46.879   6.963  12.784  0.00  0.00    +0.000 A 
ATOM      9  C   UNL     1      45.701   6.366  12.314  0.00  0.00    +0.000 A 
BRANCH   8  10
ATOM     10  O   UNL     1      47.186   8.179  12.224  0.00  0.00    +0.000 OA
BRANCH  10  11
ATOM     11  C   UNL     1      48.373   8.870  12.679  0.00  0.00    +0.000 C 
ATOM     12  C   UNL     1      48.246  10.352  13.061  0.00  0.00    +0.000 C 
ATOM     13  O   UNL     1      49.325  10.722  12.167  0.00  0.00    +0.000 OA
ATOM     14  C   UNL     1      49.290   9.404  11.568  0.00  0.00    +0.000 C 
ENDBRANCH  10  11
ENDBRANCH   8  10
ENDBRANCH   2   4
ENDBRANCH   1   2
BRANCH   1  15
ATOM     15  O   UNL     1      43.823   3.240  10.198  0.00  0.00    +0.000 OA
BRANCH  15  19
ATOM     16  C   UNL     1      46.719   0.094   7.683  0.00  0.00    +0.000 C 
ATOM     17  C   UNL     1      46.199   1.491   7.901  0.00  0.00    +0.000 A 
ATOM     18  C   UNL     1      45.271   1.695   8.941  0.00  0.00    +0.000 A 
ATOM     19  C   UNL     1      44.731   2.955   9.208  0.00  0.00    +0.000 A 
ATOM     20  C   UNL     1      45.131   4.035   8.422  0.00  0.00    +0.000 A 
ATOM     21  C   UNL     1      46.054   3.856   7.383  0.00  0.00    +0.000 A 
ATOM     22  C   UNL     1      46.589   2.586   7.106  0.00  0.00    +0.000 A 
BRANCH  22  23
ATOM     23  C   UNL     1      47.581   2.424   5.995  0.00  0.00    +0.000 C 
ATOM     24  N   UNL     1      48.908   2.440   6.328  0.00  0.00    +0.000 N 
ATOM     25  O   UNL     1      47.252   2.304   4.822  0.00  0.00    +0.000 OA
ATOM     26  H   UNL     1      49.252   2.729   7.232  0.00  0.00    +0.000 HD
ATOM     27  H   UNL     1      49.562   2.422   5.555  0.00  0.00    +0.000 HD
ENDBRANCH  22  23
ENDBRANCH  15  19
ENDBRANCH   1  15
TORSDOF 7
ENDMDL
MODEL 3
REMARK VINA RESULT:    -6.977      2.584      3.508
REMARK INTER + INTRA:         -11.011
REMARK INTER:                 -10.122
REMARK INTRA:                  -0.888
REMARK UNBOUND:                -1.178
REMARK  Name = 
REMARK  9 active torsions:
REMARK  status: ('A' for Active; 'I' for Inactive)
REMARK    1  A    between atoms: C_1  and  C_2
REMARK    2  A    between atoms: C_4  and  O_5
REMARK    3  A    between atoms: O_5  and  C_6
REMARK    4  A    between atoms: C_6  and  C_7
REMARK    5  A    between atoms: C_7  and  C_8
REMARK    6  A    between atoms: C_7  and  C_9
REMARK    7  A    between atoms: C_13  and  O_14
REMARK    8  A    between atoms: O_14  and  C_15
REMARK    9  A    between atoms: C_22  and  C_23
REMARK                            x       y       z     vdW  Elec       q    Type
REMARK                         _______ _______ _______ _____ _____    ______ ____
ROOT
ATOM      1  C   UNL     1      44.260   4.984  10.903  0.00  0.00    +0.000 C 
ENDROOT
BRANCH   1   2
ATOM      2  C   UNL     1      45.456   4.983  11.875  0.00  0.00    +0.000 C 
ATOM      3  C   UNL     1      45.106   4.304  13.204  0.00  0.00    +0.000 C 
BRANCH   2   4
ATOM      4  C   UNL     1      45.963   6.403  12.097  0.00  0.00    +0.000 A 
ATOM      5  C   UNL     1      45.155   7.388  12.686  0.00  0.00    +0.000 A 
ATOM      6  C   UNL     1      45.634   8.687  12.875  0.00  0.00    +0.000 A 
ATOM      7  C   UNL     1      46.925   9.029  12.471  0.00  0.00    +0.000 A 
ATOM      8  C   UNL     1      47.735   8.070  11.868  0.00  0.00    +0.000 A 
ATOM      9  C   UNL     1      47.260   6.762  11.697  0.00  0.00    +0.000 A 
BRANCH   8  10
ATOM     10  O   UNL     1      49.019   8.291  11.436  0.00  0.00    +0.000 OA
BRANCH  10  11
ATOM     11  C   UNL     1      49.912   9.050  12.283  0.00  0.00    +0.000 C 
ATOM     12  C   UNL     1      51.357   9.260  11.808  0.00  0.00    +0.000 C 
ATOM     13  O   UNL     1      51.891   8.735  13.048  0.00  0.00    +0.000 OA
ATOM     14  C   UNL     1      50.575   8.256  13.420  0.00  0.00    +0.000 C 
ENDBRANCH  10  11
ENDBRANCH   8  10
ENDBRANCH   2   4
ENDBRANCH   1   2
BRANCH   1  15
ATOM     15  O   UNL     1      44.020   3.675  10.367  0.00  0.00    +0.000 OA
BRANCH  15  19
ATOM     16  C   UNL     1      46.530   0.224   7.839  0.00  0.00    +0.000 C 
ATOM     17  C   UNL     1      46.142   1.666   8.035  0.00  0.00    +0.000 A 
ATOM     18  C   UNL     1      45.278   1.978   9.103  0.00  0.00    +0.000 A 
ATOM     19  C   UNL     1      44.860   3.286   9.352  0.00  0.00    +0.000 A 
ATOM     20  C   UNL     1      45.319   4.306   8.519  0.00  0.00    +0.000 A 
ATOM     21  C   UNL     1      46.180   4.020   7.451  0.00  0.00    +0.000 A 
ATOM     22  C   UNL     1      46.592   2.701   7.193  0.00  0.00    +0.000 A 
BRANCH  22  23
ATOM     23  C   UNL     1      47.520   2.424   6.050  0.00  0.00    +0.000 C 
ATOM     24  N   UNL     1      48.864   2.480   6.302  0.00  0.00    +0.000 N 
ATOM     25  O   UNL     1      47.127   2.176   4.918  0.00  0.00    +0.000 OA
ATOM     26  H   UNL     1      49.256   2.867   7.148  0.00  0.00    +0.000 HD
ATOM     27  H   UNL     1      49.474   2.382   5.500  0.00  0.00    +0.000 HD
ENDBRANCH  22  23
ENDBRANCH  15  19
ENDBRANCH   1  15
TORSDOF 7
ENDMDL
MODEL 4
REMARK VINA RESULT:    -6.730      2.524      7.235
REMARK INTER + INTRA:         -10.661
REMARK INTER:                 -10.596
REMARK INTRA:                  -0.066
REMARK UNBOUND:                -1.178
REMARK  Name = 
REMARK  9 active torsions:
REMARK  status: ('A' for Active; 'I' for Inactive)
REMARK    1  A    between atoms: C_1  and  C_2
REMARK    2  A    between atoms: C_4  and  O_5
REMARK    3  A    between atoms: O_5  and  C_6
REMARK    4  A    between atoms: C_6  and  C_7
REMARK    5  A    between atoms: C_7  and  C_8
REMARK    6  A    between atoms: C_7  and  C_9
REMARK    7  A    between atoms: C_13  and  O_14
REMARK    8  A    between atoms: O_14  and  C_15
REMARK    9  A    between atoms: C_22  and  C_23
REMARK                            x       y       z     vdW  Elec       q    Type
REMARK                         _______ _______ _______ _____ _____    ______ ____
ROOT
ATOM      1  C   UNL     1      43.034   4.922  11.718  0.00  0.00    +0.000 C 
ENDROOT
BRANCH   1   2
ATOM      2  C   UNL     1      43.234   3.515  11.121  0.00  0.00    +0.000 C 
ATOM      3  C   UNL     1      43.572   2.482  12.201  0.00  0.00    +0.000 C 
BRANCH   2   4
ATOM      4  C   UNL     1      44.300   3.546  10.032  0.00  0.00    +0.000 A 
ATOM      5  C   UNL     1      44.863   4.752   9.589  0.00  0.00    +0.000 A 
ATOM      6  C   UNL     1      45.834   4.762   8.584  0.00  0.00    +0.000 A 
ATOM      7  C   UNL     1      46.255   3.568   7.999  0.00  0.00    +0.000 A 
ATOM      8  C   UNL     1      45.695   2.362   8.413  0.00  0.00    +0.000 A 
ATOM      9  C   UNL     1      44.734   2.352   9.434  0.00  0.00    +0.000 A 
BRANCH   8  10
ATOM     10  O   UNL     1      46.033   1.130   7.912  0.00  0.00    +0.000 OA
BRANCH  10  11
ATOM     11  C   UNL     1      47.329   0.970   7.288  0.00  0.00    +0.000 C 
ATOM     12  C   UNL     1      48.013   2.217   6.711  0.00  0.00    +0.000 C 
ATOM     13  O   UNL     1      48.185   1.583   5.419  0.00  0.00    +0.000 OA
ATOM     14  C   UNL     1      47.301   0.509   5.822  0.00  0.00    +0.000 C 
ENDBRANCH  10  11
ENDBRANCH   8  10
ENDBRANCH   2   4
ENDBRANCH   1   2
BRANCH   1  15
ATOM     15  O   UNL     1      43.608   5.021  13.029  0.00  0.00    +0.000 OA
BRANCH  15  19
ATOM     16  C   UNL     1      46.653   8.868  12.302  0.00  0.00    +0.000 C 
ATOM     17  C   UNL     1      46.435   7.454  12.774  0.00  0.00    +0.000 A 
ATOM     18  C   UNL     1      45.136   6.917  12.671  0.00  0.00    +0.000 A 
ATOM     19  C   UNL     1      44.843   5.619  13.092  0.00  0.00    +0.000 A 
ATOM     20  C   UNL     1      45.869   4.838  13.623  0.00  0.00    +0.000 A 
ATOM     21  C   UNL     1      47.168   5.351  13.734  0.00  0.00    +0.000 A 
ATOM     22  C   UNL     1      47.462   6.663  13.320  0.00  0.00    +0.000 A 
BRANCH  22  23
ATOM     23  C   UNL     1      48.862   7.183  13.442  0.00  0.00    +0.000 C 
ATOM     24  N   UNL     1      49.722   6.923  12.410  0.00  0.00    +0.000 N 
ATOM     25  O   UNL     1      49.260   7.799  14.422  0.00  0.00    +0.000 OA
ATOM     26  H   UNL     1      49.525   6.262  11.674  0.00  0.00    +0.000 HD
ATOM     27  H   UNL     1      50.686   7.201  12.551  0.00  0.00    +0.000 HD
ENDBRANCH  22  23
ENDBRANCH  15  19
ENDBRANCH   1  15
TORSDOF 7
ENDMDL
MODEL 5
REMARK VINA RESULT:    -6.558      2.873      4.942
REMARK INTER + INTRA:         -10.419
REMARK INTER:                  -9.732
REMARK INTRA:                  -0.687
REMARK UNBOUND:                -1.178
REMARK  Name = 
REMARK  9 active torsions:
REMARK  status: ('A' for Active; 'I' for Inactive)
REMARK    1  A    between atoms: C_1  and  C_2
REMARK    2  A    between atoms: C_4  and  O_5
REMARK    3  A    between atoms: O_5  and  C_6
REMARK    4  A    between atoms: C_6  and  C_7
REMARK    5  A    between atoms: C_7  and  C_8
REMARK    6  A    between atoms: C_7  and  C_9
REMARK    7  A    between atoms: C_13  and  O_14
REMARK    8  A    between atoms: O_14  and  C_15
REMARK    9  A    between atoms: C_22  and  C_23
REMARK                            x       y       z     vdW  Elec       q    Type
REMARK                         _______ _______ _______ _____ _____    ______ ____
ROOT
ATOM      1  C   UNL     1      44.341   3.949  11.554  0.00  0.00    +0.000 C 
ENDROOT
BRANCH   1   2
ATOM      2  C   UNL     1      45.738   4.514  11.876  0.00  0.00    +0.000 C 
ATOM      3  C   UNL     1      46.278   3.974  13.204  0.00  0.00    +0.000 C 
BRANCH   2   4
ATOM      4  C   UNL     1      45.709   6.039  11.871  0.00  0.00    +0.000 A 
ATOM      5  C   UNL     1      46.807   6.795  12.306  0.00  0.00    +0.000 A 
ATOM      6  C   UNL     1      46.761   8.192  12.302  0.00  0.00    +0.000 A 
ATOM      7  C   UNL     1      45.613   8.858  11.871  0.00  0.00    +0.000 A 
ATOM      8  C   UNL     1      44.507   8.124  11.452  0.00  0.00    +0.000 A 
ATOM      9  C   UNL     1      44.561   6.723  11.439  0.00  0.00    +0.000 A 
BRANCH   8  10
ATOM     10  O   UNL     1      43.329   8.671  11.005  0.00  0.00    +0.000 OA
BRANCH  10  11
ATOM     11  C   UNL     1      43.284  10.092  10.742  0.00  0.00    +0.000 C 
ATOM     12  C   UNL     1      41.910  10.777  10.699  0.00  0.00    +0.000 C 
ATOM     13  O   UNL     1      42.178  11.338   9.391  0.00  0.00    +0.000 OA
ATOM     14  C   UNL     1      43.345  10.490   9.259  0.00  0.00    +0.000 C 
ENDBRANCH  10  11
ENDBRANCH   8  10
ENDBRANCH   2   4
ENDBRANCH   1   2
BRANCH   1  15
ATOM     15  O   UNL     1      43.986   4.176  10.184  0.00  0.00    +0.000 OA
BRANCH  15  19
ATOM     16  C   UNL     1      46.327   0.370   8.032  0.00  0.00    +0.000 C 
ATOM     17  C   UNL     1      46.061   1.850   8.120  0.00  0.00    +0.000 A 
ATOM     18  C   UNL     1      45.162   2.301   9.106  0.00  0.00    +0.000 A 
ATOM     19  C   UNL     1      44.850   3.654   9.252  0.00  0.00    +0.000 A 
ATOM     20  C   UNL     1      45.454   4.577   8.399  0.00  0.00    +0.000 A 
ATOM     21  C   UNL     1      46.351   4.151   7.411  0.00  0.00    +0.000 A 
ATOM     22  C   UNL     1      46.657   2.787   7.255  0.00  0.00    +0.000 A 
BRANCH  22  23
ATOM     23  C   UNL     1      47.628   2.361   6.197  0.00  0.00    +0.000 C 
ATOM     24  N   UNL     1      48.961   2.488   6.478  0.00  0.00    +0.000 N 
ATOM     25  O   UNL     1      47.277   1.933   5.106  0.00  0.00    +0.000 OA
ATOM     26  H   UNL     1      49.317   3.009   7.265  0.00  0.00    +0.000 HD
ATOM     27  H   UNL     1      49.599   2.282   5.718  0.00  0.00    +0.000 HD
ENDBRANCH  22  23
ENDBRANCH  15  19
ENDBRANCH   1  15
TORSDOF 7
ENDMDL
MODEL 6
REMARK VINA RESULT:    -6.546      2.894      8.523
REMARK INTER + INTRA:         -10.402
REMARK INTER:                  -9.693
REMARK INTRA:                  -0.709
REMARK UNBOUND:                -1.178
REMARK  Name = 
REMARK  9 active torsions:
REMARK  status: ('A' for Active; 'I' for Inactive)
REMARK    1  A    between atoms: C_1  and  C_2
REMARK    2  A    between atoms: C_4  and  O_5
REMARK    3  A    between atoms: O_5  and  C_6
REMARK    4  A    between atoms: C_6  and  C_7
REMARK    5  A    between atoms: C_7  and  C_8
REMARK    6  A    between atoms: C_7  and  C_9
REMARK    7  A    between atoms: C_13  and  O_14
REMARK    8  A    between atoms: O_14  and  C_15
REMARK    9  A    between atoms: C_22  and  C_23
REMARK                            x       y       z     vdW  Elec       q    Type
REMARK                         _______ _______ _______ _____ _____    ______ ____
ROOT
ATOM      1  C   UNL     1      45.779   6.023  12.765  0.00  0.00    +0.000 C 
ENDROOT
BRANCH   1   2
ATOM      2  C   UNL     1      45.474   6.436  11.313  0.00  0.00    +0.000 C 
ATOM      3  C   UNL     1      44.314   7.435  11.238  0.00  0.00    +0.000 C 
BRANCH   2   4
ATOM      4  C   UNL     1      45.200   5.206  10.455  0.00  0.00    +0.000 A 
ATOM      5  C   UNL     1      44.358   4.174  10.898  0.00  0.00    +0.000 A 
ATOM      6  C   UNL     1      44.124   3.050  10.102  0.00  0.00    +0.000 A 
ATOM      7  C   UNL     1      44.732   2.932   8.852  0.00  0.00    +0.000 A 
ATOM      8  C   UNL     1      45.585   3.938   8.403  0.00  0.00    +0.000 A 
ATOM      9  C   UNL     1      45.804   5.074   9.195  0.00  0.00    +0.000 A 
BRANCH   8  10
ATOM     10  O   UNL     1      46.233   3.930   7.193  0.00  0.00    +0.000 OA
BRANCH  10  11
ATOM     11  C   UNL     1      46.496   2.657   6.558  0.00  0.00    +0.000 C 
ATOM     12  C   UNL     1      47.765   1.894   6.963  0.00  0.00    +0.000 C 
ATOM     13  O   UNL     1      48.195   1.783   5.584  0.00  0.00    +0.000 OA
ATOM     14  C   UNL     1      47.180   2.735   5.184  0.00  0.00    +0.000 C 
ENDBRANCH  10  11
ENDBRANCH   8  10
ENDBRANCH   2   4
ENDBRANCH   1   2
BRANCH   1  15
ATOM     15  O   UNL     1      47.184   5.817  12.967  0.00  0.00    +0.000 OA
BRANCH  15  19
ATOM     16  C   UNL     1      49.746   6.948  17.061  0.00  0.00    +0.000 C 
ATOM     17  C   UNL     1      48.792   6.036  16.335  0.00  0.00    +0.000 A 
ATOM     18  C   UNL     1      48.452   6.359  15.007  0.00  0.00    +0.000 A 
ATOM     19  C   UNL     1      47.569   5.574  14.263  0.00  0.00    +0.000 A 
ATOM     20  C   UNL     1      47.017   4.439  14.857  0.00  0.00    +0.000 A 
ATOM     21  C   UNL     1      47.342   4.098  16.177  0.00  0.00    +0.000 A 
ATOM     22  C   UNL     1      48.223   4.894  16.930  0.00  0.00    +0.000 A 
BRANCH  22  23
ATOM     23  C   UNL     1      48.559   4.501  18.336  0.00  0.00    +0.000 C 
ATOM     24  N   UNL     1      49.517   3.540  18.509  0.00  0.00    +0.000 N 
ATOM     25  O   UNL     1      48.003   4.984  19.313  0.00  0.00    +0.000 OA
ATOM     26  H   UNL     1      49.870   2.965  17.759  0.00  0.00    +0.000 HD
ATOM     27  H   UNL     1      49.665   3.222  19.459  0.00  0.00    +0.000 HD
ENDBRANCH  22  23
ENDBRANCH  15  19
ENDBRANCH   1  15
TORSDOF 7
ENDMDL
MODEL 7
REMARK VINA RESULT:    -6.227      2.994      8.118
REMARK INTER + INTRA:          -9.953
REMARK INTER:                  -8.850
REMARK INTRA:                  -1.102
REMARK UNBOUND:                -1.178
REMARK  Name = 
REMARK  9 active torsions:
REMARK  status: ('A' for Active; 'I' for Inactive)
REMARK    1  A    between atoms: C_1  and  C_2
REMARK    2  A    between atoms: C_4  and  O_5
REMARK    3  A    between atoms: O_5  and  C_6
REMARK    4  A    between atoms: C_6  and  C_7
REMARK    5  A    between atoms: C_7  and  C_8
REMARK    6  A    between atoms: C_7  and  C_9
REMARK    7  A    between atoms: C_13  and  O_14
REMARK    8  A    between atoms: O_14  and  C_15
REMARK    9  A    between atoms: C_22  and  C_23
REMARK                            x       y       z     vdW  Elec       q    Type
REMARK                         _______ _______ _______ _____ _____    ______ ____
ROOT
ATOM      1  C   UNL     1      47.425   6.566  12.446  0.00  0.00    +0.000 C 
ENDROOT
BRANCH   1   2
ATOM      2  C   UNL     1      46.078   7.089  11.911  0.00  0.00    +0.000 C 
ATOM      3  C   UNL     1      45.542   8.248  12.757  0.00  0.00    +0.000 C 
BRANCH   2   4
ATOM      4  C   UNL     1      45.064   5.954  11.822  0.00  0.00    +0.000 A 
ATOM      5  C   UNL     1      44.124   5.728  12.839  0.00  0.00    +0.000 A 
ATOM      6  C   UNL     1      43.207   4.678  12.745  0.00  0.00    +0.000 A 
ATOM      7  C   UNL     1      43.216   3.831  11.637  0.00  0.00    +0.000 A 
ATOM      8  C   UNL     1      44.153   4.028  10.626  0.00  0.00    +0.000 A 
ATOM      9  C   UNL     1      45.061   5.093  10.713  0.00  0.00    +0.000 A 
BRANCH   8  10
ATOM     10  O   UNL     1      44.253   3.261   9.492  0.00  0.00    +0.000 OA
BRANCH  10  11
ATOM     11  C   UNL     1      45.559   3.074   8.897  0.00  0.00    +0.000 C 
ATOM     12  C   UNL     1      45.740   3.444   7.418  0.00  0.00    +0.000 C 
ATOM     13  O   UNL     1      46.276   2.135   7.107  0.00  0.00    +0.000 OA
ATOM     14  C   UNL     1      45.861   1.650   8.408  0.00  0.00    +0.000 C 
ENDBRANCH  10  11
ENDBRANCH   8  10
ENDBRANCH   2   4
ENDBRANCH   1   2
BRANCH   1  15
ATOM     15  O   UNL     1      47.780   7.202  13.682  0.00  0.00    +0.000 OA
BRANCH  15  19
ATOM     16  C   UNL     1      50.180   6.023  17.859  0.00  0.00    +0.000 C 
ATOM     17  C   UNL     1      49.174   5.671  16.794  0.00  0.00    +0.000 A 
ATOM     18  C   UNL     1      48.965   6.596  15.753  0.00  0.00    +0.000 A 
ATOM     19  C   UNL     1      48.045   6.355  14.730  0.00  0.00    +0.000 A 
ATOM     20  C   UNL     1      47.324   5.162  14.745  0.00  0.00    +0.000 A 
ATOM     21  C   UNL     1      47.516   4.227  15.770  0.00  0.00    +0.000 A 
ATOM     22  C   UNL     1      48.434   4.473  16.807  0.00  0.00    +0.000 A 
BRANCH  22  23
ATOM     23  C   UNL     1      48.627   3.452  17.886  0.00  0.00    +0.000 C 
ATOM     24  N   UNL     1      47.943   3.637  19.057  0.00  0.00    +0.000 N 
ATOM     25  O   UNL     1      49.376   2.492  17.767  0.00  0.00    +0.000 OA
ATOM     26  H   UNL     1      47.471   4.496  19.296  0.00  0.00    +0.000 HD
ATOM     27  H   UNL     1      48.157   2.989  19.805  0.00  0.00    +0.000 HD
ENDBRANCH  22  23
ENDBRANCH  15  19
ENDBRANCH   1  15
TORSDOF 7
ENDMDL
MODEL 8
REMARK VINA RESULT:    -6.119      2.973      5.247
REMARK INTER + INTRA:          -9.801
REMARK INTER:                  -8.642
REMARK INTRA:                  -1.159
REMARK UNBOUND:                -1.178
REMARK  Name = 
REMARK  9 active torsions:
REMARK  status: ('A' for Active; 'I' for Inactive)
REMARK    1  A    between atoms: C_1  and  C_2
REMARK    2  A    between atoms: C_4  and  O_5
REMARK    3  A    between atoms: O_5  and  C_6
REMARK    4  A    between atoms: C_6  and  C_7
REMARK    5  A    between atoms: C_7  and  C_8
REMARK    6  A    between atoms: C_7  and  C_9
REMARK    7  A    between atoms: C_13  and  O_14
REMARK    8  A    between atoms: O_14  and  C_15
REMARK    9  A    between atoms: C_22  and  C_23
REMARK                            x       y       z     vdW  Elec       q    Type
REMARK                         _______ _______ _______ _____ _____    ______ ____
ROOT
ATOM      1  C   UNL     1      48.623   8.012  11.737  0.00  0.00    +0.000 C 
ENDROOT
BRANCH   1   2
ATOM      2  C   UNL     1      49.574   8.721  12.721  0.00  0.00    +0.000 C 
ATOM      3  C   UNL     1      51.042   8.392  12.429  0.00  0.00    +0.000 C 
BRANCH   2   4
ATOM      4  C   UNL     1      49.206   8.375  14.159  0.00  0.00    +0.000 A 
ATOM      5  C   UNL     1      48.865   9.369  15.089  0.00  0.00    +0.000 A 
ATOM      6  C   UNL     1      48.538   9.035  16.406  0.00  0.00    +0.000 A 
ATOM      7  C   UNL     1      48.554   7.703  16.820  0.00  0.00    +0.000 A 
ATOM      8  C   UNL     1      48.908   6.704  15.916  0.00  0.00    +0.000 A 
ATOM      9  C   UNL     1      49.217   7.039  14.591  0.00  0.00    +0.000 A 
BRANCH   8  10
ATOM     10  O   UNL     1      48.954   5.364  16.211  0.00  0.00    +0.000 OA
BRANCH  10  11
ATOM     11  C   UNL     1      47.715   4.617  16.229  0.00  0.00    +0.000 C 
ATOM     12  C   UNL     1      46.998   4.438  17.574  0.00  0.00    +0.000 C 
ATOM     13  O   UNL     1      46.951   2.999  17.411  0.00  0.00    +0.000 OA
ATOM     14  C   UNL     1      47.868   3.090  16.294  0.00  0.00    +0.000 C 
ENDBRANCH  10  11
ENDBRANCH   8  10
ENDBRANCH   2   4
ENDBRANCH   1   2
BRANCH   1  15
ATOM     15  O   UNL     1      47.252   8.176  12.125  0.00  0.00    +0.000 OA
BRANCH  15  19
ATOM     16  C   UNL     1      45.202   4.599   9.367  0.00  0.00    +0.000 C 
ATOM     17  C   UNL     1      45.388   5.262  10.706  0.00  0.00    +0.000 A 
ATOM     18  C   UNL     1      46.221   6.396  10.772  0.00  0.00    +0.000 A 
ATOM     19  C   UNL     1      46.456   7.067  11.974  0.00  0.00    +0.000 A 
ATOM     20  C   UNL     1      45.842   6.597  13.134  0.00  0.00    +0.000 A 
ATOM     21  C   UNL     1      45.009   5.471  13.093  0.00  0.00    +0.000 A 
ATOM     22  C   UNL     1      44.780   4.788  11.885  0.00  0.00    +0.000 A 
BRANCH  22  23
ATOM     23  C   UNL     1      43.878   3.593  11.868  0.00  0.00    +0.000 C 
ATOM     24  N   UNL     1      44.336   2.450  12.466  0.00  0.00    +0.000 N 
ATOM     25  O   UNL     1      42.779   3.596  11.329  0.00  0.00    +0.000 OA
ATOM     26  H   UNL     1      45.295   2.316  12.750  0.00  0.00    +0.000 HD
ATOM     27  H   UNL     1      43.753   1.628  12.363  0.00  0.00    +0.000 HD
ENDBRANCH  22  23
ENDBRANCH  15  19
ENDBRANCH   1  15
TORSDOF 7
ENDMDL
MODEL 9
REMARK VINA RESULT:    -6.073      1.454      2.085
REMARK INTER + INTRA:          -9.736
REMARK INTER:                  -9.679
REMARK INTRA:                  -0.057
REMARK UNBOUND:                -1.178
REMARK  Name = 
REMARK  9 active torsions:
REMARK  status: ('A' for Active; 'I' for Inactive)
REMARK    1  A    between atoms: C_1  and  C_2
REMARK    2  A    between atoms: C_4  and  O_5
REMARK    3  A    between atoms: O_5  and  C_6
REMARK    4  A    between atoms: C_6  and  C_7
REMARK    5  A    between atoms: C_7  and  C_8
REMARK    6  A    between atoms: C_7  and  C_9
REMARK    7  A    between atoms: C_13  and  O_14
REMARK    8  A    between atoms: O_14  and  C_15
REMARK    9  A    between atoms: C_22  and  C_23
REMARK                            x       y       z     vdW  Elec       q    Type
REMARK                         _______ _______ _______ _____ _____    ______ ____
ROOT
ATOM      1  C   UNL     1      45.786   5.786  10.267  0.00  0.00    +0.000 C 
ENDROOT
BRANCH   1   2
ATOM      2  C   UNL     1      45.429   5.525  11.743  0.00  0.00    +0.000 C 
ATOM      3  C   UNL     1      44.006   5.989  12.074  0.00  0.00    +0.000 C 
BRANCH   2   4
ATOM      4  C   UNL     1      46.452   6.182  12.662  0.00  0.00    +0.000 A 
ATOM      5  C   UNL     1      46.870   7.508  12.467  0.00  0.00    +0.000 A 
ATOM      6  C   UNL     1      47.815   8.092  13.316  0.00  0.00    +0.000 A 
ATOM      7  C   UNL     1      48.365   7.360  14.369  0.00  0.00    +0.000 A 
ATOM      8  C   UNL     1      47.975   6.038  14.567  0.00  0.00    +0.000 A 
ATOM      9  C   UNL     1      47.014   5.459  13.727  0.00  0.00    +0.000 A 
BRANCH   8  10
ATOM     10  O   UNL     1      48.445   5.227  15.570  0.00  0.00    +0.000 OA
BRANCH  10  11
ATOM     11  C   UNL     1      47.552   4.240  16.136  0.00  0.00    +0.000 C 
ATOM     12  C   UNL     1      47.176   4.370  17.619  0.00  0.00    +0.000 C 
ATOM     13  O   UNL     1      47.589   3.008  17.891  0.00  0.00    +0.000 OA
ATOM     14  C   UNL     1      48.219   2.932  16.590  0.00  0.00    +0.000 C 
ENDBRANCH  10  11
ENDBRANCH   8  10
ENDBRANCH   2   4
ENDBRANCH   1   2
BRANCH   1  15
ATOM     15  O   UNL     1      44.898   5.088   9.382  0.00  0.00    +0.000 OA
BRANCH  15  19
ATOM     16  C   UNL     1      47.822   2.836   6.069  0.00  0.00    +0.000 C 
ATOM     17  C   UNL     1      46.819   2.748   7.190  0.00  0.00    +0.000 A 
ATOM     18  C   UNL     1      46.339   3.952   7.741  0.00  0.00    +0.000 A 
ATOM     19  C   UNL     1      45.415   3.963   8.788  0.00  0.00    +0.000 A 
ATOM     20  C   UNL     1      44.958   2.746   9.292  0.00  0.00    +0.000 A 
ATOM     21  C   UNL     1      45.421   1.536   8.758  0.00  0.00    +0.000 A 
ATOM     22  C   UNL     1      46.360   1.523   7.711  0.00  0.00    +0.000 A 
BRANCH  22  23
ATOM     23  C   UNL     1      46.831   0.216   7.153  0.00  0.00    +0.000 C 
ATOM     24  N   UNL     1      47.107   0.165   5.814  0.00  0.00    +0.000 N 
ATOM     25  O   UNL     1      46.954  -0.793   7.835  0.00  0.00    +0.000 OA
ATOM     26  H   UNL     1      46.843   0.890   5.164  0.00  0.00    +0.000 HD
ATOM     27  H   UNL     1      47.334  -0.748   5.439  0.00  0.00    +0.000 HD
ENDBRANCH  22  23
ENDBRANCH  15  19
ENDBRANCH   1  15
TORSDOF 7
ENDMDL
