MODEL 1
REMARK VINA RESULT:    -6.091      0.000      0.000
REMARK INTER + INTRA:          -9.364
REMARK INTER:                  -8.584
REMARK INTRA:                  -0.780
REMARK UNBOUND:                -0.780
REMARK  Name = 
REMARK  8 active torsions:
REMARK  status: ('A' for Active; 'I' for Inactive)
REMARK    1  A    between atoms: C_1  and  O_2
REMARK    2  A    between atoms: O_2  and  C_3
REMARK    3  A    between atoms: C_6  and  C_7
REMARK    4  A    between atoms: C_7  and  C_8
REMARK    5  A    between atoms: C_13  and  C_14
REMARK    6  A    between atoms: C_14  and  C_15
REMARK    7  A    between atoms: C_19  and  O_20
REMARK    8  A    between atoms: O_20  and  C_21
REMARK                            x       y       z     vdW  Elec       q    Type
REMARK                         _______ _______ _______ _____ _____    ______ ____
ROOT
ATOM      1  C   UNL     1      48.185   8.115  12.282  0.00  0.00    +0.000 C 
ATOM      2  C   UNL     1      48.487   9.616  11.900  0.00  0.00    +0.000 C 
ATOM      3  C   UNL     1      49.959  10.022  12.023  0.00  0.00    +0.000 C 
ATOM      4  C   UNL     1      50.849   9.160  11.143  0.00  0.00    +0.000 C 
ATOM      5  C   UNL     1      50.658   7.692  11.463  0.00  0.00    +0.000 C 
ATOM      6  C   UNL     1      49.183   7.270  11.405  0.00  0.00    +0.000 C 
ENDROOT
BRANCH   1  12
ATOM      7  C   UNL     1      45.647   8.740  12.031  0.00  0.00    +0.000 A 
ATOM      8  C   UNL     1      44.354   8.339  11.687  0.00  0.00    +0.000 A 
ATOM      9  C   UNL     1      44.124   7.060  11.200  0.00  0.00    +0.000 A 
ATOM     10  C   UNL     1      45.191   6.187  11.025  0.00  0.00    +0.000 A 
ATOM     11  N   UNL     1      46.449   6.556  11.389  0.00  0.00    +0.000 NA
ATOM     12  C   UNL     1      46.692   7.809  11.902  0.00  0.00    +0.000 A 
BRANCH  10  13
ATOM     13  C   UNL     1      44.967   4.818  10.378  0.00  0.00    +0.000 C 
ATOM     14  C   UNL     1      44.999   3.604  11.319  0.00  0.00    +0.000 C 
ATOM     15  C   UNL     1      43.690   4.069  10.763  0.00  0.00    +0.000 C 
BRANCH  13  16
ATOM     16  C   UNL     1      45.469   4.582   9.039  0.00  0.00    +0.000 C 
ATOM     17  N   UNL     1      45.895   4.430   7.966  0.00  0.00    +0.000 NA
ENDBRANCH  13  16
ENDBRANCH  10  13
BRANCH   7  19
ATOM     18  C   UNL     1      45.212  11.052  11.734  0.00  0.00    +0.000 C 
ATOM     19  O   UNL     1      45.922  10.021  12.414  0.00  0.00    +0.000 OA
ENDBRANCH   7  19
ENDBRANCH   1  12
BRANCH   1  20
ATOM     20  C   UNL     1      48.366   7.923  13.815  0.00  0.00    +0.000 A 
ATOM     21  C   UNL     1      48.441   9.039  14.672  0.00  0.00    +0.000 A 
ATOM     22  C   UNL     1      48.633   8.890  16.051  0.00  0.00    +0.000 A 
ATOM     23  C   UNL     1      48.771   7.620  16.610  0.00  0.00    +0.000 A 
ATOM     24  C   UNL     1      48.702   6.501  15.788  0.00  0.00    +0.000 A 
ATOM     25  C   UNL     1      48.458   6.658  14.417  0.00  0.00    +0.000 A 
BRANCH  24  26
ATOM     26  O   UNL     1      48.826   5.203  16.197  0.00  0.00    +0.000 OA
BRANCH  26  27
ATOM     27  C   UNL     1      47.629   4.446  16.194  0.00  0.00    +0.000 C 
ATOM     28  F   UNL     1      47.950   3.128  16.166  0.00  0.00    +0.000 F 
ATOM     29  F   UNL     1      47.008   4.669  17.381  0.00  0.00    +0.000 F 
ENDBRANCH  26  27
ENDBRANCH  24  26
ENDBRANCH   1  20
TORSDOF 7
ENDMDL
MODEL 2
REMARK VINA RESULT:    -5.905      2.579      4.813
REMARK INTER + INTRA:          -9.102
REMARK INTER:                  -7.895
REMARK INTRA:                  -1.208
REMARK UNBOUND:                -0.780
REMARK  Name = 
REMARK  8 active torsions:
REMARK  status: ('A' for Active; 'I' for Inactive)
REMARK    1  A    between atoms: C_1  and  O_2
REMARK    2  A    between atoms: O_2  and  C_3
REMARK    3  A    between atoms: C_6  and  C_7
REMARK    4  A    between atoms: C_7  and  C_8
REMARK    5  A    between atoms: C_13  and  C_14
REMARK    6  A    between atoms: C_14  and  C_15
REMARK    7  A    between atoms: C_19  and  O_20
REMARK    8  A    between atoms: O_20  and  C_21
REMARK                            x       y       z     vdW  Elec       q    Type
REMARK                         _______ _______ _______ _____ _____    ______ ____
ROOT
ATOM      1  C   UNL     1      49.767   7.758  16.292  0.00  0.00    +0.000 C 
ATOM      2  C   UNL     1      48.418   8.109  17.031  0.00  0.00    +0.000 C 
ATOM      3  C   UNL     1      48.575   8.467  18.512  0.00  0.00    +0.000 C 
ATOM      4  C   UNL     1      49.498   9.660  18.700  0.00  0.00    +0.000 C 
ATOM      5  C   UNL     1      50.844   9.403  18.053  0.00  0.00    +0.000 C 
ATOM      6  C   UNL     1      50.712   8.983  16.583  0.00  0.00    +0.000 C 
ENDROOT
BRANCH   1  12
ATOM      7  C   UNL     1      50.373   7.967  13.746  0.00  0.00    +0.000 A 
ATOM      8  C   UNL     1      49.971   7.831  12.415  0.00  0.00    +0.000 A 
ATOM      9  C   UNL     1      48.709   7.339  12.111  0.00  0.00    +0.000 A 
ATOM     10  C   UNL     1      47.856   6.952  13.137  0.00  0.00    +0.000 A 
ATOM     11  N   UNL     1      48.225   7.111  14.436  0.00  0.00    +0.000 NA
ATOM     12  C   UNL     1      49.460   7.625  14.758  0.00  0.00    +0.000 A 
BRANCH  10  13
ATOM     13  C   UNL     1      46.511   6.298  12.811  0.00  0.00    +0.000 C 
ATOM     14  C   UNL     1      45.337   7.250  12.537  0.00  0.00    +0.000 C 
ATOM     15  C   UNL     1      45.961   6.506  11.399  0.00  0.00    +0.000 C 
BRANCH  13  16
ATOM     16  C   UNL     1      46.161   5.048  13.458  0.00  0.00    +0.000 C 
ATOM     17  N   UNL     1      45.924   4.036  13.983  0.00  0.00    +0.000 NA
ENDBRANCH  13  16
ENDBRANCH  10  13
BRANCH   7  19
ATOM     18  C   UNL     1      52.510   8.667  12.993  0.00  0.00    +0.000 C 
ATOM     19  O   UNL     1      51.641   8.348  14.076  0.00  0.00    +0.000 OA
ENDBRANCH   7  19
ENDBRANCH   1  12
BRANCH   1  20
ATOM     20  C   UNL     1      50.309   6.398  16.818  0.00  0.00    +0.000 A 
ATOM     21  C   UNL     1      51.696   6.164  16.901  0.00  0.00    +0.000 A 
ATOM     22  C   UNL     1      52.206   4.937  17.344  0.00  0.00    +0.000 A 
ATOM     23  C   UNL     1      51.341   3.904  17.702  0.00  0.00    +0.000 A 
ATOM     24  C   UNL     1      49.968   4.106  17.629  0.00  0.00    +0.000 A 
ATOM     25  C   UNL     1      49.468   5.354  17.234  0.00  0.00    +0.000 A 
BRANCH  24  26
ATOM     26  O   UNL     1      49.008   3.184  17.942  0.00  0.00    +0.000 OA
BRANCH  26  27
ATOM     27  C   UNL     1      47.883   3.158  17.083  0.00  0.00    +0.000 C 
ATOM     28  F   UNL     1      48.208   2.462  15.964  0.00  0.00    +0.000 F 
ATOM     29  F   UNL     1      46.911   2.449  17.713  0.00  0.00    +0.000 F 
ENDBRANCH  26  27
ENDBRANCH  24  26
ENDBRANCH   1  20
TORSDOF 7
ENDMDL
MODEL 3
REMARK VINA RESULT:    -5.808      3.370      6.245
REMARK INTER + INTRA:          -8.965
REMARK INTER:                  -9.419
REMARK INTRA:                   0.454
REMARK UNBOUND:                -0.780
REMARK  Name = 
REMARK  8 active torsions:
REMARK  status: ('A' for Active; 'I' for Inactive)
REMARK    1  A    between atoms: C_1  and  O_2
REMARK    2  A    between atoms: O_2  and  C_3
REMARK    3  A    between atoms: C_6  and  C_7
REMARK    4  A    between atoms: C_7  and  C_8
REMARK    5  A    between atoms: C_13  and  C_14
REMARK    6  A    between atoms: C_14  and  C_15
REMARK    7  A    between atoms: C_19  and  O_20
REMARK    8  A    between atoms: O_20  and  C_21
REMARK                            x       y       z     vdW  Elec       q    Type
REMARK                         _______ _______ _______ _____ _____    ______ ____
ROOT
ATOM      1  C   UNL     1      48.205   7.173  13.995  0.00  0.00    +0.000 C 
ATOM      2  C   UNL     1      49.354   7.220  12.915  0.00  0.00    +0.000 C 
ATOM      3  C   UNL     1      48.944   7.829  11.571  0.00  0.00    +0.000 C 
ATOM      4  C   UNL     1      48.442   9.253  11.736  0.00  0.00    +0.000 C 
ATOM      5  C   UNL     1      47.302   9.307  12.733  0.00  0.00    +0.000 C 
ATOM      6  C   UNL     1      47.666   8.650  14.070  0.00  0.00    +0.000 C 
ENDROOT
BRANCH   1  12
ATOM      7  C   UNL     1      49.577   7.581  16.195  0.00  0.00    +0.000 A 
ATOM      8  C   UNL     1      50.117   7.057  17.372  0.00  0.00    +0.000 A 
ATOM      9  C   UNL     1      49.895   5.730  17.715  0.00  0.00    +0.000 A 
ATOM     10  C   UNL     1      49.107   4.931  16.896  0.00  0.00    +0.000 A 
ATOM     11  N   UNL     1      48.605   5.422  15.731  0.00  0.00    +0.000 NA
ATOM     12  C   UNL     1      48.839   6.725  15.360  0.00  0.00    +0.000 A 
BRANCH  10  13
ATOM     13  C   UNL     1      48.758   3.502  17.322  0.00  0.00    +0.000 C 
ATOM     14  C   UNL     1      48.069   3.344  18.685  0.00  0.00    +0.000 C 
ATOM     15  C   UNL     1      47.274   3.153  17.432  0.00  0.00    +0.000 C 
BRANCH  13  16
ATOM     16  C   UNL     1      49.645   2.419  16.942  0.00  0.00    +0.000 C 
ATOM     17  N   UNL     1      50.359   1.567  16.597  0.00  0.00    +0.000 NA
ENDBRANCH  13  16
ENDBRANCH  10  13
BRANCH   7  19
ATOM     18  C   UNL     1      51.006   9.391  15.644  0.00  0.00    +0.000 C 
ATOM     19  O   UNL     1      49.689   8.905  15.884  0.00  0.00    +0.000 OA
ENDBRANCH   7  19
ENDBRANCH   1  12
BRANCH   1  20
ATOM     20  C   UNL     1      47.135   6.127  13.568  0.00  0.00    +0.000 A 
ATOM     21  C   UNL     1      47.411   4.748  13.646  0.00  0.00    +0.000 A 
ATOM     22  C   UNL     1      46.473   3.790  13.241  0.00  0.00    +0.000 A 
ATOM     23  C   UNL     1      45.238   4.187  12.729  0.00  0.00    +0.000 A 
ATOM     24  C   UNL     1      44.939   5.541  12.640  0.00  0.00    +0.000 A 
ATOM     25  C   UNL     1      45.863   6.490  13.096  0.00  0.00    +0.000 A 
BRANCH  24  26
ATOM     26  O   UNL     1      43.775   6.070  12.156  0.00  0.00    +0.000 OA
BRANCH  26  27
ATOM     27  C   UNL     1      42.859   5.136  11.614  0.00  0.00    +0.000 C 
ATOM     28  F   UNL     1      41.605   5.639  11.733  0.00  0.00    +0.000 F 
ATOM     29  F   UNL     1      43.117   5.045  10.284  0.00  0.00    +0.000 F 
ENDBRANCH  26  27
ENDBRANCH  24  26
ENDBRANCH   1  20
TORSDOF 7
ENDMDL
MODEL 4
REMARK VINA RESULT:    -5.795      2.665      5.398
REMARK INTER + INTRA:          -8.947
REMARK INTER:                  -8.178
REMARK INTRA:                  -0.769
REMARK UNBOUND:                -0.780
REMARK  Name = 
REMARK  8 active torsions:
REMARK  status: ('A' for Active; 'I' for Inactive)
REMARK    1  A    between atoms: C_1  and  O_2
REMARK    2  A    between atoms: O_2  and  C_3
REMARK    3  A    between atoms: C_6  and  C_7
REMARK    4  A    between atoms: C_7  and  C_8
REMARK    5  A    between atoms: C_13  and  C_14
REMARK    6  A    between atoms: C_14  and  C_15
REMARK    7  A    between atoms: C_19  and  O_20
REMARK    8  A    between atoms: O_20  and  C_21
REMARK                            x       y       z     vdW  Elec       q    Type
REMARK                         _______ _______ _______ _____ _____    ______ ____
ROOT
ATOM      1  C   UNL     1      48.712   8.064  13.600  0.00  0.00    +0.000 C 
ATOM      2  C   UNL     1      49.840   7.232  12.876  0.00  0.00    +0.000 C 
ATOM      3  C   UNL     1      50.136   7.672  11.440  0.00  0.00    +0.000 C 
ATOM      4  C   UNL     1      50.564   9.129  11.381  0.00  0.00    +0.000 C 
ATOM      5  C   UNL     1      49.520  10.019  12.023  0.00  0.00    +0.000 C 
ATOM      6  C   UNL     1      49.160   9.566  13.444  0.00  0.00    +0.000 C 
ENDROOT
BRANCH   1  12
ATOM      7  C   UNL     1      48.652   8.540  16.182  0.00  0.00    +0.000 A 
ATOM      8  C   UNL     1      48.657   8.032  17.483  0.00  0.00    +0.000 A 
ATOM      9  C   UNL     1      48.660   6.661  17.700  0.00  0.00    +0.000 A 
ATOM     10  C   UNL     1      48.626   5.793  16.615  0.00  0.00    +0.000 A 
ATOM     11  N   UNL     1      48.654   6.277  15.344  0.00  0.00    +0.000 NA
ATOM     12  C   UNL     1      48.683   7.632  15.110  0.00  0.00    +0.000 A 
BRANCH  10  13
ATOM     13  C   UNL     1      48.509   4.283  16.843  0.00  0.00    +0.000 C 
ATOM     14  C   UNL     1      47.145   3.768  17.323  0.00  0.00    +0.000 C 
ATOM     15  C   UNL     1      47.572   3.511  15.913  0.00  0.00    +0.000 C 
BRANCH  13  16
ATOM     16  C   UNL     1      49.661   3.556  17.340  0.00  0.00    +0.000 C 
ATOM     17  N   UNL     1      50.594   2.959  17.698  0.00  0.00    +0.000 NA
ENDBRANCH  13  16
ENDBRANCH  10  13
BRANCH   7  19
ATOM     18  C   UNL     1      48.616  10.739  17.068  0.00  0.00    +0.000 C 
ATOM     19  O   UNL     1      48.544   9.878  15.936  0.00  0.00    +0.000 OA
ENDBRANCH   7  19
ENDBRANCH   1  12
BRANCH   1  20
ATOM     20  C   UNL     1      47.333   7.742  12.955  0.00  0.00    +0.000 A 
ATOM     21  C   UNL     1      46.337   8.733  12.862  0.00  0.00    +0.000 A 
ATOM     22  C   UNL     1      45.079   8.458  12.312  0.00  0.00    +0.000 A 
ATOM     23  C   UNL     1      44.777   7.175  11.854  0.00  0.00    +0.000 A 
ATOM     24  C   UNL     1      45.741   6.177  11.935  0.00  0.00    +0.000 A 
ATOM     25  C   UNL     1      47.013   6.476  12.439  0.00  0.00    +0.000 A 
BRANCH  24  26
ATOM     26  O   UNL     1      45.581   4.881  11.531  0.00  0.00    +0.000 OA
BRANCH  26  27
ATOM     27  C   UNL     1      45.165   3.975  12.537  0.00  0.00    +0.000 C 
ATOM     28  F   UNL     1      46.219   3.193  12.879  0.00  0.00    +0.000 F 
ATOM     29  F   UNL     1      44.854   4.710  13.636  0.00  0.00    +0.000 F 
ENDBRANCH  26  27
ENDBRANCH  24  26
ENDBRANCH   1  20
TORSDOF 7
ENDMDL
MODEL 5
REMARK VINA RESULT:    -5.437      3.248      4.957
REMARK INTER + INTRA:          -8.442
REMARK INTER:                  -7.767
REMARK INTRA:                  -0.675
REMARK UNBOUND:                -0.780
REMARK  Name = 
REMARK  8 active torsions:
REMARK  status: ('A' for Active; 'I' for Inactive)
REMARK    1  A    between atoms: C_1  and  O_2
REMARK    2  A    between atoms: O_2  and  C_3
REMARK    3  A    between atoms: C_6  and  C_7
REMARK    4  A    between atoms: C_7  and  C_8
REMARK    5  A    between atoms: C_13  and  C_14
REMARK    6  A    between atoms: C_14  and  C_15
REMARK    7  A    between atoms: C_19  and  O_20
REMARK    8  A    between atoms: O_20  and  C_21
REMARK                            x       y       z     vdW  Elec       q    Type
REMARK                         _______ _______ _______ _____ _____    ______ ____
ROOT
ATOM      1  C   UNL     1      48.493   7.706  13.465  0.00  0.00    +0.000 C 
ATOM      2  C   UNL     1      47.457   8.726  12.850  0.00  0.00    +0.000 C 
ATOM      3  C   UNL     1      48.068  10.046  12.371  0.00  0.00    +0.000 C 
ATOM      4  C   UNL     1      49.132   9.814  11.312  0.00  0.00    +0.000 C 
ATOM      5  C   UNL     1      50.201   8.870  11.824  0.00  0.00    +0.000 C 
ATOM      6  C   UNL     1      49.612   7.562  12.367  0.00  0.00    +0.000 C 
ENDROOT
BRANCH   1  12
ATOM      7  C   UNL     1      46.843   5.778  12.794  0.00  0.00    +0.000 A 
ATOM      8  C   UNL     1      46.223   4.574  13.135  0.00  0.00    +0.000 A 
ATOM      9  C   UNL     1      46.525   3.945  14.335  0.00  0.00    +0.000 A 
ATOM     10  C   UNL     1      47.474   4.503  15.184  0.00  0.00    +0.000 A 
ATOM     11  N   UNL     1      48.059   5.691  14.876  0.00  0.00    +0.000 NA
ATOM     12  C   UNL     1      47.749   6.345  13.706  0.00  0.00    +0.000 A 
BRANCH  10  13
ATOM     13  C   UNL     1      47.902   3.759  16.452  0.00  0.00    +0.000 C 
ATOM     14  C   UNL     1      48.113   4.616  17.708  0.00  0.00    +0.000 C 
ATOM     15  C   UNL     1      46.907   3.736  17.613  0.00  0.00    +0.000 C 
BRANCH  13  16
ATOM     16  C   UNL     1      48.772   2.605  16.330  0.00  0.00    +0.000 C 
ATOM     17  N   UNL     1      49.486   1.695  16.195  0.00  0.00    +0.000 NA
ENDBRANCH  13  16
ENDBRANCH  10  13
BRANCH   7  19
ATOM     18  C   UNL     1      45.631   5.798  10.756  0.00  0.00    +0.000 C 
ATOM     19  O   UNL     1      46.646   6.366  11.578  0.00  0.00    +0.000 OA
ENDBRANCH   7  19
ENDBRANCH   1  12
BRANCH   1  20
ATOM     20  C   UNL     1      49.008   8.249  14.829  0.00  0.00    +0.000 A 
ATOM     21  C   UNL     1      50.356   8.082  15.203  0.00  0.00    +0.000 A 
ATOM     22  C   UNL     1      50.834   8.537  16.438  0.00  0.00    +0.000 A 
ATOM     23  C   UNL     1      49.972   9.158  17.342  0.00  0.00    +0.000 A 
ATOM     24  C   UNL     1      48.637   9.335  16.999  0.00  0.00    +0.000 A 
ATOM     25  C   UNL     1      48.180   8.923  15.741  0.00  0.00    +0.000 A 
BRANCH  24  26
ATOM     26  O   UNL     1      47.684   9.920  17.786  0.00  0.00    +0.000 OA
BRANCH  26  27
ATOM     27  C   UNL     1      47.938  11.263  18.155  0.00  0.00    +0.000 C 
ATOM     28  F   UNL     1      48.143  11.991  17.029  0.00  0.00    +0.000 F 
ATOM     29  F   UNL     1      46.804  11.744  18.727  0.00  0.00    +0.000 F 
ENDBRANCH  26  27
ENDBRANCH  24  26
ENDBRANCH   1  20
TORSDOF 7
ENDMDL
MODEL 6
REMARK VINA RESULT:    -5.437      2.886      5.734
REMARK INTER + INTRA:          -8.442
REMARK INTER:                  -7.738
REMARK INTRA:                  -0.704
REMARK UNBOUND:                -0.780
REMARK  Name = 
REMARK  8 active torsions:
REMARK  status: ('A' for Active; 'I' for Inactive)
REMARK    1  A    between atoms: C_1  and  O_2
REMARK    2  A    between atoms: O_2  and  C_3
REMARK    3  A    between atoms: C_6  and  C_7
REMARK    4  A    between atoms: C_7  and  C_8
REMARK    5  A    between atoms: C_13  and  C_14
REMARK    6  A    between atoms: C_14  and  C_15
REMARK    7  A    between atoms: C_19  and  O_20
REMARK    8  A    between atoms: O_20  and  C_21
REMARK                            x       y       z     vdW  Elec       q    Type
REMARK                         _______ _______ _______ _____ _____    ______ ____
ROOT
ATOM      1  C   UNL     1      49.313   8.075  13.472  0.00  0.00    +0.000 C 
ATOM      2  C   UNL     1      50.285   7.654  12.302  0.00  0.00    +0.000 C 
ATOM      3  C   UNL     1      50.160   8.501  11.032  0.00  0.00    +0.000 C 
ATOM      4  C   UNL     1      50.427   9.970  11.314  0.00  0.00    +0.000 C 
ATOM      5  C   UNL     1      49.510  10.481  12.405  0.00  0.00    +0.000 C 
ATOM      6  C   UNL     1      49.571   9.616  13.671  0.00  0.00    +0.000 C 
ENDROOT
BRANCH   1  12
ATOM      7  C   UNL     1      50.942   7.405  15.419  0.00  0.00    +0.000 A 
ATOM      8  C   UNL     1      51.193   6.600  16.533  0.00  0.00    +0.000 A 
ATOM      9  C   UNL     1      50.232   5.704  16.980  0.00  0.00    +0.000 A 
ATOM     10  C   UNL     1      49.004   5.632  16.334  0.00  0.00    +0.000 A 
ATOM     11  N   UNL     1      48.762   6.387  15.229  0.00  0.00    +0.000 NA
ATOM     12  C   UNL     1      49.714   7.259  14.753  0.00  0.00    +0.000 A 
BRANCH  10  13
ATOM     13  C   UNL     1      47.895   4.735  16.889  0.00  0.00    +0.000 C 
ATOM     14  C   UNL     1      47.099   3.917  15.862  0.00  0.00    +0.000 C 
ATOM     15  C   UNL     1      48.087   3.224  16.745  0.00  0.00    +0.000 C 
BRANCH  13  16
ATOM     16  C   UNL     1      47.146   5.178  18.049  0.00  0.00    +0.000 C 
ATOM     17  N   UNL     1      46.575   5.516  19.006  0.00  0.00    +0.000 NA
ENDBRANCH  13  16
ENDBRANCH  10  13
BRANCH   7  19
ATOM     18  C   UNL     1      53.182   7.967  14.883  0.00  0.00    +0.000 C 
ATOM     19  O   UNL     1      51.822   8.368  15.018  0.00  0.00    +0.000 OA
ENDBRANCH   7  19
ENDBRANCH   1  12
BRANCH   1  20
ATOM     20  C   UNL     1      47.849   7.720  13.084  0.00  0.00    +0.000 A 
ATOM     21  C   UNL     1      46.807   8.642  13.305  0.00  0.00    +0.000 A 
ATOM     22  C   UNL     1      45.478   8.333  12.990  0.00  0.00    +0.000 A 
ATOM     23  C   UNL     1      45.152   7.085  12.459  0.00  0.00    +0.000 A 
ATOM     24  C   UNL     1      46.161   6.156  12.231  0.00  0.00    +0.000 A 
ATOM     25  C   UNL     1      47.493   6.493  12.501  0.00  0.00    +0.000 A 
BRANCH  24  26
ATOM     26  O   UNL     1      45.986   4.899  11.723  0.00  0.00    +0.000 OA
BRANCH  26  27
ATOM     27  C   UNL     1      45.280   3.997  12.555  0.00  0.00    +0.000 C 
ATOM     28  F   UNL     1      44.246   3.474  11.850  0.00  0.00    +0.000 F 
ATOM     29  F   UNL     1      46.119   2.966  12.834  0.00  0.00    +0.000 F 
ENDBRANCH  26  27
ENDBRANCH  24  26
ENDBRANCH   1  20
TORSDOF 7
ENDMDL
MODEL 7
REMARK VINA RESULT:    -5.331      3.197      4.726
REMARK INTER + INTRA:          -8.293
REMARK INTER:                  -7.370
REMARK INTRA:                  -0.923
REMARK UNBOUND:                -0.780
REMARK  Name = 
REMARK  8 active torsions:
REMARK  status: ('A' for Active; 'I' for Inactive)
REMARK    1  A    between atoms: C_1  and  O_2
REMARK    2  A    between atoms: O_2  and  C_3
REMARK    3  A    between atoms: C_6  and  C_7
REMARK    4  A    between atoms: C_7  and  C_8
REMARK    5  A    between atoms: C_13  and  C_14
REMARK    6  A    between atoms: C_14  and  C_15
REMARK    7  A    between atoms: C_19  and  O_20
REMARK    8  A    between atoms: O_20  and  C_21
REMARK                            x       y       z     vdW  Elec       q    Type
REMARK                         _______ _______ _______ _____ _____    ______ ____
ROOT
ATOM      1  C   UNL     1      48.765   8.430  14.044  0.00  0.00    +0.000 C 
ATOM      2  C   UNL     1      49.282   7.203  14.892  0.00  0.00    +0.000 C 
ATOM      3  C   UNL     1      50.482   7.510  15.792  0.00  0.00    +0.000 C 
ATOM      4  C   UNL     1      50.167   8.620  16.780  0.00  0.00    +0.000 C 
ATOM      5  C   UNL     1      49.695   9.864  16.056  0.00  0.00    +0.000 C 
ATOM      6  C   UNL     1      48.530   9.574  15.100  0.00  0.00    +0.000 C 
ENDROOT
BRANCH   1  12
ATOM      7  C   UNL     1      46.600   8.896  12.635  0.00  0.00    +0.000 A 
ATOM      8  C   UNL     1      45.412   8.406  12.086  0.00  0.00    +0.000 A 
ATOM      9  C   UNL     1      45.078   7.066  12.222  0.00  0.00    +0.000 A 
ATOM     10  C   UNL     1      45.946   6.204  12.880  0.00  0.00    +0.000 A 
ATOM     11  N   UNL     1      47.088   6.677  13.448  0.00  0.00    +0.000 NA
ATOM     12  C   UNL     1      47.421   8.008  13.350  0.00  0.00    +0.000 A 
BRANCH  10  13
ATOM     13  C   UNL     1      45.646   4.703  12.933  0.00  0.00    +0.000 C 
ATOM     14  C   UNL     1      44.165   4.305  13.014  0.00  0.00    +0.000 C 
ATOM     15  C   UNL     1      44.913   4.099  11.735  0.00  0.00    +0.000 C 
BRANCH  13  16
ATOM     16  C   UNL     1      46.567   3.826  13.630  0.00  0.00    +0.000 C 
ATOM     17  N   UNL     1      47.335   3.155  14.191  0.00  0.00    +0.000 NA
ENDBRANCH  13  16
ENDBRANCH  10  13
BRANCH   7  19
ATOM     18  C   UNL     1      46.112  11.023  11.707  0.00  0.00    +0.000 C 
ATOM     19  O   UNL     1      47.006  10.182  12.430  0.00  0.00    +0.000 OA
ENDBRANCH   7  19
ENDBRANCH   1  12
BRANCH   1  20
ATOM     20  C   UNL     1      49.812   8.782  12.948  0.00  0.00    +0.000 A 
ATOM     21  C   UNL     1      50.321  10.091  12.838  0.00  0.00    +0.000 A 
ATOM     22  C   UNL     1      51.241  10.437  11.842  0.00  0.00    +0.000 A 
ATOM     23  C   UNL     1      51.667   9.485  10.915  0.00  0.00    +0.000 A 
ATOM     24  C   UNL     1      51.180   8.186  10.999  0.00  0.00    +0.000 A 
ATOM     25  C   UNL     1      50.299   7.837  12.031  0.00  0.00    +0.000 A 
BRANCH  24  26
ATOM     26  O   UNL     1      51.505   7.157  10.159  0.00  0.00    +0.000 OA
BRANCH  26  27
ATOM     27  C   UNL     1      52.861   7.105   9.755  0.00  0.00    +0.000 C 
ATOM     28  F   UNL     1      53.620   6.756  10.824  0.00  0.00    +0.000 F 
ATOM     29  F   UNL     1      52.974   6.096   8.853  0.00  0.00    +0.000 F 
ENDBRANCH  26  27
ENDBRANCH  24  26
ENDBRANCH   1  20
TORSDOF 7
ENDMDL
MODEL 8
REMARK VINA RESULT:    -5.288      3.511      6.232
REMARK INTER + INTRA:          -8.232
REMARK INTER:                  -7.442
REMARK INTRA:                  -0.791
REMARK UNBOUND:                -0.780
REMARK  Name = 
REMARK  8 active torsions:
REMARK  status: ('A' for Active; 'I' for Inactive)
REMARK    1  A    between atoms: C_1  and  O_2
REMARK    2  A    between atoms: O_2  and  C_3
REMARK    3  A    between atoms: C_6  and  C_7
REMARK    4  A    between atoms: C_7  and  C_8
REMARK    5  A    between atoms: C_13  and  C_14
REMARK    6  A    between atoms: C_14  and  C_15
REMARK    7  A    between atoms: C_19  and  O_20
REMARK    8  A    between atoms: O_20  and  C_21
REMARK                            x       y       z     vdW  Elec       q    Type
REMARK                         _______ _______ _______ _____ _____    ______ ____
ROOT
ATOM      1  C   UNL     1      47.782   7.617  13.267  0.00  0.00    +0.000 C 
ATOM      2  C   UNL     1      46.454   8.463  13.355  0.00  0.00    +0.000 C 
ATOM      3  C   UNL     1      45.688   8.590  12.035  0.00  0.00    +0.000 C 
ATOM      4  C   UNL     1      45.302   7.228  11.483  0.00  0.00    +0.000 C 
ATOM      5  C   UNL     1      46.524   6.348  11.325  0.00  0.00    +0.000 C 
ATOM      6  C   UNL     1      47.344   6.251  12.618  0.00  0.00    +0.000 C 
ENDROOT
BRANCH   1  12
ATOM      7  C   UNL     1      48.762   8.457  15.553  0.00  0.00    +0.000 A 
ATOM      8  C   UNL     1      49.249   8.141  16.823  0.00  0.00    +0.000 A 
ATOM      9  C   UNL     1      49.265   6.824  17.261  0.00  0.00    +0.000 A 
ATOM     10  C   UNL     1      48.763   5.821  16.440  0.00  0.00    +0.000 A 
ATOM     11  N   UNL     1      48.318   6.113  15.189  0.00  0.00    +0.000 NA
ATOM     12  C   UNL     1      48.323   7.409  14.726  0.00  0.00    +0.000 A 
BRANCH  10  13
ATOM     13  C   UNL     1      48.666   4.383  16.956  0.00  0.00    +0.000 C 
ATOM     14  C   UNL     1      47.360   3.999  17.667  0.00  0.00    +0.000 C 
ATOM     15  C   UNL     1      47.630   3.476  16.292  0.00  0.00    +0.000 C 
BRANCH  13  16
ATOM     16  C   UNL     1      49.862   3.732  17.455  0.00  0.00    +0.000 C 
ATOM     17  N   UNL     1      50.807   3.172  17.840  0.00  0.00    +0.000 NA
ENDBRANCH  13  16
ENDBRANCH  10  13
BRANCH   7  19
ATOM     18  C   UNL     1      49.735  10.615  15.409  0.00  0.00    +0.000 C 
ATOM     19  O   UNL     1      48.637   9.750  15.135  0.00  0.00    +0.000 OA
ENDBRANCH   7  19
ENDBRANCH   1  12
BRANCH   1  20
ATOM     20  C   UNL     1      48.843   8.401  12.442  0.00  0.00    +0.000 A 
ATOM     21  C   UNL     1      48.585   9.718  12.012  0.00  0.00    +0.000 A 
ATOM     22  C   UNL     1      49.513  10.432  11.244  0.00  0.00    +0.000 A 
ATOM     23  C   UNL     1      50.720   9.841  10.870  0.00  0.00    +0.000 A 
ATOM     24  C   UNL     1      51.000   8.543  11.279  0.00  0.00    +0.000 A 
ATOM     25  C   UNL     1      50.089   7.856  12.090  0.00  0.00    +0.000 A 
BRANCH  24  26
ATOM     26  O   UNL     1      52.136   7.842  10.983  0.00  0.00    +0.000 OA
BRANCH  26  27
ATOM     27  C   UNL     1      52.074   7.047   9.813  0.00  0.00    +0.000 C 
ATOM     28  F   UNL     1      52.570   7.765   8.774  0.00  0.00    +0.000 F 
ATOM     29  F   UNL     1      52.916   5.996   9.995  0.00  0.00    +0.000 F 
ENDBRANCH  26  27
ENDBRANCH  24  26
ENDBRANCH   1  20
TORSDOF 7
ENDMDL
MODEL 9
REMARK VINA RESULT:    -5.019      3.499      4.965
REMARK INTER + INTRA:          -7.853
REMARK INTER:                  -6.981
REMARK INTRA:                  -0.872
REMARK UNBOUND:                -0.780
REMARK  Name = 
REMARK  8 active torsions:
REMARK  status: ('A' for Active; 'I' for Inactive)
REMARK    1  A    between atoms: C_1  and  O_2
REMARK    2  A    between atoms: O_2  and  C_3
REMARK    3  A    between atoms: C_6  and  C_7
REMARK    4  A    between atoms: C_7  and  C_8
REMARK    5  A    between atoms: C_13  and  C_14
REMARK    6  A    between atoms: C_14  and  C_15
REMARK    7  A    between atoms: C_19  and  O_20
REMARK    8  A    between atoms: O_20  and  C_21
REMARK                            x       y       z     vdW  Elec       q    Type
REMARK                         _______ _______ _______ _____ _____    ______ ____
ROOT
ATOM      1  C   UNL     1      47.908   8.068  13.725  0.00  0.00    +0.000 C 
ATOM      2  C   UNL     1      48.175   6.687  14.441  0.00  0.00    +0.000 C 
ATOM      3  C   UNL     1      49.308   6.711  15.471  0.00  0.00    +0.000 C 
ATOM      4  C   UNL     1      49.041   7.727  16.568  0.00  0.00    +0.000 C 
ATOM      5  C   UNL     1      48.809   9.103  15.979  0.00  0.00    +0.000 C 
ATOM      6  C   UNL     1      47.718   9.098  14.900  0.00  0.00    +0.000 C 
ENDROOT
BRANCH   1  12
ATOM      7  C   UNL     1      45.941   9.011  12.263  0.00  0.00    +0.000 A 
ATOM      8  C   UNL     1      44.765   8.761  11.553  0.00  0.00    +0.000 A 
ATOM      9  C   UNL     1      44.284   7.465  11.428  0.00  0.00    +0.000 A 
ATOM     10  C   UNL     1      44.994   6.410  11.988  0.00  0.00    +0.000 A 
ATOM     11  N   UNL     1      46.122   6.646  12.711  0.00  0.00    +0.000 NA
ATOM     12  C   UNL     1      46.598   7.927  12.871  0.00  0.00    +0.000 A 
BRANCH  10  13
ATOM     13  C   UNL     1      44.537   4.968  11.758  0.00  0.00    +0.000 C 
ATOM     14  C   UNL     1      43.027   4.748  11.582  0.00  0.00    +0.000 C 
ATOM     15  C   UNL     1      43.928   4.642  10.393  0.00  0.00    +0.000 C 
BRANCH  13  16
ATOM     16  C   UNL     1      45.251   3.890  12.415  0.00  0.00    +0.000 C 
ATOM     17  N   UNL     1      45.852   3.055  12.959  0.00  0.00    +0.000 NA
ENDBRANCH  13  16
ENDBRANCH  10  13
BRANCH   7  19
ATOM     18  C   UNL     1      46.351  11.064  11.151  0.00  0.00    +0.000 C 
ATOM     19  O   UNL     1      46.496  10.257  12.316  0.00  0.00    +0.000 OA
ENDBRANCH   7  19
ENDBRANCH   1  12
BRANCH   1  20
ATOM     20  C   UNL     1      49.096   8.399  12.776  0.00  0.00    +0.000 A 
ATOM     21  C   UNL     1      49.625   7.412  11.921  0.00  0.00    +0.000 A 
ATOM     22  C   UNL     1      50.712   7.679  11.080  0.00  0.00    +0.000 A 
ATOM     23  C   UNL     1      51.312   8.938  11.082  0.00  0.00    +0.000 A 
ATOM     24  C   UNL     1      50.812   9.930  11.917  0.00  0.00    +0.000 A 
ATOM     25  C   UNL     1      49.692   9.669  12.717  0.00  0.00    +0.000 A 
BRANCH  24  26
ATOM     26  O   UNL     1      51.302  11.202  12.026  0.00  0.00    +0.000 OA
BRANCH  26  27
ATOM     27  C   UNL     1      52.523  11.445  11.351  0.00  0.00    +0.000 C 
ATOM     28  F   UNL     1      52.254  12.093  10.189  0.00  0.00    +0.000 F 
ATOM     29  F   UNL     1      53.243  12.304  12.117  0.00  0.00    +0.000 F 
ENDBRANCH  26  27
ENDBRANCH  24  26
ENDBRANCH   1  20
TORSDOF 7
ENDMDL
