MODEL 1
REMARK VINA RESULT:    -8.335      0.000      0.000
REMARK INTER + INTRA:         -13.425
REMARK INTER:                 -12.233
REMARK INTRA:                  -1.192
REMARK UNBOUND:                -1.192
REMARK  Name = 
REMARK  10 active torsions:
REMARK  status: ('A' for Active; 'I' for Inactive)
REMARK    1  A    between atoms: C_1  and  C_2
REMARK    2  A    between atoms: C_2  and  C_3
REMARK    3  A    between atoms: C_2  and  N_10
REMARK    4  A    between atoms: C_3  and  C_4
REMARK    5  A    between atoms: N_10  and  C_11
REMARK    6  A    between atoms: N_10  and  C_12
REMARK    7  A    between atoms: C_12  and  C_13
REMARK    8  A    between atoms: C_16  and  C_17
REMARK    9  A    between atoms: C_17  and  N_18
REMARK   10  A    between atoms: C_19  and  C_21
REMARK                            x       y       z     vdW  Elec       q    Type
REMARK                         _______ _______ _______ _____ _____    ______ ____
ROOT
ATOM      1  C   UNL     1      46.539   4.433  13.706  0.00  0.00    +0.000 A 
ATOM      2  C   UNL     1      47.070   5.632  13.235  0.00  0.00    +0.000 A 
ATOM      3  C   UNL     1      47.919   6.359  14.067  0.00  0.00    +0.000 A 
ATOM      4  C   UNL     1      48.210   5.878  15.345  0.00  0.00    +0.000 A 
ATOM      5  C   UNL     1      47.587   4.703  15.749  0.00  0.00    +0.000 A 
ATOM      6  N   UNL     1      46.760   3.980  14.968  0.00  0.00    +0.000 NA
ENDROOT
BRANCH   1   7
ATOM      7  C   UNL     1      45.749   3.517  12.799  0.00  0.00    +0.000 C 
BRANCH   7   8
ATOM      8  N   UNL     1      44.398   3.980  12.362  0.00  0.00    +0.000 NA
ATOM      9  C   UNL     1      43.586   2.754  12.237  0.00  0.00    +0.000 C 
BRANCH   8  11
ATOM     10  C   UNL     1      43.562   6.055  11.095  0.00  0.00    +0.000 C 
ATOM     11  C   UNL     1      44.396   4.758  11.080  0.00  0.00    +0.000 C 
BRANCH  11  12
ATOM     12  C   UNL     1      43.929   3.947   9.824  0.00  0.00    +0.000 C 
BRANCH  12  13
ATOM     13  C   UNL     1      45.011   3.364   8.936  0.00  0.00    +0.000 A 
ATOM     14  C   UNL     1      45.298   1.990   8.948  0.00  0.00    +0.000 A 
ATOM     15  C   UNL     1      46.278   1.456   8.110  0.00  0.00    +0.000 A 
ATOM     16  C   UNL     1      46.981   2.287   7.240  0.00  0.00    +0.000 A 
ATOM     17  C   UNL     1      46.708   3.651   7.216  0.00  0.00    +0.000 A 
ATOM     18  C   UNL     1      45.731   4.184   8.056  0.00  0.00    +0.000 A 
ENDBRANCH  12  13
ENDBRANCH  11  12
ENDBRANCH   8  11
ENDBRANCH   7   8
ENDBRANCH   1   7
BRANCH   4  19
ATOM     19  C   UNL     1      49.077   6.635  16.302  0.00  0.00    +0.000 C 
BRANCH  19  20
ATOM     20  N   UNL     1      50.135   5.780  16.772  0.00  0.00    +0.000 N 
ATOM     21  C   UNL     1      50.223   5.385  18.076  0.00  0.00    +0.000 C 
ATOM     22  O   UNL     1      49.374   5.694  18.910  0.00  0.00    +0.000 OA
ATOM     23  H   UNL     1      50.943   5.676  16.166  0.00  0.00    +0.000 HD
BRANCH  21  24
ATOM     24  C   UNL     1      51.358   4.518  18.412  0.00  0.00    +0.000 A 
ATOM     25  C   UNL     1      52.395   5.018  19.185  0.00  0.00    +0.000 A 
ATOM     26  S   UNL     1      53.610   3.870  19.524  0.00  0.00    +0.000 S 
ATOM     27  C   UNL     1      52.817   2.676  18.607  0.00  0.00    +0.000 A 
ATOM     28  N   UNL     1      53.348   1.434  18.463  0.00  0.00    +0.000 NA
ATOM     29  C   UNL     1      52.653   0.637  17.720  0.00  0.00    +0.000 A 
ATOM     30  N   UNL     1      51.470   0.967  17.117  0.00  0.00    +0.000 N 
ATOM     31  C   UNL     1      50.879   2.200  17.254  0.00  0.00    +0.000 A 
ATOM     32  O   UNL     1      49.795   2.451  16.739  0.00  0.00    +0.000 OA
ATOM     33  C   UNL     1      51.629   3.142  18.068  0.00  0.00    +0.000 A 
ATOM     34  H   UNL     1      50.969   0.291  16.557  0.00  0.00    +0.000 HD
ENDBRANCH  21  24
ENDBRANCH  19  20
ENDBRANCH   4  19
TORSDOF 8
ENDMDL
MODEL 2
REMARK VINA RESULT:    -7.440      2.623      3.332
REMARK INTER + INTRA:         -12.111
REMARK INTER:                 -11.707
REMARK INTRA:                  -0.404
REMARK UNBOUND:                -1.192
REMARK  Name = 
REMARK  10 active torsions:
REMARK  status: ('A' for Active; 'I' for Inactive)
REMARK    1  A    between atoms: C_1  and  C_2
REMARK    2  A    between atoms: C_2  and  C_3
REMARK    3  A    between atoms: C_2  and  N_10
REMARK    4  A    between atoms: C_3  and  C_4
REMARK    5  A    between atoms: N_10  and  C_11
REMARK    6  A    between atoms: N_10  and  C_12
REMARK    7  A    between atoms: C_12  and  C_13
REMARK    8  A    between atoms: C_16  and  C_17
REMARK    9  A    between atoms: C_17  and  N_18
REMARK   10  A    between atoms: C_19  and  C_21
REMARK                            x       y       z     vdW  Elec       q    Type
REMARK                         _______ _______ _______ _____ _____    ______ ____
ROOT
ATOM      1  C   UNL     1      44.924   6.900  11.440  0.00  0.00    +0.000 A 
ATOM      2  C   UNL     1      46.159   6.256  11.464  0.00  0.00    +0.000 A 
ATOM      3  C   UNL     1      47.163   6.768  12.283  0.00  0.00    +0.000 A 
ATOM      4  C   UNL     1      46.914   7.910  13.047  0.00  0.00    +0.000 A 
ATOM      5  C   UNL     1      45.671   8.517  12.912  0.00  0.00    +0.000 A 
ATOM      6  N   UNL     1      44.682   8.046  12.127  0.00  0.00    +0.000 NA
ENDROOT
BRANCH   1   7
ATOM      7  C   UNL     1      43.745   6.303  10.705  0.00  0.00    +0.000 C 
BRANCH   7   8
ATOM      8  N   UNL     1      43.266   4.959  11.151  0.00  0.00    +0.000 NA
ATOM      9  C   UNL     1      43.546   4.905  12.599  0.00  0.00    +0.000 C 
BRANCH   8  11
ATOM     10  C   UNL     1      45.102   3.160  11.164  0.00  0.00    +0.000 C 
ATOM     11  C   UNL     1      43.906   3.807  10.437  0.00  0.00    +0.000 C 
BRANCH  11  12
ATOM     12  C   UNL     1      44.394   4.128   8.983  0.00  0.00    +0.000 C 
BRANCH  12  13
ATOM     13  C   UNL     1      45.430   3.199   8.379  0.00  0.00    +0.000 A 
ATOM     14  C   UNL     1      45.391   1.817   8.618  0.00  0.00    +0.000 A 
ATOM     15  C   UNL     1      46.333   0.964   8.039  0.00  0.00    +0.000 A 
ATOM     16  C   UNL     1      47.323   1.480   7.206  0.00  0.00    +0.000 A 
ATOM     17  C   UNL     1      47.374   2.848   6.960  0.00  0.00    +0.000 A 
ATOM     18  C   UNL     1      46.435   3.700   7.541  0.00  0.00    +0.000 A 
ENDBRANCH  12  13
ENDBRANCH  11  12
ENDBRANCH   8  11
ENDBRANCH   7   8
ENDBRANCH   1   7
BRANCH   4  19
ATOM     19  C   UNL     1      47.965   8.535  13.910  0.00  0.00    +0.000 C 
BRANCH  19  20
ATOM     20  N   UNL     1      48.193   7.708  15.065  0.00  0.00    +0.000 N 
ATOM     21  C   UNL     1      49.408   7.139  15.322  0.00  0.00    +0.000 C 
ATOM     22  O   UNL     1      50.388   7.345  14.610  0.00  0.00    +0.000 OA
ATOM     23  H   UNL     1      47.370   7.363  15.551  0.00  0.00    +0.000 HD
BRANCH  21  24
ATOM     24  C   UNL     1      49.491   6.316  16.533  0.00  0.00    +0.000 A 
ATOM     25  C   UNL     1      50.365   6.677  17.547  0.00  0.00    +0.000 A 
ATOM     26  S   UNL     1      50.305   5.644  18.903  0.00  0.00    +0.000 S 
ATOM     27  C   UNL     1      49.141   4.647  18.163  0.00  0.00    +0.000 A 
ATOM     28  N   UNL     1      48.663   3.542  18.791  0.00  0.00    +0.000 NA
ATOM     29  C   UNL     1      47.805   2.864  18.103  0.00  0.00    +0.000 A 
ATOM     30  N   UNL     1      47.374   3.198  16.848  0.00  0.00    +0.000 N 
ATOM     31  C   UNL     1      47.807   4.320  16.183  0.00  0.00    +0.000 A 
ATOM     32  O   UNL     1      47.368   4.617  15.077  0.00  0.00    +0.000 OA
ATOM     33  C   UNL     1      48.788   5.110  16.906  0.00  0.00    +0.000 A 
ATOM     34  H   UNL     1      46.689   2.630  16.368  0.00  0.00    +0.000 HD
ENDBRANCH  21  24
ENDBRANCH  19  20
ENDBRANCH   4  19
TORSDOF 8
ENDMDL
MODEL 3
REMARK VINA RESULT:    -7.419      3.680     10.084
REMARK INTER + INTRA:         -12.080
REMARK INTER:                  -9.656
REMARK INTRA:                  -2.423
REMARK UNBOUND:                -1.192
REMARK  Name = 
REMARK  10 active torsions:
REMARK  status: ('A' for Active; 'I' for Inactive)
REMARK    1  A    between atoms: C_1  and  C_2
REMARK    2  A    between atoms: C_2  and  C_3
REMARK    3  A    between atoms: C_2  and  N_10
REMARK    4  A    between atoms: C_3  and  C_4
REMARK    5  A    between atoms: N_10  and  C_11
REMARK    6  A    between atoms: N_10  and  C_12
REMARK    7  A    between atoms: C_12  and  C_13
REMARK    8  A    between atoms: C_16  and  C_17
REMARK    9  A    between atoms: C_17  and  N_18
REMARK   10  A    between atoms: C_19  and  C_21
REMARK                            x       y       z     vdW  Elec       q    Type
REMARK                         _______ _______ _______ _____ _____    ______ ____
ROOT
ATOM      1  C   UNL     1      51.295   4.577  17.701  0.00  0.00    +0.000 A 
ATOM      2  C   UNL     1      50.439   5.603  17.308  0.00  0.00    +0.000 A 
ATOM      3  C   UNL     1      49.117   5.288  17.000  0.00  0.00    +0.000 A 
ATOM      4  C   UNL     1      48.687   3.962  17.084  0.00  0.00    +0.000 A 
ATOM      5  C   UNL     1      49.628   2.999  17.429  0.00  0.00    +0.000 A 
ATOM      6  N   UNL     1      50.913   3.274  17.730  0.00  0.00    +0.000 NA
ENDROOT
BRANCH   1   7
ATOM      7  C   UNL     1      52.689   4.873  18.208  0.00  0.00    +0.000 C 
BRANCH   7   8
ATOM      8  N   UNL     1      52.841   5.986  19.192  0.00  0.00    +0.000 NA
ATOM      9  C   UNL     1      53.964   6.802  18.689  0.00  0.00    +0.000 C 
BRANCH   8  11
ATOM     10  C   UNL     1      53.300   4.020  20.784  0.00  0.00    +0.000 C 
ATOM     11  C   UNL     1      53.094   5.537  20.600  0.00  0.00    +0.000 C 
BRANCH  11  12
ATOM     12  C   UNL     1      51.992   5.962  21.629  0.00  0.00    +0.000 C 
BRANCH  12  13
ATOM     13  C   UNL     1      50.556   5.969  21.142  0.00  0.00    +0.000 A 
ATOM     14  C   UNL     1      49.779   4.800  21.156  0.00  0.00    +0.000 A 
ATOM     15  C   UNL     1      48.449   4.819  20.729  0.00  0.00    +0.000 A 
ATOM     16  C   UNL     1      47.875   6.009  20.289  0.00  0.00    +0.000 A 
ATOM     17  C   UNL     1      48.632   7.176  20.269  0.00  0.00    +0.000 A 
ATOM     18  C   UNL     1      49.961   7.156  20.692  0.00  0.00    +0.000 A 
ENDBRANCH  12  13
ENDBRANCH  11  12
ENDBRANCH   8  11
ENDBRANCH   7   8
ENDBRANCH   1   7
BRANCH   4  19
ATOM     19  C   UNL     1      47.294   3.553  16.722  0.00  0.00    +0.000 C 
BRANCH  19  20
ATOM     20  N   UNL     1      46.766   4.463  15.739  0.00  0.00    +0.000 N 
ATOM     21  C   UNL     1      46.778   4.176  14.405  0.00  0.00    +0.000 C 
ATOM     22  O   UNL     1      47.192   3.103  13.972  0.00  0.00    +0.000 OA
ATOM     23  H   UNL     1      46.607   5.420  16.041  0.00  0.00    +0.000 HD
BRANCH  21  24
ATOM     24  C   UNL     1      46.212   5.200  13.520  0.00  0.00    +0.000 A 
ATOM     25  C   UNL     1      46.940   6.349  13.248  0.00  0.00    +0.000 A 
ATOM     26  S   UNL     1      46.161   7.413  12.167  0.00  0.00    +0.000 S 
ATOM     27  C   UNL     1      44.798   6.399  12.062  0.00  0.00    +0.000 A 
ATOM     28  N   UNL     1      43.727   6.741  11.300  0.00  0.00    +0.000 NA
ATOM     29  C   UNL     1      42.754   5.891  11.333  0.00  0.00    +0.000 A 
ATOM     30  N   UNL     1      42.760   4.726  12.050  0.00  0.00    +0.000 N 
ATOM     31  C   UNL     1      43.830   4.324  12.813  0.00  0.00    +0.000 A 
ATOM     32  O   UNL     1      43.823   3.252  13.408  0.00  0.00    +0.000 OA
ATOM     33  C   UNL     1      44.947   5.253  12.825  0.00  0.00    +0.000 A 
ATOM     34  H   UNL     1      41.969   4.097  12.023  0.00  0.00    +0.000 HD
ENDBRANCH  21  24
ENDBRANCH  19  20
ENDBRANCH   4  19
TORSDOF 8
ENDMDL
MODEL 4
REMARK VINA RESULT:    -7.286      4.194      9.363
REMARK INTER + INTRA:         -11.885
REMARK INTER:                  -9.261
REMARK INTRA:                  -2.624
REMARK UNBOUND:                -1.192
REMARK  Name = 
REMARK  10 active torsions:
REMARK  status: ('A' for Active; 'I' for Inactive)
REMARK    1  A    between atoms: C_1  and  C_2
REMARK    2  A    between atoms: C_2  and  C_3
REMARK    3  A    between atoms: C_2  and  N_10
REMARK    4  A    between atoms: C_3  and  C_4
REMARK    5  A    between atoms: N_10  and  C_11
REMARK    6  A    between atoms: N_10  and  C_12
REMARK    7  A    between atoms: C_12  and  C_13
REMARK    8  A    between atoms: C_16  and  C_17
REMARK    9  A    between atoms: C_17  and  N_18
REMARK   10  A    between atoms: C_19  and  C_21
REMARK                            x       y       z     vdW  Elec       q    Type
REMARK                         _______ _______ _______ _____ _____    ______ ____
ROOT
ATOM      1  C   UNL     1      48.637   5.597  19.976  0.00  0.00    +0.000 A 
ATOM      2  C   UNL     1      49.535   4.689  19.420  0.00  0.00    +0.000 A 
ATOM      3  C   UNL     1      49.168   4.013  18.258  0.00  0.00    +0.000 A 
ATOM      4  C   UNL     1      47.916   4.252  17.688  0.00  0.00    +0.000 A 
ATOM      5  C   UNL     1      47.064   5.131  18.348  0.00  0.00    +0.000 A 
ATOM      6  N   UNL     1      47.392   5.797  19.473  0.00  0.00    +0.000 NA
ENDROOT
BRANCH   1   7
ATOM      7  C   UNL     1      49.037   6.483  21.135  0.00  0.00    +0.000 C 
BRANCH   7   8
ATOM      8  N   UNL     1      50.143   7.460  20.903  0.00  0.00    +0.000 NA
ATOM      9  C   UNL     1      50.982   7.394  22.115  0.00  0.00    +0.000 C 
BRANCH   8  11
ATOM     10  C   UNL     1      48.170   9.106  20.811  0.00  0.00    +0.000 C 
ATOM     11  C   UNL     1      49.684   8.864  20.644  0.00  0.00    +0.000 C 
BRANCH  11  12
ATOM     12  C   UNL     1      50.069   9.428  19.234  0.00  0.00    +0.000 C 
BRANCH  12  13
ATOM     13  C   UNL     1      50.005   8.467  18.063  0.00  0.00    +0.000 A 
ATOM     14  C   UNL     1      48.849   8.360  17.275  0.00  0.00    +0.000 A 
ATOM     15  C   UNL     1      48.804   7.491  16.182  0.00  0.00    +0.000 A 
ATOM     16  C   UNL     1      49.919   6.722  15.858  0.00  0.00    +0.000 A 
ATOM     17  C   UNL     1      51.072   6.816  16.630  0.00  0.00    +0.000 A 
ATOM     18  C   UNL     1      51.114   7.682  17.722  0.00  0.00    +0.000 A 
ENDBRANCH  12  13
ENDBRANCH  11  12
ENDBRANCH   8  11
ENDBRANCH   7   8
ENDBRANCH   1   7
BRANCH   4  19
ATOM     19  C   UNL     1      47.445   3.523  16.469  0.00  0.00    +0.000 C 
BRANCH  19  20
ATOM     20  N   UNL     1      46.821   4.452  15.565  0.00  0.00    +0.000 N 
ATOM     21  C   UNL     1      46.773   4.233  14.218  0.00  0.00    +0.000 C 
ATOM     22  O   UNL     1      47.212   3.204  13.709  0.00  0.00    +0.000 OA
ATOM     23  H   UNL     1      46.634   5.384  15.923  0.00  0.00    +0.000 HD
BRANCH  21  24
ATOM     24  C   UNL     1      46.111   5.270  13.419  0.00  0.00    +0.000 A 
ATOM     25  C   UNL     1      46.753   6.479  13.198  0.00  0.00    +0.000 A 
ATOM     26  S   UNL     1      45.870   7.554  12.213  0.00  0.00    +0.000 S 
ATOM     27  C   UNL     1      44.572   6.460  12.086  0.00  0.00    +0.000 A 
ATOM     28  N   UNL     1      43.455   6.777  11.382  0.00  0.00    +0.000 NA
ATOM     29  C   UNL     1      42.540   5.864  11.391  0.00  0.00    +0.000 A 
ATOM     30  N   UNL     1      42.646   4.660  12.032  0.00  0.00    +0.000 N 
ATOM     31  C   UNL     1      43.766   4.283  12.733  0.00  0.00    +0.000 A 
ATOM     32  O   UNL     1      43.850   3.178  13.258  0.00  0.00    +0.000 OA
ATOM     33  C   UNL     1      44.822   5.282  12.769  0.00  0.00    +0.000 A 
ATOM     34  H   UNL     1      41.897   3.983  11.989  0.00  0.00    +0.000 HD
ENDBRANCH  21  24
ENDBRANCH  19  20
ENDBRANCH   4  19
TORSDOF 8
ENDMDL
MODEL 5
REMARK VINA RESULT:    -7.207      3.872      9.289
REMARK INTER + INTRA:         -11.769
REMARK INTER:                  -9.881
REMARK INTRA:                  -1.889
REMARK UNBOUND:                -1.192
REMARK  Name = 
REMARK  10 active torsions:
REMARK  status: ('A' for Active; 'I' for Inactive)
REMARK    1  A    between atoms: C_1  and  C_2
REMARK    2  A    between atoms: C_2  and  C_3
REMARK    3  A    between atoms: C_2  and  N_10
REMARK    4  A    between atoms: C_3  and  C_4
REMARK    5  A    between atoms: N_10  and  C_11
REMARK    6  A    between atoms: N_10  and  C_12
REMARK    7  A    between atoms: C_12  and  C_13
REMARK    8  A    between atoms: C_16  and  C_17
REMARK    9  A    between atoms: C_17  and  N_18
REMARK   10  A    between atoms: C_19  and  C_21
REMARK                            x       y       z     vdW  Elec       q    Type
REMARK                         _______ _______ _______ _____ _____    ______ ____
ROOT
ATOM      1  C   UNL     1      50.490   7.365  15.241  0.00  0.00    +0.000 A 
ATOM      2  C   UNL     1      49.205   6.850  15.395  0.00  0.00    +0.000 A 
ATOM      3  C   UNL     1      48.316   6.942  14.326  0.00  0.00    +0.000 A 
ATOM      4  C   UNL     1      48.727   7.551  13.138  0.00  0.00    +0.000 A 
ATOM      5  C   UNL     1      50.009   8.088  13.099  0.00  0.00    +0.000 A 
ATOM      6  N   UNL     1      50.889   8.015  14.117  0.00  0.00    +0.000 NA
ENDROOT
BRANCH   1   7
ATOM      7  C   UNL     1      51.552   7.149  16.296  0.00  0.00    +0.000 C 
BRANCH   7   8
ATOM      8  N   UNL     1      51.090   6.832  17.681  0.00  0.00    +0.000 NA
ATOM      9  C   UNL     1      51.233   8.090  18.438  0.00  0.00    +0.000 C 
BRANCH   8  11
ATOM     10  C   UNL     1      52.845   4.968  17.443  0.00  0.00    +0.000 C 
ATOM     11  C   UNL     1      51.843   5.717  18.344  0.00  0.00    +0.000 C 
BRANCH  11  12
ATOM     12  C   UNL     1      50.940   4.622  19.007  0.00  0.00    +0.000 C 
BRANCH  12  13
ATOM     13  C   UNL     1      49.662   4.247  18.282  0.00  0.00    +0.000 A 
ATOM     14  C   UNL     1      49.630   3.174  17.378  0.00  0.00    +0.000 A 
ATOM     15  C   UNL     1      48.444   2.817  16.732  0.00  0.00    +0.000 A 
ATOM     16  C   UNL     1      47.271   3.524  16.988  0.00  0.00    +0.000 A 
ATOM     17  C   UNL     1      47.287   4.590  17.881  0.00  0.00    +0.000 A 
ATOM     18  C   UNL     1      48.473   4.948  18.523  0.00  0.00    +0.000 A 
ENDBRANCH  12  13
ENDBRANCH  11  12
ENDBRANCH   8  11
ENDBRANCH   7   8
ENDBRANCH   1   7
BRANCH   4  19
ATOM     19  C   UNL     1      47.805   7.723  11.972  0.00  0.00    +0.000 C 
BRANCH  19  20
ATOM     20  N   UNL     1      47.042   6.518  11.782  0.00  0.00    +0.000 N 
ATOM     21  C   UNL     1      45.677   6.521  11.758  0.00  0.00    +0.000 C 
ATOM     22  O   UNL     1      45.025   7.559  11.845  0.00  0.00    +0.000 OA
ATOM     23  H   UNL     1      47.535   5.639  11.907  0.00  0.00    +0.000 HD
BRANCH  21  24
ATOM     24  C   UNL     1      45.033   5.217  11.562  0.00  0.00    +0.000 A 
ATOM     25  C   UNL     1      44.345   4.628  12.612  0.00  0.00    +0.000 A 
ATOM     26  S   UNL     1      43.617   3.141  12.205  0.00  0.00    +0.000 S 
ATOM     27  C   UNL     1      44.236   3.207  10.621  0.00  0.00    +0.000 A 
ATOM     28  N   UNL     1      43.998   2.207   9.733  0.00  0.00    +0.000 NA
ATOM     29  C   UNL     1      44.550   2.376   8.576  0.00  0.00    +0.000 A 
ATOM     30  N   UNL     1      45.309   3.458   8.225  0.00  0.00    +0.000 N 
ATOM     31  C   UNL     1      45.555   4.507   9.079  0.00  0.00    +0.000 A 
ATOM     32  O   UNL     1      46.201   5.486   8.720  0.00  0.00    +0.000 OA
ATOM     33  C   UNL     1      44.970   4.360  10.401  0.00  0.00    +0.000 A 
ATOM     34  H   UNL     1      45.703   3.535   7.297  0.00  0.00    +0.000 HD
ENDBRANCH  21  24
ENDBRANCH  19  20
ENDBRANCH   4  19
TORSDOF 8
ENDMDL
MODEL 6
REMARK VINA RESULT:    -7.086      3.835      9.723
REMARK INTER + INTRA:         -11.592
REMARK INTER:                 -10.068
REMARK INTRA:                  -1.524
REMARK UNBOUND:                -1.192
REMARK  Name = 
REMARK  10 active torsions:
REMARK  status: ('A' for Active; 'I' for Inactive)
REMARK    1  A    between atoms: C_1  and  C_2
REMARK    2  A    between atoms: C_2  and  C_3
REMARK    3  A    between atoms: C_2  and  N_10
REMARK    4  A    between atoms: C_3  and  C_4
REMARK    5  A    between atoms: N_10  and  C_11
REMARK    6  A    between atoms: N_10  and  C_12
REMARK    7  A    between atoms: C_12  and  C_13
REMARK    8  A    between atoms: C_16  and  C_17
REMARK    9  A    between atoms: C_17  and  N_18
REMARK   10  A    between atoms: C_19  and  C_21
REMARK                            x       y       z     vdW  Elec       q    Type
REMARK                         _______ _______ _______ _____ _____    ______ ____
ROOT
ATOM      1  C   UNL     1      49.580   5.779  19.539  0.00  0.00    +0.000 A 
ATOM      2  C   UNL     1      49.560   6.261  18.233  0.00  0.00    +0.000 A 
ATOM      3  C   UNL     1      48.789   5.591  17.285  0.00  0.00    +0.000 A 
ATOM      4  C   UNL     1      48.067   4.456  17.661  0.00  0.00    +0.000 A 
ATOM      5  C   UNL     1      48.196   4.016  18.973  0.00  0.00    +0.000 A 
ATOM      6  N   UNL     1      48.935   4.642  19.910  0.00  0.00    +0.000 NA
ENDROOT
BRANCH   1   7
ATOM      7  C   UNL     1      50.258   6.551  20.649  0.00  0.00    +0.000 C 
BRANCH   7   8
ATOM      8  N   UNL     1      51.719   6.318  20.855  0.00  0.00    +0.000 NA
ATOM      9  C   UNL     1      52.396   7.220  19.902  0.00  0.00    +0.000 C 
BRANCH   8  11
ATOM     10  C   UNL     1      52.988   4.290  21.796  0.00  0.00    +0.000 C 
ATOM     11  C   UNL     1      52.154   4.898  20.650  0.00  0.00    +0.000 C 
BRANCH  11  12
ATOM     12  C   UNL     1      52.962   4.645  19.333  0.00  0.00    +0.000 C 
BRANCH  12  13
ATOM     13  C   UNL     1      52.735   3.324  18.624  0.00  0.00    +0.000 A 
ATOM     14  C   UNL     1      53.698   2.304  18.664  0.00  0.00    +0.000 A 
ATOM     15  C   UNL     1      53.473   1.081  18.030  0.00  0.00    +0.000 A 
ATOM     16  C   UNL     1      52.276   0.856  17.352  0.00  0.00    +0.000 A 
ATOM     17  C   UNL     1      51.312   1.857  17.303  0.00  0.00    +0.000 A 
ATOM     18  C   UNL     1      51.540   3.080  17.934  0.00  0.00    +0.000 A 
ENDBRANCH  12  13
ENDBRANCH  11  12
ENDBRANCH   8  11
ENDBRANCH   7   8
ENDBRANCH   1   7
BRANCH   4  19
ATOM     19  C   UNL     1      47.259   3.667  16.680  0.00  0.00    +0.000 C 
BRANCH  19  20
ATOM     20  N   UNL     1      46.697   4.553  15.696  0.00  0.00    +0.000 N 
ATOM     21  C   UNL     1      46.769   4.291  14.358  0.00  0.00    +0.000 C 
ATOM     22  O   UNL     1      47.270   3.257  13.922  0.00  0.00    +0.000 OA
ATOM     23  H   UNL     1      46.462   5.492  16.006  0.00  0.00    +0.000 HD
BRANCH  21  24
ATOM     24  C   UNL     1      46.158   5.288  13.472  0.00  0.00    +0.000 A 
ATOM     25  C   UNL     1      46.863   6.435  13.142  0.00  0.00    +0.000 A 
ATOM     26  S   UNL     1      46.032   7.465  12.068  0.00  0.00    +0.000 S 
ATOM     27  C   UNL     1      44.675   6.438  12.043  0.00  0.00    +0.000 A 
ATOM     28  N   UNL     1      43.571   6.752  11.316  0.00  0.00    +0.000 NA
ATOM     29  C   UNL     1      42.608   5.895  11.410  0.00  0.00    +0.000 A 
ATOM     30  N   UNL     1      42.654   4.748  12.155  0.00  0.00    +0.000 N 
ATOM     31  C   UNL     1      43.757   4.374  12.884  0.00  0.00    +0.000 A 
ATOM     32  O   UNL     1      43.785   3.317  13.505  0.00  0.00    +0.000 OA
ATOM     33  C   UNL     1      44.866   5.313  12.827  0.00  0.00    +0.000 A 
ATOM     34  H   UNL     1      41.868   4.112  12.175  0.00  0.00    +0.000 HD
ENDBRANCH  21  24
ENDBRANCH  19  20
ENDBRANCH   4  19
TORSDOF 8
ENDMDL
MODEL 7
REMARK VINA RESULT:    -7.058      4.214      9.129
REMARK INTER + INTRA:         -11.551
REMARK INTER:                  -9.613
REMARK INTRA:                  -1.938
REMARK UNBOUND:                -1.192
REMARK  Name = 
REMARK  10 active torsions:
REMARK  status: ('A' for Active; 'I' for Inactive)
REMARK    1  A    between atoms: C_1  and  C_2
REMARK    2  A    between atoms: C_2  and  C_3
REMARK    3  A    between atoms: C_2  and  N_10
REMARK    4  A    between atoms: C_3  and  C_4
REMARK    5  A    between atoms: N_10  and  C_11
REMARK    6  A    between atoms: N_10  and  C_12
REMARK    7  A    between atoms: C_12  and  C_13
REMARK    8  A    between atoms: C_16  and  C_17
REMARK    9  A    between atoms: C_17  and  N_18
REMARK   10  A    between atoms: C_19  and  C_21
REMARK                            x       y       z     vdW  Elec       q    Type
REMARK                         _______ _______ _______ _____ _____    ______ ____
ROOT
ATOM      1  C   UNL     1      49.428   7.977  16.251  0.00  0.00    +0.000 A 
ATOM      2  C   UNL     1      49.713   6.898  15.419  0.00  0.00    +0.000 A 
ATOM      3  C   UNL     1      49.186   6.891  14.129  0.00  0.00    +0.000 A 
ATOM      4  C   UNL     1      48.383   7.953  13.707  0.00  0.00    +0.000 A 
ATOM      5  C   UNL     1      48.105   8.956  14.629  0.00  0.00    +0.000 A 
ATOM      6  N   UNL     1      48.599   8.988  15.882  0.00  0.00    +0.000 NA
ENDROOT
BRANCH   1   7
ATOM      7  C   UNL     1      50.102   8.127  17.597  0.00  0.00    +0.000 C 
BRANCH   7   8
ATOM      8  N   UNL     1      49.243   8.514  18.756  0.00  0.00    +0.000 NA
ATOM      9  C   UNL     1      50.183   8.878  19.835  0.00  0.00    +0.000 C 
BRANCH   8  11
ATOM     10  C   UNL     1      47.470   7.779  20.467  0.00  0.00    +0.000 C 
ATOM     11  C   UNL     1      48.296   7.443  19.209  0.00  0.00    +0.000 C 
BRANCH  11  12
ATOM     12  C   UNL     1      48.963   6.051  19.477  0.00  0.00    +0.000 C 
BRANCH  12  13
ATOM     13  C   UNL     1      48.662   4.939  18.491  0.00  0.00    +0.000 A 
ATOM     14  C   UNL     1      47.411   4.847  17.861  0.00  0.00    +0.000 A 
ATOM     15  C   UNL     1      47.148   3.834  16.936  0.00  0.00    +0.000 A 
ATOM     16  C   UNL     1      48.136   2.903  16.622  0.00  0.00    +0.000 A 
ATOM     17  C   UNL     1      49.380   2.980  17.239  0.00  0.00    +0.000 A 
ATOM     18  C   UNL     1      49.640   3.990  18.165  0.00  0.00    +0.000 A 
ENDBRANCH  12  13
ENDBRANCH  11  12
ENDBRANCH   8  11
ENDBRANCH   7   8
ENDBRANCH   1   7
BRANCH   4  19
ATOM     19  C   UNL     1      47.749   7.982  12.352  0.00  0.00    +0.000 C 
BRANCH  19  20
ATOM     20  N   UNL     1      46.996   6.773  12.148  0.00  0.00    +0.000 N 
ATOM     21  C   UNL     1      45.634   6.773  12.056  0.00  0.00    +0.000 C 
ATOM     22  O   UNL     1      44.978   7.812  12.088  0.00  0.00    +0.000 OA
ATOM     23  H   UNL     1      47.483   5.897  12.316  0.00  0.00    +0.000 HD
BRANCH  21  24
ATOM     24  C   UNL     1      45.002   5.465  11.853  0.00  0.00    +0.000 A 
ATOM     25  C   UNL     1      44.322   4.863  12.901  0.00  0.00    +0.000 A 
ATOM     26  S   UNL     1      43.606   3.372  12.487  0.00  0.00    +0.000 S 
ATOM     27  C   UNL     1      44.221   3.452  10.902  0.00  0.00    +0.000 A 
ATOM     28  N   UNL     1      43.990   2.455  10.009  0.00  0.00    +0.000 NA
ATOM     29  C   UNL     1      44.538   2.635   8.853  0.00  0.00    +0.000 A 
ATOM     30  N   UNL     1      45.287   3.727   8.506  0.00  0.00    +0.000 N 
ATOM     31  C   UNL     1      45.525   4.773   9.365  0.00  0.00    +0.000 A 
ATOM     32  O   UNL     1      46.162   5.759   9.010  0.00  0.00    +0.000 OA
ATOM     33  C   UNL     1      44.945   4.613  10.688  0.00  0.00    +0.000 A 
ATOM     34  H   UNL     1      45.678   3.813   7.578  0.00  0.00    +0.000 HD
ENDBRANCH  21  24
ENDBRANCH  19  20
ENDBRANCH   4  19
TORSDOF 8
ENDMDL
MODEL 8
REMARK VINA RESULT:    -6.894      2.390      3.373
REMARK INTER + INTRA:         -11.310
REMARK INTER:                 -10.069
REMARK INTRA:                  -1.241
REMARK UNBOUND:                -1.192
REMARK  Name = 
REMARK  10 active torsions:
REMARK  status: ('A' for Active; 'I' for Inactive)
REMARK    1  A    between atoms: C_1  and  C_2
REMARK    2  A    between atoms: C_2  and  C_3
REMARK    3  A    between atoms: C_2  and  N_10
REMARK    4  A    between atoms: C_3  and  C_4
REMARK    5  A    between atoms: N_10  and  C_11
REMARK    6  A    between atoms: N_10  and  C_12
REMARK    7  A    between atoms: C_12  and  C_13
REMARK    8  A    between atoms: C_16  and  C_17
REMARK    9  A    between atoms: C_17  and  N_18
REMARK   10  A    between atoms: C_19  and  C_21
REMARK                            x       y       z     vdW  Elec       q    Type
REMARK                         _______ _______ _______ _____ _____    ______ ____
ROOT
ATOM      1  C   UNL     1      46.944   7.193  11.912  0.00  0.00    +0.000 A 
ATOM      2  C   UNL     1      48.324   7.273  11.747  0.00  0.00    +0.000 A 
ATOM      3  C   UNL     1      49.058   8.068  12.625  0.00  0.00    +0.000 A 
ATOM      4  C   UNL     1      48.397   8.768  13.637  0.00  0.00    +0.000 A 
ATOM      5  C   UNL     1      47.011   8.674  13.686  0.00  0.00    +0.000 A 
ATOM      6  N   UNL     1      46.276   7.915  12.850  0.00  0.00    +0.000 NA
ENDROOT
BRANCH   1   7
ATOM      7  C   UNL     1      46.113   6.223  11.103  0.00  0.00    +0.000 C 
BRANCH   7   8
ATOM      8  N   UNL     1      45.006   5.511  11.810  0.00  0.00    +0.000 NA
ATOM      9  C   UNL     1      45.648   4.370  12.492  0.00  0.00    +0.000 C 
BRANCH   8  11
ATOM     10  C   UNL     1      42.472   5.253  11.460  0.00  0.00    +0.000 C 
ATOM     11  C   UNL     1      43.898   5.046  10.913  0.00  0.00    +0.000 C 
BRANCH  11  12
ATOM     12  C   UNL     1      43.992   3.542  10.484  0.00  0.00    +0.000 C 
BRANCH  12  13
ATOM     13  C   UNL     1      44.900   3.211   9.315  0.00  0.00    +0.000 A 
ATOM     14  C   UNL     1      45.333   4.208   8.428  0.00  0.00    +0.000 A 
ATOM     15  C   UNL     1      46.188   3.901   7.367  0.00  0.00    +0.000 A 
ATOM     16  C   UNL     1      46.630   2.593   7.184  0.00  0.00    +0.000 A 
ATOM     17  C   UNL     1      46.210   1.593   8.055  0.00  0.00    +0.000 A 
ATOM     18  C   UNL     1      45.353   1.900   9.111  0.00  0.00    +0.000 A 
ENDBRANCH  12  13
ENDBRANCH  11  12
ENDBRANCH   8  11
ENDBRANCH   7   8
ENDBRANCH   1   7
BRANCH   4  19
ATOM     19  C   UNL     1      49.122   9.674  14.581  0.00  0.00    +0.000 C 
BRANCH  19  20
ATOM     20  N   UNL     1      49.552   8.925  15.732  0.00  0.00    +0.000 N 
ATOM     21  C   UNL     1      48.862   8.943  16.910  0.00  0.00    +0.000 C 
ATOM     22  O   UNL     1      47.804   9.557  17.036  0.00  0.00    +0.000 OA
ATOM     23  H   UNL     1      50.507   8.578  15.721  0.00  0.00    +0.000 HD
BRANCH  21  24
ATOM     24  C   UNL     1      49.422   8.135  17.998  0.00  0.00    +0.000 A 
ATOM     25  C   UNL     1      49.668   8.723  19.230  0.00  0.00    +0.000 A 
ATOM     26  S   UNL     1      50.273   7.638  20.397  0.00  0.00    +0.000 S 
ATOM     27  C   UNL     1      50.276   6.351  19.283  0.00  0.00    +0.000 A 
ATOM     28  N   UNL     1      50.710   5.115  19.641  0.00  0.00    +0.000 NA
ATOM     29  C   UNL     1      50.680   4.242  18.688  0.00  0.00    +0.000 A 
ATOM     30  N   UNL     1      50.246   4.491  17.415  0.00  0.00    +0.000 N 
ATOM     31  C   UNL     1      49.772   5.717  17.013  0.00  0.00    +0.000 A 
ATOM     32  O   UNL     1      49.346   5.897  15.877  0.00  0.00    +0.000 OA
ATOM     33  C   UNL     1      49.799   6.742  18.043  0.00  0.00    +0.000 A 
ATOM     34  H   UNL     1      50.237   3.758  16.719  0.00  0.00    +0.000 HD
ENDBRANCH  21  24
ENDBRANCH  19  20
ENDBRANCH   4  19
TORSDOF 8
ENDMDL
MODEL 9
REMARK VINA RESULT:    -6.875      4.130      8.966
REMARK INTER + INTRA:         -11.281
REMARK INTER:                  -9.073
REMARK INTRA:                  -2.209
REMARK UNBOUND:                -1.192
REMARK  Name = 
REMARK  10 active torsions:
REMARK  status: ('A' for Active; 'I' for Inactive)
REMARK    1  A    between atoms: C_1  and  C_2
REMARK    2  A    between atoms: C_2  and  C_3
REMARK    3  A    between atoms: C_2  and  N_10
REMARK    4  A    between atoms: C_3  and  C_4
REMARK    5  A    between atoms: N_10  and  C_11
REMARK    6  A    between atoms: N_10  and  C_12
REMARK    7  A    between atoms: C_12  and  C_13
REMARK    8  A    between atoms: C_16  and  C_17
REMARK    9  A    between atoms: C_17  and  N_18
REMARK   10  A    between atoms: C_19  and  C_21
REMARK                            x       y       z     vdW  Elec       q    Type
REMARK                         _______ _______ _______ _____ _____    ______ ____
ROOT
ATOM      1  C   UNL     1      49.994   7.636  18.307  0.00  0.00    +0.000 A 
ATOM      2  C   UNL     1      50.273   6.780  17.244  0.00  0.00    +0.000 A 
ATOM      3  C   UNL     1      49.784   7.103  15.980  0.00  0.00    +0.000 A 
ATOM      4  C   UNL     1      49.025   8.262  15.810  0.00  0.00    +0.000 A 
ATOM      5  C   UNL     1      48.749   9.023  16.940  0.00  0.00    +0.000 A 
ATOM      6  N   UNL     1      49.206   8.735  18.175  0.00  0.00    +0.000 NA
ENDROOT
BRANCH   1   7
ATOM      7  C   UNL     1      50.632   7.434  19.663  0.00  0.00    +0.000 C 
BRANCH   7   8
ATOM      8  N   UNL     1      49.755   6.944  20.769  0.00  0.00    +0.000 NA
ATOM      9  C   UNL     1      50.618   6.082  21.599  0.00  0.00    +0.000 C 
BRANCH   8  11
ATOM     10  C   UNL     1      47.283   6.376  21.189  0.00  0.00    +0.000 C 
ATOM     11  C   UNL     1      48.537   6.201  20.309  0.00  0.00    +0.000 C 
BRANCH  11  12
ATOM     12  C   UNL     1      48.741   4.658  20.132  0.00  0.00    +0.000 C 
BRANCH  12  13
ATOM     13  C   UNL     1      48.504   4.082  18.749  0.00  0.00    +0.000 A 
ATOM     14  C   UNL     1      49.364   3.113  18.210  0.00  0.00    +0.000 A 
ATOM     15  C   UNL     1      49.126   2.569  16.946  0.00  0.00    +0.000 A 
ATOM     16  C   UNL     1      48.020   2.981  16.206  0.00  0.00    +0.000 A 
ATOM     17  C   UNL     1      47.159   3.941  16.727  0.00  0.00    +0.000 A 
ATOM     18  C   UNL     1      47.399   4.486  17.987  0.00  0.00    +0.000 A 
ENDBRANCH  12  13
ENDBRANCH  11  12
ENDBRANCH   8  11
ENDBRANCH   7   8
ENDBRANCH   1   7
BRANCH   4  19
ATOM     19  C   UNL     1      48.433   8.639  14.488  0.00  0.00    +0.000 C 
BRANCH  19  20
ATOM     20  N   UNL     1      47.466   7.649  14.096  0.00  0.00    +0.000 N 
ATOM     21  C   UNL     1      47.733   6.713  13.138  0.00  0.00    +0.000 C 
ATOM     22  O   UNL     1      48.833   6.629  12.597  0.00  0.00    +0.000 OA
ATOM     23  H   UNL     1      46.502   7.815  14.373  0.00  0.00    +0.000 HD
BRANCH  21  24
ATOM     24  C   UNL     1      46.649   5.771  12.837  0.00  0.00    +0.000 A 
ATOM     25  C   UNL     1      46.819   4.422  13.107  0.00  0.00    +0.000 A 
ATOM     26  S   UNL     1      45.451   3.473  12.744  0.00  0.00    +0.000 S 
ATOM     27  C   UNL     1      44.595   4.825  12.165  0.00  0.00    +0.000 A 
ATOM     28  N   UNL     1      43.336   4.700  11.672  0.00  0.00    +0.000 NA
ATOM     29  C   UNL     1      42.817   5.804  11.244  0.00  0.00    +0.000 A 
ATOM     30  N   UNL     1      43.440   7.021  11.275  0.00  0.00    +0.000 N 
ATOM     31  C   UNL     1      44.701   7.203  11.789  0.00  0.00    +0.000 A 
ATOM     32  O   UNL     1      45.215   8.316  11.845  0.00  0.00    +0.000 OA
ATOM     33  C   UNL     1      45.339   5.989  12.270  0.00  0.00    +0.000 A 
ATOM     34  H   UNL     1      42.972   7.851  10.935  0.00  0.00    +0.000 HD
ENDBRANCH  21  24
ENDBRANCH  19  20
ENDBRANCH   4  19
TORSDOF 8
ENDMDL
