MODEL 1
REMARK VINA RESULT:    -8.498      0.000      0.000
REMARK INTER + INTRA:         -12.525
REMARK INTER:                 -11.478
REMARK INTRA:                  -1.047
REMARK UNBOUND:                -1.047
REMARK  Name = 
REMARK  7 active torsions:
REMARK  status: ('A' for Active; 'I' for Inactive)
REMARK    1  A    between atoms: C_1  and  N_2
REMARK    2  A    between atoms: N_2  and  C_3
REMARK    3  A    between atoms: C_3  and  C_4
REMARK    4  A    between atoms: C_7  and  C_8
REMARK    5  A    between atoms: C_8  and  N_9
REMARK    6  A    between atoms: C_10  and  C_12
REMARK    7  A    between atoms: C_24  and  C_26
REMARK                            x       y       z     vdW  Elec       q    Type
REMARK                         _______ _______ _______ _____ _____    ______ ____
ROOT
ATOM      1  C   UNL     1      46.391   4.441  13.475  0.00  0.00    +0.000 A 
ATOM      2  C   UNL     1      46.928   5.652  13.064  0.00  0.00    +0.000 A 
ATOM      3  C   UNL     1      47.741   6.364  13.949  0.00  0.00    +0.000 A 
ATOM      4  C   UNL     1      47.978   5.859  15.229  0.00  0.00    +0.000 A 
ATOM      5  C   UNL     1      47.398   4.641  15.556  0.00  0.00    +0.000 A 
ATOM      6  N   UNL     1      46.616   3.930  14.715  0.00  0.00    +0.000 NA
ENDROOT
BRANCH   1   7
ATOM      7  C   UNL     1      45.544   3.607  12.542  0.00  0.00    +0.000 C 
BRANCH   7   9
ATOM      8  C   UNL     1      43.311   4.714  13.003  0.00  0.00    +0.000 C 
ATOM      9  N   UNL     1      44.273   4.166  12.054  0.00  0.00    +0.000 N 
ATOM     10  C   UNL     1      43.964   4.347  10.698  0.00  0.00    +0.000 C 
ATOM     11  O   UNL     1      42.992   5.013  10.337  0.00  0.00    +0.000 OA
BRANCH  10  12
ATOM     12  C   UNL     1      44.816   3.776   9.625  0.00  0.00    +0.000 A 
ATOM     13  C   UNL     1      44.961   2.412   9.367  0.00  0.00    +0.000 A 
ATOM     14  C   UNL     1      45.813   1.988   8.347  0.00  0.00    +0.000 A 
ATOM     15  C   UNL     1      46.448   2.947   7.577  0.00  0.00    +0.000 A 
ATOM     16  N   UNL     1      46.285   4.274   7.755  0.00  0.00    +0.000 NA
ATOM     17  C   UNL     1      45.463   4.658   8.766  0.00  0.00    +0.000 A 
ENDBRANCH  10  12
ENDBRANCH   7   9
ENDBRANCH   1   7
BRANCH   4  18
ATOM     18  C   UNL     1      48.877   6.566  16.199  0.00  0.00    +0.000 C 
BRANCH  18  19
ATOM     19  N   UNL     1      49.940   5.701  16.643  0.00  0.00    +0.000 N 
ATOM     20  C   UNL     1      50.099   5.399  17.971  0.00  0.00    +0.000 C 
ATOM     21  O   UNL     1      49.315   5.805  18.825  0.00  0.00    +0.000 OA
ATOM     22  H   UNL     1      50.709   5.538  16.001  0.00  0.00    +0.000 HD
BRANCH  20  23
ATOM     23  C   UNL     1      51.221   4.519  18.318  0.00  0.00    +0.000 A 
ATOM     24  C   UNL     1      52.263   5.012  19.092  0.00  0.00    +0.000 A 
ATOM     25  S   UNL     1      53.467   3.856  19.438  0.00  0.00    +0.000 S 
ATOM     26  C   UNL     1      52.663   2.667  18.525  0.00  0.00    +0.000 A 
ATOM     27  N   UNL     1      53.189   1.421  18.386  0.00  0.00    +0.000 NA
ATOM     28  C   UNL     1      52.494   0.627  17.643  0.00  0.00    +0.000 A 
ATOM     29  N   UNL     1      51.314   0.962  17.034  0.00  0.00    +0.000 N 
ATOM     30  C   UNL     1      50.728   2.198  17.174  0.00  0.00    +0.000 A 
ATOM     31  O   UNL     1      49.646   2.452  16.653  0.00  0.00    +0.000 OA
ATOM     32  C   UNL     1      51.481   3.136  17.984  0.00  0.00    +0.000 A 
ATOM     33  H   UNL     1      50.814   0.290  16.472  0.00  0.00    +0.000 HD
ENDBRANCH  20  23
ENDBRANCH  18  19
ENDBRANCH   4  18
TORSDOF 6
ENDMDL
MODEL 2
REMARK VINA RESULT:    -7.652      3.392      8.724
REMARK INTER + INTRA:         -11.383
REMARK INTER:                 -10.014
REMARK INTRA:                  -1.369
REMARK UNBOUND:                -1.047
REMARK  Name = 
REMARK  7 active torsions:
REMARK  status: ('A' for Active; 'I' for Inactive)
REMARK    1  A    between atoms: C_1  and  N_2
REMARK    2  A    between atoms: N_2  and  C_3
REMARK    3  A    between atoms: C_3  and  C_4
REMARK    4  A    between atoms: C_7  and  C_8
REMARK    5  A    between atoms: C_8  and  N_9
REMARK    6  A    between atoms: C_10  and  C_12
REMARK    7  A    between atoms: C_24  and  C_26
REMARK                            x       y       z     vdW  Elec       q    Type
REMARK                         _______ _______ _______ _____ _____    ______ ____
ROOT
ATOM      1  C   UNL     1      49.132   7.566  16.049  0.00  0.00    +0.000 A 
ATOM      2  C   UNL     1      48.489   8.735  15.672  0.00  0.00    +0.000 A 
ATOM      3  C   UNL     1      47.963   8.830  14.382  0.00  0.00    +0.000 A 
ATOM      4  C   UNL     1      48.112   7.762  13.494  0.00  0.00    +0.000 A 
ATOM      5  C   UNL     1      48.772   6.632  13.956  0.00  0.00    +0.000 A 
ATOM      6  N   UNL     1      49.282   6.513  15.201  0.00  0.00    +0.000 NA
ENDROOT
BRANCH   1   7
ATOM      7  C   UNL     1      49.678   7.392  17.447  0.00  0.00    +0.000 C 
BRANCH   7   9
ATOM      8  C   UNL     1      48.414   8.428  19.385  0.00  0.00    +0.000 C 
ATOM      9  N   UNL     1      48.727   7.263  18.564  0.00  0.00    +0.000 N 
ATOM     10  C   UNL     1      47.971   6.112  18.823  0.00  0.00    +0.000 C 
ATOM     11  O   UNL     1      47.035   6.117  19.625  0.00  0.00    +0.000 OA
BRANCH  10  12
ATOM     12  C   UNL     1      48.234   4.834  18.114  0.00  0.00    +0.000 A 
ATOM     13  C   UNL     1      49.393   4.070  18.259  0.00  0.00    +0.000 A 
ATOM     14  C   UNL     1      49.544   2.897  17.520  0.00  0.00    +0.000 A 
ATOM     15  C   UNL     1      48.502   2.494  16.700  0.00  0.00    +0.000 A 
ATOM     16  N   UNL     1      47.343   3.173  16.582  0.00  0.00    +0.000 NA
ATOM     17  C   UNL     1      47.230   4.320  17.301  0.00  0.00    +0.000 A 
ENDBRANCH  10  12
ENDBRANCH   7   9
ENDBRANCH   1   7
BRANCH   4  18
ATOM     18  C   UNL     1      47.529   7.801  12.113  0.00  0.00    +0.000 C 
BRANCH  18  19
ATOM     19  N   UNL     1      46.849   6.568  11.806  0.00  0.00    +0.000 N 
ATOM     20  C   UNL     1      45.510   6.417  12.057  0.00  0.00    +0.000 C 
ATOM     21  O   UNL     1      44.826   7.338  12.498  0.00  0.00    +0.000 OA
ATOM     22  H   UNL     1      47.422   5.744  11.653  0.00  0.00    +0.000 HD
BRANCH  20  23
ATOM     23  C   UNL     1      44.918   5.117  11.720  0.00  0.00    +0.000 A 
ATOM     24  C   UNL     1      44.204   4.420  12.685  0.00  0.00    +0.000 A 
ATOM     25  S   UNL     1      43.549   2.949  12.125  0.00  0.00    +0.000 S 
ATOM     26  C   UNL     1      44.237   3.167  10.585  0.00  0.00    +0.000 A 
ATOM     27  N   UNL     1      44.078   2.232   9.612  0.00  0.00    +0.000 NA
ATOM     28  C   UNL     1      44.678   2.507   8.502  0.00  0.00    +0.000 A 
ATOM     29  N   UNL     1      45.414   3.639   8.274  0.00  0.00    +0.000 N 
ATOM     30  C   UNL     1      45.574   4.627   9.216  0.00  0.00    +0.000 A 
ATOM     31  O   UNL     1      46.200   5.651   8.964  0.00  0.00    +0.000 OA
ATOM     32  C   UNL     1      44.935   4.357  10.490  0.00  0.00    +0.000 A 
ATOM     33  H   UNL     1      45.850   3.799   7.378  0.00  0.00    +0.000 HD
ENDBRANCH  20  23
ENDBRANCH  18  19
ENDBRANCH   4  18
TORSDOF 6
ENDMDL
MODEL 3
REMARK VINA RESULT:    -7.524      3.611      8.433
REMARK INTER + INTRA:         -11.210
REMARK INTER:                  -9.891
REMARK INTRA:                  -1.318
REMARK UNBOUND:                -1.047
REMARK  Name = 
REMARK  7 active torsions:
REMARK  status: ('A' for Active; 'I' for Inactive)
REMARK    1  A    between atoms: C_1  and  N_2
REMARK    2  A    between atoms: N_2  and  C_3
REMARK    3  A    between atoms: C_3  and  C_4
REMARK    4  A    between atoms: C_7  and  C_8
REMARK    5  A    between atoms: C_8  and  N_9
REMARK    6  A    between atoms: C_10  and  C_12
REMARK    7  A    between atoms: C_24  and  C_26
REMARK                            x       y       z     vdW  Elec       q    Type
REMARK                         _______ _______ _______ _____ _____    ______ ____
ROOT
ATOM      1  C   UNL     1      49.218   7.538  15.960  0.00  0.00    +0.000 A 
ATOM      2  C   UNL     1      48.868   8.834  15.612  0.00  0.00    +0.000 A 
ATOM      3  C   UNL     1      48.536   9.108  14.283  0.00  0.00    +0.000 A 
ATOM      4  C   UNL     1      48.583   8.086  13.333  0.00  0.00    +0.000 A 
ATOM      5  C   UNL     1      48.946   6.820  13.771  0.00  0.00    +0.000 A 
ATOM      6  N   UNL     1      49.263   6.528  15.051  0.00  0.00    +0.000 NA
ENDROOT
BRANCH   1   7
ATOM      7  C   UNL     1      49.540   7.175  17.391  0.00  0.00    +0.000 C 
BRANCH   7   9
ATOM      8  C   UNL     1      47.903   8.072  19.107  0.00  0.00    +0.000 C 
ATOM      9  N   UNL     1      48.428   6.954  18.330  0.00  0.00    +0.000 N 
ATOM     10  C   UNL     1      47.719   5.750  18.438  0.00  0.00    +0.000 C 
ATOM     11  O   UNL     1      46.664   5.672  19.071  0.00  0.00    +0.000 OA
BRANCH  10  12
ATOM     12  C   UNL     1      48.183   4.512  17.761  0.00  0.00    +0.000 A 
ATOM     13  C   UNL     1      49.213   3.693  18.224  0.00  0.00    +0.000 A 
ATOM     14  C   UNL     1      49.584   2.566  17.490  0.00  0.00    +0.000 A 
ATOM     15  C   UNL     1      48.870   2.263  16.342  0.00  0.00    +0.000 A 
ATOM     16  N   UNL     1      47.828   2.996  15.897  0.00  0.00    +0.000 NA
ATOM     17  C   UNL     1      47.500   4.096  16.623  0.00  0.00    +0.000 A 
ENDBRANCH  10  12
ENDBRANCH   7   9
ENDBRANCH   1   7
BRANCH   4  18
ATOM     18  C   UNL     1      48.196   8.323  11.904  0.00  0.00    +0.000 C 
BRANCH  18  19
ATOM     19  N   UNL     1      47.546   7.164  11.347  0.00  0.00    +0.000 N 
ATOM     20  C   UNL     1      46.183   7.027  11.393  0.00  0.00    +0.000 C 
ATOM     21  O   UNL     1      45.459   7.906  11.855  0.00  0.00    +0.000 OA
ATOM     22  H   UNL     1      48.121   6.347  11.165  0.00  0.00    +0.000 HD
BRANCH  20  23
ATOM     23  C   UNL     1      45.622   5.803  10.810  0.00  0.00    +0.000 A 
ATOM     24  C   UNL     1      45.821   5.534   9.462  0.00  0.00    +0.000 A 
ATOM     25  S   UNL     1      45.140   4.057   8.950  0.00  0.00    +0.000 S 
ATOM     26  C   UNL     1      44.513   3.747  10.500  0.00  0.00    +0.000 A 
ATOM     27  N   UNL     1      43.781   2.627  10.744  0.00  0.00    +0.000 NA
ATOM     28  C   UNL     1      43.339   2.530  11.953  0.00  0.00    +0.000 A 
ATOM     29  N   UNL     1      43.573   3.446  12.944  0.00  0.00    +0.000 N 
ATOM     30  C   UNL     1      44.335   4.575  12.752  0.00  0.00    +0.000 A 
ATOM     31  O   UNL     1      44.564   5.352  13.674  0.00  0.00    +0.000 OA
ATOM     32  C   UNL     1      44.839   4.742  11.403  0.00  0.00    +0.000 A 
ATOM     33  H   UNL     1      43.206   3.306  13.873  0.00  0.00    +0.000 HD
ENDBRANCH  20  23
ENDBRANCH  18  19
ENDBRANCH   4  18
TORSDOF 6
ENDMDL
MODEL 4
REMARK VINA RESULT:    -7.402      2.500      3.015
REMARK INTER + INTRA:         -11.045
REMARK INTER:                 -10.639
REMARK INTRA:                  -0.406
REMARK UNBOUND:                -1.047
REMARK  Name = 
REMARK  7 active torsions:
REMARK  status: ('A' for Active; 'I' for Inactive)
REMARK    1  A    between atoms: C_1  and  N_2
REMARK    2  A    between atoms: N_2  and  C_3
REMARK    3  A    between atoms: C_3  and  C_4
REMARK    4  A    between atoms: C_7  and  C_8
REMARK    5  A    between atoms: C_8  and  N_9
REMARK    6  A    between atoms: C_10  and  C_12
REMARK    7  A    between atoms: C_24  and  C_26
REMARK                            x       y       z     vdW  Elec       q    Type
REMARK                         _______ _______ _______ _____ _____    ______ ____
ROOT
ATOM      1  C   UNL     1      45.457   6.670  11.652  0.00  0.00    +0.000 A 
ATOM      2  C   UNL     1      46.691   6.100  11.925  0.00  0.00    +0.000 A 
ATOM      3  C   UNL     1      47.575   6.779  12.767  0.00  0.00    +0.000 A 
ATOM      4  C   UNL     1      47.212   8.019  13.296  0.00  0.00    +0.000 A 
ATOM      5  C   UNL     1      45.957   8.514  12.967  0.00  0.00    +0.000 A 
ATOM      6  N   UNL     1      45.082   7.873  12.163  0.00  0.00    +0.000 NA
ENDROOT
BRANCH   1   7
ATOM      7  C   UNL     1      44.443   5.958  10.786  0.00  0.00    +0.000 C 
BRANCH   7   9
ATOM      8  C   UNL     1      42.939   4.786  12.456  0.00  0.00    +0.000 C 
ATOM      9  N   UNL     1      43.823   4.724  11.297  0.00  0.00    +0.000 N 
ATOM     10  C   UNL     1      43.905   3.480  10.657  0.00  0.00    +0.000 C 
ATOM     11  O   UNL     1      43.197   2.529  10.994  0.00  0.00    +0.000 OA
BRANCH  10  12
ATOM     12  C   UNL     1      44.822   3.255   9.511  0.00  0.00    +0.000 A 
ATOM     13  C   UNL     1      45.337   2.013   9.138  0.00  0.00    +0.000 A 
ATOM     14  C   UNL     1      46.215   1.924   8.058  0.00  0.00    +0.000 A 
ATOM     15  C   UNL     1      46.504   3.077   7.347  0.00  0.00    +0.000 A 
ATOM     16  N   UNL     1      45.977   4.284   7.638  0.00  0.00    +0.000 NA
ATOM     17  C   UNL     1      45.138   4.344   8.705  0.00  0.00    +0.000 A 
ENDBRANCH  10  12
ENDBRANCH   7   9
ENDBRANCH   1   7
BRANCH   4  18
ATOM     18  C   UNL     1      48.110   8.765  14.237  0.00  0.00    +0.000 C 
BRANCH  18  19
ATOM     19  N   UNL     1      48.379   7.987  15.419  0.00  0.00    +0.000 N 
ATOM     20  C   UNL     1      49.610   7.418  15.626  0.00  0.00    +0.000 C 
ATOM     21  O   UNL     1      50.543   7.594  14.846  0.00  0.00    +0.000 OA
ATOM     22  H   UNL     1      47.582   7.653  15.952  0.00  0.00    +0.000 HD
BRANCH  20  23
ATOM     23  C   UNL     1      49.776   6.633  16.855  0.00  0.00    +0.000 A 
ATOM     24  C   UNL     1      50.670   7.064  17.826  0.00  0.00    +0.000 A 
ATOM     25  S   UNL     1      50.718   6.065  19.206  0.00  0.00    +0.000 S 
ATOM     26  C   UNL     1      49.581   4.993  18.535  0.00  0.00    +0.000 A 
ATOM     27  N   UNL     1      49.192   3.878  19.210  0.00  0.00    +0.000 NA
ATOM     28  C   UNL     1      48.349   3.135  18.574  0.00  0.00    +0.000 A 
ATOM     29  N   UNL     1      47.850   3.412  17.329  0.00  0.00    +0.000 N 
ATOM     30  C   UNL     1      48.189   4.544  16.624  0.00  0.00    +0.000 A 
ATOM     31  O   UNL     1      47.688   4.786  15.531  0.00  0.00    +0.000 OA
ATOM     32  C   UNL     1      49.151   5.403  17.287  0.00  0.00    +0.000 A 
ATOM     33  H   UNL     1      47.185   2.794  16.890  0.00  0.00    +0.000 HD
ENDBRANCH  20  23
ENDBRANCH  18  19
ENDBRANCH   4  18
TORSDOF 6
ENDMDL
MODEL 5
REMARK VINA RESULT:    -7.317      2.023      3.300
REMARK INTER + INTRA:         -10.931
REMARK INTER:                  -9.935
REMARK INTRA:                  -0.996
REMARK UNBOUND:                -1.047
REMARK  Name = 
REMARK  7 active torsions:
REMARK  status: ('A' for Active; 'I' for Inactive)
REMARK    1  A    between atoms: C_1  and  N_2
REMARK    2  A    between atoms: N_2  and  C_3
REMARK    3  A    between atoms: C_3  and  C_4
REMARK    4  A    between atoms: C_7  and  C_8
REMARK    5  A    between atoms: C_8  and  N_9
REMARK    6  A    between atoms: C_10  and  C_12
REMARK    7  A    between atoms: C_24  and  C_26
REMARK                            x       y       z     vdW  Elec       q    Type
REMARK                         _______ _______ _______ _____ _____    ______ ____
ROOT
ATOM      1  C   UNL     1      47.467   5.761  13.598  0.00  0.00    +0.000 A 
ATOM      2  C   UNL     1      46.877   4.506  13.588  0.00  0.00    +0.000 A 
ATOM      3  C   UNL     1      46.949   3.718  14.739  0.00  0.00    +0.000 A 
ATOM      4  C   UNL     1      47.627   4.194  15.862  0.00  0.00    +0.000 A 
ATOM      5  C   UNL     1      48.190   5.461  15.783  0.00  0.00    +0.000 A 
ATOM      6  N   UNL     1      48.127   6.245  14.685  0.00  0.00    +0.000 NA
ENDROOT
BRANCH   1   7
ATOM      7  C   UNL     1      47.379   6.674  12.398  0.00  0.00    +0.000 C 
BRANCH   7   9
ATOM      8  C   UNL     1      46.396   8.968  12.839  0.00  0.00    +0.000 C 
ATOM      9  N   UNL     1      46.251   7.617  12.311  0.00  0.00    +0.000 N 
ATOM     10  C   UNL     1      45.062   7.357  11.616  0.00  0.00    +0.000 C 
ATOM     11  O   UNL     1      44.239   8.244  11.383  0.00  0.00    +0.000 OA
BRANCH  10  12
ATOM     12  C   UNL     1      44.750   6.004  11.089  0.00  0.00    +0.000 A 
ATOM     13  C   UNL     1      45.471   5.357  10.085  0.00  0.00    +0.000 A 
ATOM     14  C   UNL     1      45.070   4.095   9.648  0.00  0.00    +0.000 A 
ATOM     15  C   UNL     1      43.990   3.493  10.274  0.00  0.00    +0.000 A 
ATOM     16  N   UNL     1      43.307   4.060  11.290  0.00  0.00    +0.000 NA
ATOM     17  C   UNL     1      43.710   5.296  11.683  0.00  0.00    +0.000 A 
ENDBRANCH  10  12
ENDBRANCH   7   9
ENDBRANCH   1   7
BRANCH   4  18
ATOM     18  C   UNL     1      47.696   3.402  17.134  0.00  0.00    +0.000 C 
BRANCH  18  19
ATOM     19  N   UNL     1      49.062   3.210  17.548  0.00  0.00    +0.000 N 
ATOM     20  C   UNL     1      49.874   2.308  16.911  0.00  0.00    +0.000 C 
ATOM     21  O   UNL     1      49.492   1.671  15.932  0.00  0.00    +0.000 OA
ATOM     22  H   UNL     1      49.325   3.553  18.467  0.00  0.00    +0.000 HD
BRANCH  20  23
ATOM     23  C   UNL     1      51.245   2.179  17.420  0.00  0.00    +0.000 A 
ATOM     24  C   UNL     1      51.788   0.916  17.612  0.00  0.00    +0.000 A 
ATOM     25  S   UNL     1      53.398   0.939  18.170  0.00  0.00    +0.000 S 
ATOM     26  C   UNL     1      53.413   2.639  18.221  0.00  0.00    +0.000 A 
ATOM     27  N   UNL     1      54.514   3.313  18.648  0.00  0.00    +0.000 NA
ATOM     28  C   UNL     1      54.379   4.597  18.667  0.00  0.00    +0.000 A 
ATOM     29  N   UNL     1      53.248   5.269  18.286  0.00  0.00    +0.000 N 
ATOM     30  C   UNL     1      52.124   4.630  17.817  0.00  0.00    +0.000 A 
ATOM     31  O   UNL     1      51.144   5.264  17.440  0.00  0.00    +0.000 OA
ATOM     32  C   UNL     1      52.216   3.183  17.795  0.00  0.00    +0.000 A 
ATOM     33  H   UNL     1      53.211   6.277  18.316  0.00  0.00    +0.000 HD
ENDBRANCH  20  23
ENDBRANCH  18  19
ENDBRANCH   4  18
TORSDOF 6
ENDMDL
MODEL 6
REMARK VINA RESULT:    -6.772      3.670      4.844
REMARK INTER + INTRA:         -10.194
REMARK INTER:                  -9.719
REMARK INTRA:                  -0.475
REMARK UNBOUND:                -1.047
REMARK  Name = 
REMARK  7 active torsions:
REMARK  status: ('A' for Active; 'I' for Inactive)
REMARK    1  A    between atoms: C_1  and  N_2
REMARK    2  A    between atoms: N_2  and  C_3
REMARK    3  A    between atoms: C_3  and  C_4
REMARK    4  A    between atoms: C_7  and  C_8
REMARK    5  A    between atoms: C_8  and  N_9
REMARK    6  A    between atoms: C_10  and  C_12
REMARK    7  A    between atoms: C_24  and  C_26
REMARK                            x       y       z     vdW  Elec       q    Type
REMARK                         _______ _______ _______ _____ _____    ______ ____
ROOT
ATOM      1  C   UNL     1      46.022   6.684  11.892  0.00  0.00    +0.000 A 
ATOM      2  C   UNL     1      45.690   8.013  12.102  0.00  0.00    +0.000 A 
ATOM      3  C   UNL     1      46.402   8.743  13.057  0.00  0.00    +0.000 A 
ATOM      4  C   UNL     1      47.413   8.120  13.792  0.00  0.00    +0.000 A 
ATOM      5  C   UNL     1      47.676   6.785  13.517  0.00  0.00    +0.000 A 
ATOM      6  N   UNL     1      47.007   6.061  12.593  0.00  0.00    +0.000 NA
ENDROOT
BRANCH   1   7
ATOM      7  C   UNL     1      45.317   5.861  10.839  0.00  0.00    +0.000 C 
BRANCH   7   9
ATOM      8  C   UNL     1      43.568   4.988  12.452  0.00  0.00    +0.000 C 
ATOM      9  N   UNL     1      44.405   4.791  11.274  0.00  0.00    +0.000 N 
ATOM     10  C   UNL     1      44.166   3.617  10.545  0.00  0.00    +0.000 C 
ATOM     11  O   UNL     1      43.241   2.854  10.829  0.00  0.00    +0.000 OA
BRANCH  10  12
ATOM     12  C   UNL     1      44.994   3.253   9.368  0.00  0.00    +0.000 A 
ATOM     13  C   UNL     1      45.473   4.160   8.423  0.00  0.00    +0.000 A 
ATOM     14  C   UNL     1      46.220   3.700   7.338  0.00  0.00    +0.000 A 
ATOM     15  C   UNL     1      46.514   2.348   7.266  0.00  0.00    +0.000 A 
ATOM     16  N   UNL     1      46.120   1.450   8.192  0.00  0.00    +0.000 NA
ATOM     17  C   UNL     1      45.381   1.924   9.228  0.00  0.00    +0.000 A 
ENDBRANCH  10  12
ENDBRANCH   7   9
ENDBRANCH   1   7
BRANCH   4  18
ATOM     18  C   UNL     1      48.232   8.873  14.798  0.00  0.00    +0.000 C 
BRANCH  18  19
ATOM     19  N   UNL     1      47.947   8.421  16.135  0.00  0.00    +0.000 N 
ATOM     20  C   UNL     1      48.900   7.777  16.882  0.00  0.00    +0.000 C 
ATOM     21  O   UNL     1      50.045   7.610  16.466  0.00  0.00    +0.000 OA
ATOM     22  H   UNL     1      46.972   8.351  16.409  0.00  0.00    +0.000 HD
BRANCH  20  23
ATOM     23  C   UNL     1      48.504   7.345  18.228  0.00  0.00    +0.000 A 
ATOM     24  C   UNL     1      48.664   6.016  18.594  0.00  0.00    +0.000 A 
ATOM     25  S   UNL     1      48.193   5.685  20.199  0.00  0.00    +0.000 S 
ATOM     26  C   UNL     1      47.713   7.298  20.447  0.00  0.00    +0.000 A 
ATOM     27  N   UNL     1      47.180   7.692  21.634  0.00  0.00    +0.000 NA
ATOM     28  C   UNL     1      46.830   8.934  21.677  0.00  0.00    +0.000 A 
ATOM     29  N   UNL     1      46.976   9.821  20.645  0.00  0.00    +0.000 N 
ATOM     30  C   UNL     1      47.540   9.476  19.439  0.00  0.00    +0.000 A 
ATOM     31  O   UNL     1      47.699  10.307  18.550  0.00  0.00    +0.000 OA
ATOM     32  C   UNL     1      47.932   8.084  19.331  0.00  0.00    +0.000 A 
ATOM     33  H   UNL     1      46.690  10.783  20.747  0.00  0.00    +0.000 HD
ENDBRANCH  20  23
ENDBRANCH  18  19
ENDBRANCH   4  18
TORSDOF 6
ENDMDL
MODEL 7
REMARK VINA RESULT:    -6.733      3.581      9.221
REMARK INTER + INTRA:         -10.142
REMARK INTER:                  -8.934
REMARK INTRA:                  -1.207
REMARK UNBOUND:                -1.047
REMARK  Name = 
REMARK  7 active torsions:
REMARK  status: ('A' for Active; 'I' for Inactive)
REMARK    1  A    between atoms: C_1  and  N_2
REMARK    2  A    between atoms: N_2  and  C_3
REMARK    3  A    between atoms: C_3  and  C_4
REMARK    4  A    between atoms: C_7  and  C_8
REMARK    5  A    between atoms: C_8  and  N_9
REMARK    6  A    between atoms: C_10  and  C_12
REMARK    7  A    between atoms: C_24  and  C_26
REMARK                            x       y       z     vdW  Elec       q    Type
REMARK                         _______ _______ _______ _____ _____    ______ ____
ROOT
ATOM      1  C   UNL     1      51.005   4.730  18.147  0.00  0.00    +0.000 A 
ATOM      2  C   UNL     1      50.834   3.402  17.787  0.00  0.00    +0.000 A 
ATOM      3  C   UNL     1      49.580   2.981  17.337  0.00  0.00    +0.000 A 
ATOM      4  C   UNL     1      48.524   3.893  17.280  0.00  0.00    +0.000 A 
ATOM      5  C   UNL     1      48.785   5.202  17.662  0.00  0.00    +0.000 A 
ATOM      6  N   UNL     1      49.991   5.634  18.091  0.00  0.00    +0.000 NA
ENDROOT
BRANCH   1   7
ATOM      7  C   UNL     1      52.351   5.249  18.594  0.00  0.00    +0.000 C 
BRANCH   7   9
ATOM      8  C   UNL     1      54.443   4.139  17.691  0.00  0.00    +0.000 C 
ATOM      9  N   UNL     1      53.470   5.224  17.638  0.00  0.00    +0.000 N 
ATOM     10  C   UNL     1      53.601   6.109  16.559  0.00  0.00    +0.000 C 
ATOM     11  O   UNL     1      54.424   5.921  15.661  0.00  0.00    +0.000 OA
BRANCH  10  12
ATOM     12  C   UNL     1      52.726   7.300  16.421  0.00  0.00    +0.000 A 
ATOM     13  C   UNL     1      51.631   7.386  15.560  0.00  0.00    +0.000 A 
ATOM     14  C   UNL     1      50.894   8.568  15.493  0.00  0.00    +0.000 A 
ATOM     15  C   UNL     1      51.242   9.611  16.335  0.00  0.00    +0.000 A 
ATOM     16  N   UNL     1      52.255   9.544  17.224  0.00  0.00    +0.000 NA
ATOM     17  C   UNL     1      52.965   8.386  17.256  0.00  0.00    +0.000 A 
ENDBRANCH  10  12
ENDBRANCH   7   9
ENDBRANCH   1   7
BRANCH   4  18
ATOM     18  C   UNL     1      47.171   3.499  16.765  0.00  0.00    +0.000 C 
BRANCH  18  19
ATOM     19  N   UNL     1      46.689   4.453  15.801  0.00  0.00    +0.000 N 
ATOM     20  C   UNL     1      46.816   4.225  14.455  0.00  0.00    +0.000 C 
ATOM     21  O   UNL     1      47.291   3.180  14.018  0.00  0.00    +0.000 OA
ATOM     22  H   UNL     1      46.499   5.396  16.129  0.00  0.00    +0.000 HD
BRANCH  20  23
ATOM     23  C   UNL     1      46.303   5.267  13.557  0.00  0.00    +0.000 A 
ATOM     24  C   UNL     1      47.094   6.370  13.268  0.00  0.00    +0.000 A 
ATOM     25  S   UNL     1      46.371   7.467  12.182  0.00  0.00    +0.000 S 
ATOM     26  C   UNL     1      44.953   6.531  12.097  0.00  0.00    +0.000 A 
ATOM     27  N   UNL     1      43.897   6.933  11.341  0.00  0.00    +0.000 NA
ATOM     28  C   UNL     1      42.874   6.147  11.390  0.00  0.00    +0.000 A 
ATOM     29  N   UNL     1      42.816   4.988  12.118  0.00  0.00    +0.000 N 
ATOM     30  C   UNL     1      43.870   4.526  12.870  0.00  0.00    +0.000 A 
ATOM     31  O   UNL     1      43.802   3.460  13.474  0.00  0.00    +0.000 OA
ATOM     32  C   UNL     1      45.039   5.385  12.865  0.00  0.00    +0.000 A 
ATOM     33  H   UNL     1      41.988   4.412  12.106  0.00  0.00    +0.000 HD
ENDBRANCH  20  23
ENDBRANCH  18  19
ENDBRANCH   4  18
TORSDOF 6
ENDMDL
MODEL 8
REMARK VINA RESULT:    -6.703      3.526      9.850
REMARK INTER + INTRA:         -10.101
REMARK INTER:                  -8.937
REMARK INTRA:                  -1.164
REMARK UNBOUND:                -1.047
REMARK  Name = 
REMARK  7 active torsions:
REMARK  status: ('A' for Active; 'I' for Inactive)
REMARK    1  A    between atoms: C_1  and  N_2
REMARK    2  A    between atoms: N_2  and  C_3
REMARK    3  A    between atoms: C_3  and  C_4
REMARK    4  A    between atoms: C_7  and  C_8
REMARK    5  A    between atoms: C_8  and  N_9
REMARK    6  A    between atoms: C_10  and  C_12
REMARK    7  A    between atoms: C_24  and  C_26
REMARK                            x       y       z     vdW  Elec       q    Type
REMARK                         _______ _______ _______ _____ _____    ______ ____
ROOT
ATOM      1  C   UNL     1      49.438   5.674  19.572  0.00  0.00    +0.000 A 
ATOM      2  C   UNL     1      49.140   4.335  19.773  0.00  0.00    +0.000 A 
ATOM      3  C   UNL     1      48.486   3.631  18.759  0.00  0.00    +0.000 A 
ATOM      4  C   UNL     1      48.128   4.288  17.581  0.00  0.00    +0.000 A 
ATOM      5  C   UNL     1      48.464   5.630  17.467  0.00  0.00    +0.000 A 
ATOM      6  N   UNL     1      49.104   6.330  18.429  0.00  0.00    +0.000 NA
ENDROOT
BRANCH   1   7
ATOM      7  C   UNL     1      50.186   6.471  20.616  0.00  0.00    +0.000 C 
BRANCH   7   9
ATOM      8  C   UNL     1      51.125   8.813  20.376  0.00  0.00    +0.000 C 
ATOM      9  N   UNL     1      51.261   7.375  20.175  0.00  0.00    +0.000 N 
ATOM     10  C   UNL     1      52.503   6.941  19.690  0.00  0.00    +0.000 C 
ATOM     11  O   UNL     1      53.449   7.717  19.540  0.00  0.00    +0.000 OA
BRANCH  10  12
ATOM     12  C   UNL     1      52.756   5.514  19.370  0.00  0.00    +0.000 A 
ATOM     13  C   UNL     1      52.563   4.935  18.115  0.00  0.00    +0.000 A 
ATOM     14  C   UNL     1      52.807   3.574  17.935  0.00  0.00    +0.000 A 
ATOM     15  C   UNL     1      53.295   2.845  19.007  0.00  0.00    +0.000 A 
ATOM     16  N   UNL     1      53.552   3.381  20.218  0.00  0.00    +0.000 NA
ATOM     17  C   UNL     1      53.290   4.705  20.368  0.00  0.00    +0.000 A 
ENDBRANCH  10  12
ENDBRANCH   7   9
ENDBRANCH   1   7
BRANCH   4  18
ATOM     18  C   UNL     1      47.462   3.564  16.448  0.00  0.00    +0.000 C 
BRANCH  18  19
ATOM     19  N   UNL     1      46.794   4.489  15.568  0.00  0.00    +0.000 N 
ATOM     20  C   UNL     1      46.826   4.320  14.208  0.00  0.00    +0.000 C 
ATOM     21  O   UNL     1      47.373   3.350  13.689  0.00  0.00    +0.000 OA
ATOM     22  H   UNL     1      46.532   5.392  15.951  0.00  0.00    +0.000 HD
BRANCH  20  23
ATOM     23  C   UNL     1      46.124   5.325  13.401  0.00  0.00    +0.000 A 
ATOM     24  C   UNL     1      46.719   6.560  13.178  0.00  0.00    +0.000 A 
ATOM     25  S   UNL     1      45.794   7.598  12.193  0.00  0.00    +0.000 S 
ATOM     26  C   UNL     1      44.543   6.454  12.068  0.00  0.00    +0.000 A 
ATOM     27  N   UNL     1      43.412   6.731  11.366  0.00  0.00    +0.000 NA
ATOM     28  C   UNL     1      42.530   5.788  11.378  0.00  0.00    +0.000 A 
ATOM     29  N   UNL     1      42.681   4.587  12.020  0.00  0.00    +0.000 N 
ATOM     30  C   UNL     1      43.820   4.250  12.713  0.00  0.00    +0.000 A 
ATOM     31  O   UNL     1      43.943   3.148  13.237  0.00  0.00    +0.000 OA
ATOM     32  C   UNL     1      44.836   5.285  12.747  0.00  0.00    +0.000 A 
ATOM     33  H   UNL     1      41.956   3.887  11.982  0.00  0.00    +0.000 HD
ENDBRANCH  20  23
ENDBRANCH  18  19
ENDBRANCH   4  18
TORSDOF 6
ENDMDL
MODEL 9
REMARK VINA RESULT:    -6.693      2.090      2.883
REMARK INTER + INTRA:         -10.087
REMARK INTER:                  -9.234
REMARK INTRA:                  -0.853
REMARK UNBOUND:                -1.047
REMARK  Name = 
REMARK  7 active torsions:
REMARK  status: ('A' for Active; 'I' for Inactive)
REMARK    1  A    between atoms: C_1  and  N_2
REMARK    2  A    between atoms: N_2  and  C_3
REMARK    3  A    between atoms: C_3  and  C_4
REMARK    4  A    between atoms: C_7  and  C_8
REMARK    5  A    between atoms: C_8  and  N_9
REMARK    6  A    between atoms: C_10  and  C_12
REMARK    7  A    between atoms: C_24  and  C_26
REMARK                            x       y       z     vdW  Elec       q    Type
REMARK                         _______ _______ _______ _____ _____    ______ ____
ROOT
ATOM      1  C   UNL     1      46.383   4.408  13.322  0.00  0.00    +0.000 A 
ATOM      2  C   UNL     1      46.819   3.987  14.568  0.00  0.00    +0.000 A 
ATOM      3  C   UNL     1      47.670   4.818  15.301  0.00  0.00    +0.000 A 
ATOM      4  C   UNL     1      48.079   6.038  14.761  0.00  0.00    +0.000 A 
ATOM      5  C   UNL     1      47.595   6.378  13.505  0.00  0.00    +0.000 A 
ATOM      6  N   UNL     1      46.765   5.596  12.781  0.00  0.00    +0.000 NA
ENDROOT
BRANCH   1   7
ATOM      7  C   UNL     1      45.425   3.571  12.507  0.00  0.00    +0.000 C 
BRANCH   7   9
ATOM      8  C   UNL     1      43.248   4.803  12.914  0.00  0.00    +0.000 C 
ATOM      9  N   UNL     1      44.201   4.204  11.988  0.00  0.00    +0.000 N 
ATOM     10  C   UNL     1      43.939   4.406  10.626  0.00  0.00    +0.000 C 
ATOM     11  O   UNL     1      43.017   5.129  10.242  0.00  0.00    +0.000 OA
BRANCH  10  12
ATOM     12  C   UNL     1      44.785   3.791   9.572  0.00  0.00    +0.000 A 
ATOM     13  C   UNL     1      45.578   4.504   8.673  0.00  0.00    +0.000 A 
ATOM     14  C   UNL     1      46.313   3.820   7.704  0.00  0.00    +0.000 A 
ATOM     15  C   UNL     1      46.275   2.436   7.704  0.00  0.00    +0.000 A 
ATOM     16  N   UNL     1      45.569   1.710   8.595  0.00  0.00    +0.000 NA
ATOM     17  C   UNL     1      44.851   2.403   9.516  0.00  0.00    +0.000 A 
ENDBRANCH  10  12
ENDBRANCH   7   9
ENDBRANCH   1   7
BRANCH   4  18
ATOM     18  C   UNL     1      48.958   6.982  15.526  0.00  0.00    +0.000 C 
BRANCH  18  19
ATOM     19  N   UNL     1      49.563   6.322  16.655  0.00  0.00    +0.000 N 
ATOM     20  C   UNL     1      50.926   6.238  16.777  0.00  0.00    +0.000 C 
ATOM     21  O   UNL     1      51.683   6.767  15.966  0.00  0.00    +0.000 OA
ATOM     22  H   UNL     1      48.976   5.704  17.206  0.00  0.00    +0.000 HD
BRANCH  20  23
ATOM     23  C   UNL     1      51.440   5.533  17.957  0.00  0.00    +0.000 A 
ATOM     24  C   UNL     1      52.446   4.588  17.805  0.00  0.00    +0.000 A 
ATOM     25  S   UNL     1      52.958   3.889  19.273  0.00  0.00    +0.000 S 
ATOM     26  C   UNL     1      51.821   4.789  20.161  0.00  0.00    +0.000 A 
ATOM     27  N   UNL     1      51.712   4.640  21.508  0.00  0.00    +0.000 NA
ATOM     28  C   UNL     1      50.788   5.359  22.053  0.00  0.00    +0.000 A 
ATOM     29  N   UNL     1      49.970   6.222  21.374  0.00  0.00    +0.000 N 
ATOM     30  C   UNL     1      50.066   6.430  20.018  0.00  0.00    +0.000 A 
ATOM     31  O   UNL     1      49.349   7.246  19.447  0.00  0.00    +0.000 OA
ATOM     32  C   UNL     1      51.077   5.630  19.354  0.00  0.00    +0.000 A 
ATOM     33  H   UNL     1      49.272   6.763  21.861  0.00  0.00    +0.000 HD
ENDBRANCH  20  23
ENDBRANCH  18  19
ENDBRANCH   4  18
TORSDOF 6
ENDMDL
