MODEL 1
REMARK VINA RESULT:    -7.897      0.000      0.000
REMARK INTER + INTRA:          -9.783
REMARK INTER:                  -9.282
REMARK INTRA:                  -0.501
REMARK UNBOUND:                -0.501
REMARK  Name = 
REMARK  3 active torsions:
REMARK  status: ('A' for Active; 'I' for Inactive)
REMARK    1  A    between atoms: C_4  and  C_5
REMARK    2  A    between atoms: C_9  and  C_10
REMARK    3  A    between atoms: C_10  and  N_11
REMARK                            x       y       z     vdW  Elec       q    Type
REMARK                         _______ _______ _______ _____ _____    ______ ____
ROOT
ATOM      1  C   UNL     1      46.359   6.053  12.165  0.00  0.00    +0.000 A 
ATOM      2  C   UNL     1      46.629   5.156  13.202  0.00  0.00    +0.000 A 
ATOM      3  N   UNL     1      46.062   3.933  13.352  0.00  0.00    +0.000 NA
ATOM      4  C   UNL     1      45.156   3.569  12.422  0.00  0.00    +0.000 A 
ATOM      5  C   UNL     1      44.804   4.358  11.336  0.00  0.00    +0.000 A 
ATOM      6  C   UNL     1      45.415   5.615  11.221  0.00  0.00    +0.000 A 
ENDROOT
BRANCH   1  10
ATOM      7  C   UNL     1      48.287   9.898  11.828  0.00  0.00    +0.000 A 
ATOM      8  C   UNL     1      49.016   8.731  11.624  0.00  0.00    +0.000 A 
ATOM      9  C   UNL     1      48.391   7.484  11.732  0.00  0.00    +0.000 A 
ATOM     10  C   UNL     1      47.025   7.371  12.058  0.00  0.00    +0.000 A 
ATOM     11  C   UNL     1      46.319   8.570  12.271  0.00  0.00    +0.000 A 
ATOM     12  C   UNL     1      46.938   9.818  12.150  0.00  0.00    +0.000 A 
ENDBRANCH   1  10
BRANCH   5  13
ATOM     13  C   UNL     1      43.820   3.861  10.316  0.00  0.00    +0.000 C 
BRANCH  13  14
ATOM     14  N   UNL     1      44.176   4.321   8.994  0.00  0.00    +0.000 N 
ATOM     15  C   UNL     1      45.160   3.528   8.407  0.00  0.00    +0.000 A 
ATOM     16  N   UNL     1      45.211   2.220   8.691  0.00  0.00    +0.000 NA
ATOM     17  C   UNL     1      46.190   1.498   8.119  0.00  0.00    +0.000 A 
ATOM     18  C   UNL     1      47.121   2.035   7.273  0.00  0.00    +0.000 A 
ATOM     19  C   UNL     1      46.983   3.382   7.036  0.00  0.00    +0.000 A 
ATOM     20  N   UNL     1      46.025   4.147   7.595  0.00  0.00    +0.000 NA
ATOM     21  H   UNL     1      44.500   5.282   8.927  0.00  0.00    +0.000 HD
ENDBRANCH  13  14
ENDBRANCH   5  13
TORSDOF 3
ENDMDL
MODEL 2
REMARK VINA RESULT:    -7.846      2.054      6.216
REMARK INTER + INTRA:          -9.724
REMARK INTER:                  -9.116
REMARK INTRA:                  -0.608
REMARK UNBOUND:                -0.501
REMARK  Name = 
REMARK  3 active torsions:
REMARK  status: ('A' for Active; 'I' for Inactive)
REMARK    1  A    between atoms: C_4  and  C_5
REMARK    2  A    between atoms: C_9  and  C_10
REMARK    3  A    between atoms: C_10  and  N_11
REMARK                            x       y       z     vdW  Elec       q    Type
REMARK                         _______ _______ _______ _____ _____    ______ ____
ROOT
ATOM      1  C   UNL     1      44.885   3.248   9.487  0.00  0.00    +0.000 A 
ATOM      2  C   UNL     1      44.025   2.410  10.202  0.00  0.00    +0.000 A 
ATOM      3  N   UNL     1      43.245   2.787  11.247  0.00  0.00    +0.000 NA
ATOM      4  C   UNL     1      43.325   4.080  11.623  0.00  0.00    +0.000 A 
ATOM      5  C   UNL     1      44.130   5.020  10.995  0.00  0.00    +0.000 A 
ATOM      6  C   UNL     1      44.919   4.585   9.920  0.00  0.00    +0.000 A 
ENDROOT
BRANCH   1  10
ATOM      7  C   UNL     1      47.284   1.852   6.184  0.00  0.00    +0.000 A 
ATOM      8  C   UNL     1      46.795   3.154   6.191  0.00  0.00    +0.000 A 
ATOM      9  C   UNL     1      46.018   3.608   7.263  0.00  0.00    +0.000 A 
ATOM     10  C   UNL     1      45.700   2.769   8.348  0.00  0.00    +0.000 A 
ATOM     11  C   UNL     1      46.199   1.453   8.305  0.00  0.00    +0.000 A 
ATOM     12  C   UNL     1      46.987   1.001   7.243  0.00  0.00    +0.000 A 
ENDBRANCH   1  10
BRANCH   5  13
ATOM     13  C   UNL     1      44.128   6.452  11.445  0.00  0.00    +0.000 C 
BRANCH  13  14
ATOM     14  N   UNL     1      44.674   6.571  12.777  0.00  0.00    +0.000 N 
ATOM     15  C   UNL     1      46.061   6.704  12.770  0.00  0.00    +0.000 A 
ATOM     16  N   UNL     1      46.659   7.331  11.748  0.00  0.00    +0.000 NA
ATOM     17  C   UNL     1      48.000   7.417  11.772  0.00  0.00    +0.000 A 
ATOM     18  C   UNL     1      48.767   6.897  12.778  0.00  0.00    +0.000 A 
ATOM     19  C   UNL     1      48.064   6.279  13.785  0.00  0.00    +0.000 A 
ATOM     20  N   UNL     1      46.722   6.160  13.798  0.00  0.00    +0.000 NA
ATOM     21  H   UNL     1      44.459   5.812  13.418  0.00  0.00    +0.000 HD
ENDBRANCH  13  14
ENDBRANCH   5  13
TORSDOF 3
ENDMDL
MODEL 3
REMARK VINA RESULT:    -7.628      1.295      2.159
REMARK INTER + INTRA:          -9.466
REMARK INTER:                  -8.928
REMARK INTRA:                  -0.538
REMARK UNBOUND:                -0.501
REMARK  Name = 
REMARK  3 active torsions:
REMARK  status: ('A' for Active; 'I' for Inactive)
REMARK    1  A    between atoms: C_4  and  C_5
REMARK    2  A    between atoms: C_9  and  C_10
REMARK    3  A    between atoms: C_10  and  N_11
REMARK                            x       y       z     vdW  Elec       q    Type
REMARK                         _______ _______ _______ _____ _____    ______ ____
ROOT
ATOM      1  C   UNL     1      45.190   5.445  11.951  0.00  0.00    +0.000 A 
ATOM      2  C   UNL     1      44.459   4.911  13.015  0.00  0.00    +0.000 A 
ATOM      3  N   UNL     1      43.728   3.769  12.974  0.00  0.00    +0.000 NA
ATOM      4  C   UNL     1      43.704   3.110  11.798  0.00  0.00    +0.000 A 
ATOM      5  C   UNL     1      44.393   3.525  10.666  0.00  0.00    +0.000 A 
ATOM      6  C   UNL     1      45.135   4.710  10.755  0.00  0.00    +0.000 A 
ENDROOT
BRANCH   1  10
ATOM      7  C   UNL     1      47.495   9.073  12.328  0.00  0.00    +0.000 A 
ATOM      8  C   UNL     1      46.145   9.065  12.666  0.00  0.00    +0.000 A 
ATOM      9  C   UNL     1      45.398   7.888  12.545  0.00  0.00    +0.000 A 
ATOM     10  C   UNL     1      45.977   6.694  12.072  0.00  0.00    +0.000 A 
ATOM     11  C   UNL     1      47.341   6.739  11.728  0.00  0.00    +0.000 A 
ATOM     12  C   UNL     1      48.093   7.909  11.861  0.00  0.00    +0.000 A 
ENDBRANCH   1  10
BRANCH   5  13
ATOM     13  C   UNL     1      44.353   2.709   9.405  0.00  0.00    +0.000 C 
BRANCH  13  14
ATOM     14  N   UNL     1      45.533   1.883   9.293  0.00  0.00    +0.000 N 
ATOM     15  C   UNL     1      46.157   2.021   8.055  0.00  0.00    +0.000 A 
ATOM     16  N   UNL     1      46.106   3.197   7.416  0.00  0.00    +0.000 NA
ATOM     17  C   UNL     1      46.702   3.278   6.214  0.00  0.00    +0.000 A 
ATOM     18  C   UNL     1      47.348   2.225   5.625  0.00  0.00    +0.000 A 
ATOM     19  C   UNL     1      47.354   1.063   6.359  0.00  0.00    +0.000 A 
ATOM     20  N   UNL     1      46.761   0.933   7.562  0.00  0.00    +0.000 NA
ATOM     21  H   UNL     1      45.398   0.887   9.440  0.00  0.00    +0.000 HD
ENDBRANCH  13  14
ENDBRANCH   5  13
TORSDOF 3
ENDMDL
MODEL 4
REMARK VINA RESULT:    -7.383      2.428      6.559
REMARK INTER + INTRA:          -9.179
REMARK INTER:                  -8.694
REMARK INTRA:                  -0.485
REMARK UNBOUND:                -0.501
REMARK  Name = 
REMARK  3 active torsions:
REMARK  status: ('A' for Active; 'I' for Inactive)
REMARK    1  A    between atoms: C_4  and  C_5
REMARK    2  A    between atoms: C_9  and  C_10
REMARK    3  A    between atoms: C_10  and  N_11
REMARK                            x       y       z     vdW  Elec       q    Type
REMARK                         _______ _______ _______ _____ _____    ______ ____
ROOT
ATOM      1  C   UNL     1      44.847   3.321   9.755  0.00  0.00    +0.000 A 
ATOM      2  C   UNL     1      43.960   2.440  10.379  0.00  0.00    +0.000 A 
ATOM      3  N   UNL     1      43.186   2.731  11.455  0.00  0.00    +0.000 NA
ATOM      4  C   UNL     1      43.301   3.976  11.962  0.00  0.00    +0.000 A 
ATOM      5  C   UNL     1      44.136   4.951  11.433  0.00  0.00    +0.000 A 
ATOM      6  C   UNL     1      44.916   4.605  10.321  0.00  0.00    +0.000 A 
ENDROOT
BRANCH   1  10
ATOM      7  C   UNL     1      47.220   2.198   6.331  0.00  0.00    +0.000 A 
ATOM      8  C   UNL     1      46.772   3.507   6.472  0.00  0.00    +0.000 A 
ATOM      9  C   UNL     1      46.004   3.872   7.582  0.00  0.00    +0.000 A 
ATOM     10  C   UNL     1      45.653   2.936   8.574  0.00  0.00    +0.000 A 
ATOM     11  C   UNL     1      46.111   1.616   8.397  0.00  0.00    +0.000 A 
ATOM     12  C   UNL     1      46.890   1.252   7.295  0.00  0.00    +0.000 A 
ENDBRANCH   1  10
BRANCH   5  13
ATOM     13  C   UNL     1      44.172   6.330  12.026  0.00  0.00    +0.000 C 
BRANCH  13  14
ATOM     14  N   UNL     1      43.786   7.319  11.047  0.00  0.00    +0.000 N 
ATOM     15  C   UNL     1      44.382   8.556  11.284  0.00  0.00    +0.000 A 
ATOM     16  N   UNL     1      45.602   8.607  11.835  0.00  0.00    +0.000 NA
ATOM     17  C   UNL     1      46.128   9.822  12.066  0.00  0.00    +0.000 A 
ATOM     18  C   UNL     1      45.480  10.990  11.767  0.00  0.00    +0.000 A 
ATOM     19  C   UNL     1      44.239  10.836  11.198  0.00  0.00    +0.000 A 
ATOM     20  N   UNL     1      43.667   9.639  10.958  0.00  0.00    +0.000 NA
ATOM     21  H   UNL     1      42.789   7.490  10.953  0.00  0.00    +0.000 HD
ENDBRANCH  13  14
ENDBRANCH   5  13
TORSDOF 3
ENDMDL
MODEL 5
REMARK VINA RESULT:    -7.079      1.329      2.013
REMARK INTER + INTRA:          -8.822
REMARK INTER:                  -8.247
REMARK INTRA:                  -0.575
REMARK UNBOUND:                -0.501
REMARK  Name = 
REMARK  3 active torsions:
REMARK  status: ('A' for Active; 'I' for Inactive)
REMARK    1  A    between atoms: C_4  and  C_5
REMARK    2  A    between atoms: C_9  and  C_10
REMARK    3  A    between atoms: C_10  and  N_11
REMARK                            x       y       z     vdW  Elec       q    Type
REMARK                         _______ _______ _______ _____ _____    ______ ____
ROOT
ATOM      1  C   UNL     1      45.464   7.537  12.136  0.00  0.00    +0.000 A 
ATOM      2  C   UNL     1      46.208   6.839  13.091  0.00  0.00    +0.000 A 
ATOM      3  N   UNL     1      46.154   5.501  13.308  0.00  0.00    +0.000 NA
ATOM      4  C   UNL     1      45.298   4.799  12.539  0.00  0.00    +0.000 A 
ATOM      5  C   UNL     1      44.507   5.365  11.548  0.00  0.00    +0.000 A 
ATOM      6  C   UNL     1      44.596   6.752  11.359  0.00  0.00    +0.000 A 
ENDROOT
BRANCH   1  10
ATOM      7  C   UNL     1      45.814  11.806  11.615  0.00  0.00    +0.000 A 
ATOM      8  C   UNL     1      44.581  11.182  11.459  0.00  0.00    +0.000 A 
ATOM      9  C   UNL     1      44.467   9.798  11.629  0.00  0.00    +0.000 A 
ATOM     10  C   UNL     1      45.583   9.001  11.947  0.00  0.00    +0.000 A 
ATOM     11  C   UNL     1      46.819   9.660  12.086  0.00  0.00    +0.000 A 
ATOM     12  C   UNL     1      46.934  11.045  11.930  0.00  0.00    +0.000 A 
ENDBRANCH   1  10
BRANCH   5  13
ATOM     13  C   UNL     1      43.612   4.508  10.700  0.00  0.00    +0.000 C 
BRANCH  13  14
ATOM     14  N   UNL     1      43.850   4.750   9.296  0.00  0.00    +0.000 N 
ATOM     15  C   UNL     1      44.734   3.825   8.744  0.00  0.00    +0.000 A 
ATOM     16  N   UNL     1      44.761   2.572   9.216  0.00  0.00    +0.000 NA
ATOM     17  C   UNL     1      45.645   1.721   8.669  0.00  0.00    +0.000 A 
ATOM     18  C   UNL     1      46.506   2.076   7.667  0.00  0.00    +0.000 A 
ATOM     19  C   UNL     1      46.401   3.379   7.244  0.00  0.00    +0.000 A 
ATOM     20  N   UNL     1      45.537   4.270   7.770  0.00  0.00    +0.000 NA
ATOM     21  H   UNL     1      44.205   5.671   9.055  0.00  0.00    +0.000 HD
ENDBRANCH  13  14
ENDBRANCH   5  13
TORSDOF 3
ENDMDL
MODEL 6
REMARK VINA RESULT:    -6.941      2.614      4.113
REMARK INTER + INTRA:          -8.660
REMARK INTER:                  -8.153
REMARK INTRA:                  -0.507
REMARK UNBOUND:                -0.501
REMARK  Name = 
REMARK  3 active torsions:
REMARK  status: ('A' for Active; 'I' for Inactive)
REMARK    1  A    between atoms: C_4  and  C_5
REMARK    2  A    between atoms: C_9  and  C_10
REMARK    3  A    between atoms: C_10  and  N_11
REMARK                            x       y       z     vdW  Elec       q    Type
REMARK                         _______ _______ _______ _____ _____    ______ ____
ROOT
ATOM      1  C   UNL     1      47.251   5.394  14.275  0.00  0.00    +0.000 A 
ATOM      2  C   UNL     1      47.846   6.516  13.694  0.00  0.00    +0.000 A 
ATOM      3  N   UNL     1      47.486   7.075  12.511  0.00  0.00    +0.000 NA
ATOM      4  C   UNL     1      46.473   6.482  11.847  0.00  0.00    +0.000 A 
ATOM      5  C   UNL     1      45.789   5.369  12.316  0.00  0.00    +0.000 A 
ATOM      6  C   UNL     1      46.196   4.825  13.542  0.00  0.00    +0.000 A 
ENDROOT
BRANCH   1  10
ATOM      7  C   UNL     1      48.506   3.793  18.080  0.00  0.00    +0.000 A 
ATOM      8  C   UNL     1      48.882   5.079  17.705  0.00  0.00    +0.000 A 
ATOM      9  C   UNL     1      48.474   5.598  16.472  0.00  0.00    +0.000 A 
ATOM     10  C   UNL     1      47.691   4.843  15.577  0.00  0.00    +0.000 A 
ATOM     11  C   UNL     1      47.338   3.541  15.981  0.00  0.00    +0.000 A 
ATOM     12  C   UNL     1      47.733   3.024  17.218  0.00  0.00    +0.000 A 
ENDBRANCH   1  10
BRANCH   5  13
ATOM     13  C   UNL     1      44.640   4.795  11.538  0.00  0.00    +0.000 C 
BRANCH  13  14
ATOM     14  N   UNL     1      44.686   5.229  10.161  0.00  0.00    +0.000 N 
ATOM     15  C   UNL     1      45.200   4.249   9.315  0.00  0.00    +0.000 A 
ATOM     16  N   UNL     1      44.991   2.956   9.598  0.00  0.00    +0.000 NA
ATOM     17  C   UNL     1      45.524   2.045   8.766  0.00  0.00    +0.000 A 
ATOM     18  C   UNL     1      46.261   2.377   7.662  0.00  0.00    +0.000 A 
ATOM     19  C   UNL     1      46.416   3.726   7.451  0.00  0.00    +0.000 A 
ATOM     20  N   UNL     1      45.908   4.675   8.263  0.00  0.00    +0.000 NA
ATOM     21  H   UNL     1      45.214   6.077   9.977  0.00  0.00    +0.000 HD
ENDBRANCH  13  14
ENDBRANCH   5  13
TORSDOF 3
ENDMDL
MODEL 7
REMARK VINA RESULT:    -6.939      3.173      6.863
REMARK INTER + INTRA:          -8.658
REMARK INTER:                  -8.234
REMARK INTRA:                  -0.423
REMARK UNBOUND:                -0.501
REMARK  Name = 
REMARK  3 active torsions:
REMARK  status: ('A' for Active; 'I' for Inactive)
REMARK    1  A    between atoms: C_4  and  C_5
REMARK    2  A    between atoms: C_9  and  C_10
REMARK    3  A    between atoms: C_10  and  N_11
REMARK                            x       y       z     vdW  Elec       q    Type
REMARK                         _______ _______ _______ _____ _____    ______ ____
ROOT
ATOM      1  C   UNL     1      45.247   3.424   9.170  0.00  0.00    +0.000 A 
ATOM      2  C   UNL     1      44.143   4.258   8.975  0.00  0.00    +0.000 A 
ATOM      3  N   UNL     1      43.459   4.901   9.954  0.00  0.00    +0.000 NA
ATOM      4  C   UNL     1      43.884   4.702  11.218  0.00  0.00    +0.000 A 
ATOM      5  C   UNL     1      44.972   3.908  11.551  0.00  0.00    +0.000 A 
ATOM      6  C   UNL     1      45.649   3.262  10.506  0.00  0.00    +0.000 A 
ENDROOT
BRANCH   1  10
ATOM      7  C   UNL     1      47.329   1.495   5.921  0.00  0.00    +0.000 A 
ATOM      8  C   UNL     1      46.949   2.828   5.812  0.00  0.00    +0.000 A 
ATOM      9  C   UNL     1      46.275   3.454   6.866  0.00  0.00    +0.000 A 
ATOM     10  C   UNL     1      45.952   2.762   8.050  0.00  0.00    +0.000 A 
ATOM     11  C   UNL     1      46.340   1.410   8.123  0.00  0.00    +0.000 A 
ATOM     12  C   UNL     1      47.025   0.785   7.077  0.00  0.00    +0.000 A 
ENDBRANCH   1  10
BRANCH   5  13
ATOM     13  C   UNL     1      45.412   3.773  12.980  0.00  0.00    +0.000 C 
BRANCH  13  14
ATOM     14  N   UNL     1      46.409   4.767  13.305  0.00  0.00    +0.000 N 
ATOM     15  C   UNL     1      47.112   4.450  14.465  0.00  0.00    +0.000 A 
ATOM     16  N   UNL     1      47.327   3.165  14.777  0.00  0.00    +0.000 NA
ATOM     17  C   UNL     1      47.990   2.906  15.918  0.00  0.00    +0.000 A 
ATOM     18  C   UNL     1      48.444   3.884  16.760  0.00  0.00    +0.000 A 
ATOM     19  C   UNL     1      48.182   5.170  16.353  0.00  0.00    +0.000 A 
ATOM     20  N   UNL     1      47.512   5.477  15.224  0.00  0.00    +0.000 NA
ATOM     21  H   UNL     1      46.071   5.718  13.420  0.00  0.00    +0.000 HD
ENDBRANCH  13  14
ENDBRANCH   5  13
TORSDOF 3
ENDMDL
MODEL 8
REMARK VINA RESULT:    -6.470      2.938      7.011
REMARK INTER + INTRA:          -8.105
REMARK INTER:                  -7.665
REMARK INTRA:                  -0.441
REMARK UNBOUND:                -0.501
REMARK  Name = 
REMARK  3 active torsions:
REMARK  status: ('A' for Active; 'I' for Inactive)
REMARK    1  A    between atoms: C_4  and  C_5
REMARK    2  A    between atoms: C_9  and  C_10
REMARK    3  A    between atoms: C_10  and  N_11
REMARK                            x       y       z     vdW  Elec       q    Type
REMARK                         _______ _______ _______ _____ _____    ______ ____
ROOT
ATOM      1  C   UNL     1      45.523   5.541  11.174  0.00  0.00    +0.000 A 
ATOM      2  C   UNL     1      45.013   6.838  11.061  0.00  0.00    +0.000 A 
ATOM      3  N   UNL     1      45.236   7.850  11.937  0.00  0.00    +0.000 NA
ATOM      4  C   UNL     1      46.005   7.565  13.006  0.00  0.00    +0.000 A 
ATOM      5  C   UNL     1      46.582   6.323  13.234  0.00  0.00    +0.000 A 
ATOM      6  C   UNL     1      46.325   5.306  12.303  0.00  0.00    +0.000 A 
ENDROOT
BRANCH   1  10
ATOM      7  C   UNL     1      44.741   2.455   8.262  0.00  0.00    +0.000 A 
ATOM      8  C   UNL     1      45.284   3.671   7.862  0.00  0.00    +0.000 A 
ATOM      9  C   UNL     1      45.539   4.671   8.806  0.00  0.00    +0.000 A 
ATOM     10  C   UNL     1      45.246   4.487  10.171  0.00  0.00    +0.000 A 
ATOM     11  C   UNL     1      44.686   3.251  10.542  0.00  0.00    +0.000 A 
ATOM     12  C   UNL     1      44.443   2.244   9.604  0.00  0.00    +0.000 A 
ENDBRANCH   1  10
BRANCH   5  13
ATOM     13  C   UNL     1      47.466   6.097  14.427  0.00  0.00    +0.000 C 
BRANCH  13  14
ATOM     14  N   UNL     1      47.024   4.948  15.182  0.00  0.00    +0.000 N 
ATOM     15  C   UNL     1      48.018   4.458  16.026  0.00  0.00    +0.000 A 
ATOM     16  N   UNL     1      48.906   5.305  16.563  0.00  0.00    +0.000 NA
ATOM     17  C   UNL     1      49.861   4.784  17.354  0.00  0.00    +0.000 A 
ATOM     18  C   UNL     1      49.962   3.448  17.627  0.00  0.00    +0.000 A 
ATOM     19  C   UNL     1      49.003   2.660  17.037  0.00  0.00    +0.000 A 
ATOM     20  N   UNL     1      48.035   3.135  16.230  0.00  0.00    +0.000 NA
ATOM     21  H   UNL     1      46.689   4.158  14.639  0.00  0.00    +0.000 HD
ENDBRANCH  13  14
ENDBRANCH   5  13
TORSDOF 3
ENDMDL
MODEL 9
REMARK VINA RESULT:    -6.177      3.482      7.182
REMARK INTER + INTRA:          -7.762
REMARK INTER:                  -7.216
REMARK INTRA:                  -0.546
REMARK UNBOUND:                -0.501
REMARK  Name = 
REMARK  3 active torsions:
REMARK  status: ('A' for Active; 'I' for Inactive)
REMARK    1  A    between atoms: C_4  and  C_5
REMARK    2  A    between atoms: C_9  and  C_10
REMARK    3  A    between atoms: C_10  and  N_11
REMARK                            x       y       z     vdW  Elec       q    Type
REMARK                         _______ _______ _______ _____ _____    ______ ____
ROOT
ATOM      1  C   UNL     1      46.743   6.172  12.360  0.00  0.00    +0.000 A 
ATOM      2  C   UNL     1      47.426   6.940  11.414  0.00  0.00    +0.000 A 
ATOM      3  N   UNL     1      48.557   7.653  11.646  0.00  0.00    +0.000 NA
ATOM      4  C   UNL     1      49.046   7.617  12.903  0.00  0.00    +0.000 A 
ATOM      5  C   UNL     1      48.472   6.886  13.934  0.00  0.00    +0.000 A 
ATOM      6  C   UNL     1      47.304   6.165  13.648  0.00  0.00    +0.000 A 
ENDROOT
BRANCH   1  10
ATOM      7  C   UNL     1      43.185   3.924  11.409  0.00  0.00    +0.000 A 
ATOM      8  C   UNL     1      43.935   4.508  10.393  0.00  0.00    +0.000 A 
ATOM      9  C   UNL     1      45.089   5.235  10.701  0.00  0.00    +0.000 A 
ATOM     10  C   UNL     1      45.517   5.409  12.032  0.00  0.00    +0.000 A 
ATOM     11  C   UNL     1      44.730   4.816  13.037  0.00  0.00    +0.000 A 
ATOM     12  C   UNL     1      43.584   4.077  12.731  0.00  0.00    +0.000 A 
ENDBRANCH   1  10
BRANCH   5  13
ATOM     13  C   UNL     1      49.104   6.860  15.296  0.00  0.00    +0.000 C 
BRANCH  13  14
ATOM     14  N   UNL     1      48.153   6.427  16.294  0.00  0.00    +0.000 N 
ATOM     15  C   UNL     1      48.468   5.174  16.814  0.00  0.00    +0.000 A 
ATOM     16  N   UNL     1      49.752   4.804  16.915  0.00  0.00    +0.000 NA
ATOM     17  C   UNL     1      50.008   3.578  17.402  0.00  0.00    +0.000 A 
ATOM     18  C   UNL     1      49.028   2.705  17.791  0.00  0.00    +0.000 A 
ATOM     19  C   UNL     1      47.744   3.176  17.658  0.00  0.00    +0.000 A 
ATOM     20  N   UNL     1      47.439   4.393  17.165  0.00  0.00    +0.000 NA
ATOM     21  H   UNL     1      47.183   6.382  15.997  0.00  0.00    +0.000 HD
ENDBRANCH  13  14
ENDBRANCH   5  13
TORSDOF 3
ENDMDL
