MODEL 1
REMARK VINA RESULT:    -7.793      0.000      0.000
REMARK INTER + INTRA:         -12.337
REMARK INTER:                 -11.210
REMARK INTRA:                  -1.127
REMARK UNBOUND:                -1.127
REMARK  Name = 
REMARK  8 active torsions:
REMARK  status: ('A' for Active; 'I' for Inactive)
REMARK    1  A    between atoms: N_1  and  C_2
REMARK    2  A    between atoms: C_2  and  C_3
REMARK    3  A    between atoms: C_2  and  C_10
REMARK    4  A    between atoms: C_3  and  C_4
REMARK    5  A    between atoms: C_13  and  C_14
REMARK    6  A    between atoms: C_14  and  N_15
REMARK    7  A    between atoms: N_15  and  C_16
REMARK    8  A    between atoms: C_16  and  C_17
REMARK                            x       y       z     vdW  Elec       q    Type
REMARK                         _______ _______ _______ _____ _____    ______ ____
ROOT
ATOM      1  C   UNL     1      46.541   2.615   7.179  0.00  0.00    +0.000 A 
ATOM      2  C   UNL     1      46.128   3.942   7.393  0.00  0.00    +0.000 A 
ATOM      3  C   UNL     1      45.300   4.279   8.469  0.00  0.00    +0.000 A 
ATOM      4  C   UNL     1      44.839   3.296   9.351  0.00  0.00    +0.000 A 
ATOM      5  C   UNL     1      45.199   1.968   9.119  0.00  0.00    +0.000 A 
ATOM      6  C   UNL     1      46.029   1.635   8.046  0.00  0.00    +0.000 A 
ENDROOT
BRANCH   1   7
ATOM      7  C   UNL     1      47.466   2.258   6.010  0.00  0.00    +0.000 C 
BRANCH   7   8
ATOM      8  N   UNL     1      48.842   2.733   6.259  0.00  0.00    +0.000 NA
ATOM      9  H   UNL     1      48.811   3.726   6.488  0.00  0.00    +0.000 HD
ATOM     10  H   UNL     1      49.370   2.665   5.389  0.00  0.00    +0.000 HD
ENDBRANCH   7   8
BRANCH   7  11
ATOM     11  C   UNL     1      47.477   0.735   5.700  0.00  0.00    +0.000 C 
BRANCH  11  12
ATOM     12  C   UNL     1      46.868   0.308   4.385  0.00  0.00    +0.000 A 
ATOM     13  C   UNL     1      46.928  -1.034   3.985  0.00  0.00    +0.000 A 
ATOM     14  C   UNL     1      46.295  -1.450   2.814  0.00  0.00    +0.000 A 
ATOM     15  C   UNL     1      45.596  -0.530   2.035  0.00  0.00    +0.000 A 
ATOM     16  C   UNL     1      45.533   0.807   2.422  0.00  0.00    +0.000 A 
ATOM     17  C   UNL     1      46.166   1.226   3.593  0.00  0.00    +0.000 A 
ENDBRANCH  11  12
ENDBRANCH   7  11
ENDBRANCH   1   7
BRANCH   4  18
ATOM     18  C   UNL     1      43.983   3.652  10.540  0.00  0.00    +0.000 C 
BRANCH  18  19
ATOM     19  N   UNL     1      43.676   5.077  10.563  0.00  0.00    +0.000 NA
ATOM     20  H   UNL     1      42.730   5.221  10.212  0.00  0.00    +0.000 HD
BRANCH  19  21
ATOM     21  C   UNL     1      43.777   5.607  11.919  0.00  0.00    +0.000 C 
BRANCH  21  22
ATOM     22  C   UNL     1      45.217   5.682  12.355  0.00  0.00    +0.000 A 
ATOM     23  C   UNL     1      46.126   6.517  11.703  0.00  0.00    +0.000 A 
ATOM     24  C   UNL     1      47.438   6.548  12.150  0.00  0.00    +0.000 A 
ATOM     25  N   UNL     1      47.899   5.816  13.186  0.00  0.00    +0.000 NA
ATOM     26  C   UNL     1      47.005   5.012  13.802  0.00  0.00    +0.000 A 
ATOM     27  C   UNL     1      45.674   4.914  13.431  0.00  0.00    +0.000 A 
ENDBRANCH  21  22
ENDBRANCH  19  21
ENDBRANCH  18  19
ENDBRANCH   4  18
TORSDOF 8
ENDMDL
MODEL 2
REMARK VINA RESULT:    -7.618      2.925      5.550
REMARK INTER + INTRA:         -12.085
REMARK INTER:                 -11.000
REMARK INTRA:                  -1.085
REMARK UNBOUND:                -1.127
REMARK  Name = 
REMARK  8 active torsions:
REMARK  status: ('A' for Active; 'I' for Inactive)
REMARK    1  A    between atoms: N_1  and  C_2
REMARK    2  A    between atoms: C_2  and  C_3
REMARK    3  A    between atoms: C_2  and  C_10
REMARK    4  A    between atoms: C_3  and  C_4
REMARK    5  A    between atoms: C_13  and  C_14
REMARK    6  A    between atoms: C_14  and  N_15
REMARK    7  A    between atoms: N_15  and  C_16
REMARK    8  A    between atoms: C_16  and  C_17
REMARK                            x       y       z     vdW  Elec       q    Type
REMARK                         _______ _______ _______ _____ _____    ______ ____
ROOT
ATOM      1  C   UNL     1      45.186   4.183  11.524  0.00  0.00    +0.000 A 
ATOM      2  C   UNL     1      45.511   5.442  10.987  0.00  0.00    +0.000 A 
ATOM      3  C   UNL     1      46.323   6.341  11.687  0.00  0.00    +0.000 A 
ATOM      4  C   UNL     1      46.815   6.019  12.956  0.00  0.00    +0.000 A 
ATOM      5  C   UNL     1      46.457   4.795  13.522  0.00  0.00    +0.000 A 
ATOM      6  C   UNL     1      45.648   3.898  12.820  0.00  0.00    +0.000 A 
ENDROOT
BRANCH   1   7
ATOM      7  C   UNL     1      44.313   3.196  10.741  0.00  0.00    +0.000 C 
BRANCH   7   8
ATOM      8  N   UNL     1      42.926   3.200  11.246  0.00  0.00    +0.000 NA
ATOM      9  H   UNL     1      42.429   3.991  10.836  0.00  0.00    +0.000 HD
ATOM     10  H   UNL     1      42.947   3.377  12.250  0.00  0.00    +0.000 HD
ENDBRANCH   7   8
BRANCH   7  11
ATOM     11  C   UNL     1      44.322   3.473   9.211  0.00  0.00    +0.000 C 
BRANCH  11  12
ATOM     12  C   UNL     1      45.473   2.889   8.425  0.00  0.00    +0.000 A 
ATOM     13  C   UNL     1      45.757   1.519   8.509  0.00  0.00    +0.000 A 
ATOM     14  C   UNL     1      46.762   0.959   7.723  0.00  0.00    +0.000 A 
ATOM     15  C   UNL     1      47.491   1.760   6.846  0.00  0.00    +0.000 A 
ATOM     16  C   UNL     1      47.218   3.124   6.758  0.00  0.00    +0.000 A 
ATOM     17  C   UNL     1      46.212   3.687   7.543  0.00  0.00    +0.000 A 
ENDBRANCH  11  12
ENDBRANCH   7  11
ENDBRANCH   1   7
BRANCH   4  18
ATOM     18  C   UNL     1      47.728   6.960  13.701  0.00  0.00    +0.000 C 
BRANCH  18  19
ATOM     19  N   UNL     1      48.784   6.234  14.397  0.00  0.00    +0.000 NA
ATOM     20  H   UNL     1      49.681   6.453  13.965  0.00  0.00    +0.000 HD
BRANCH  19  21
ATOM     21  C   UNL     1      48.822   6.601  15.809  0.00  0.00    +0.000 C 
BRANCH  21  22
ATOM     22  C   UNL     1      48.757   5.373  16.678  0.00  0.00    +0.000 A 
ATOM     23  C   UNL     1      47.586   4.619  16.775  0.00  0.00    +0.000 A 
ATOM     24  C   UNL     1      47.586   3.495  17.588  0.00  0.00    +0.000 A 
ATOM     25  N   UNL     1      48.655   3.078  18.298  0.00  0.00    +0.000 NA
ATOM     26  C   UNL     1      49.777   3.822  18.193  0.00  0.00    +0.000 A 
ATOM     27  C   UNL     1      49.877   4.958  17.406  0.00  0.00    +0.000 A 
ENDBRANCH  21  22
ENDBRANCH  19  21
ENDBRANCH  18  19
ENDBRANCH   4  18
TORSDOF 8
ENDMDL
MODEL 3
REMARK VINA RESULT:    -7.465      2.989      5.892
REMARK INTER + INTRA:         -11.865
REMARK INTER:                 -10.779
REMARK INTRA:                  -1.086
REMARK UNBOUND:                -1.127
REMARK  Name = 
REMARK  8 active torsions:
REMARK  status: ('A' for Active; 'I' for Inactive)
REMARK    1  A    between atoms: N_1  and  C_2
REMARK    2  A    between atoms: C_2  and  C_3
REMARK    3  A    between atoms: C_2  and  C_10
REMARK    4  A    between atoms: C_3  and  C_4
REMARK    5  A    between atoms: C_13  and  C_14
REMARK    6  A    between atoms: C_14  and  N_15
REMARK    7  A    between atoms: N_15  and  C_16
REMARK    8  A    between atoms: C_16  and  C_17
REMARK                            x       y       z     vdW  Elec       q    Type
REMARK                         _______ _______ _______ _____ _____    ______ ____
ROOT
ATOM      1  C   UNL     1      45.201   4.473  11.582  0.00  0.00    +0.000 A 
ATOM      2  C   UNL     1      45.696   4.045  12.827  0.00  0.00    +0.000 A 
ATOM      3  C   UNL     1      46.575   4.840  13.570  0.00  0.00    +0.000 A 
ATOM      4  C   UNL     1      47.006   6.077  13.081  0.00  0.00    +0.000 A 
ATOM      5  C   UNL     1      46.564   6.490  11.824  0.00  0.00    +0.000 A 
ATOM      6  C   UNL     1      45.684   5.696  11.085  0.00  0.00    +0.000 A 
ENDROOT
BRANCH   1   7
ATOM      7  C   UNL     1      44.222   3.605  10.784  0.00  0.00    +0.000 C 
BRANCH   7   8
ATOM      8  N   UNL     1      42.844   3.760  11.290  0.00  0.00    +0.000 NA
ATOM      9  H   UNL     1      42.881   3.961  12.289  0.00  0.00    +0.000 HD
ATOM     10  H   UNL     1      42.365   2.864  11.205  0.00  0.00    +0.000 HD
ENDBRANCH   7   8
BRANCH   7  11
ATOM     11  C   UNL     1      44.266   3.903   9.259  0.00  0.00    +0.000 C 
BRANCH  11  12
ATOM     12  C   UNL     1      45.294   3.146   8.452  0.00  0.00    +0.000 A 
ATOM     13  C   UNL     1      46.116   3.828   7.545  0.00  0.00    +0.000 A 
ATOM     14  C   UNL     1      47.124   3.150   6.859  0.00  0.00    +0.000 A 
ATOM     15  C   UNL     1      47.319   1.787   7.075  0.00  0.00    +0.000 A 
ATOM     16  C   UNL     1      46.504   1.100   7.972  0.00  0.00    +0.000 A 
ATOM     17  C   UNL     1      45.496   1.775   8.659  0.00  0.00    +0.000 A 
ENDBRANCH  11  12
ENDBRANCH   7  11
ENDBRANCH   1   7
BRANCH   4  18
ATOM     18  C   UNL     1      47.917   6.964  13.893  0.00  0.00    +0.000 C 
BRANCH  18  19
ATOM     19  N   UNL     1      48.852   6.176  14.688  0.00  0.00    +0.000 NA
ATOM     20  H   UNL     1      49.781   6.241  14.273  0.00  0.00    +0.000 HD
BRANCH  19  21
ATOM     21  C   UNL     1      48.898   6.660  16.064  0.00  0.00    +0.000 C 
BRANCH  21  22
ATOM     22  C   UNL     1      48.742   5.518  17.033  0.00  0.00    +0.000 A 
ATOM     23  C   UNL     1      48.107   4.332  16.656  0.00  0.00    +0.000 A 
ATOM     24  C   UNL     1      47.997   3.313  17.590  0.00  0.00    +0.000 A 
ATOM     25  N   UNL     1      48.468   3.392  18.852  0.00  0.00    +0.000 NA
ATOM     26  C   UNL     1      49.075   4.547  19.199  0.00  0.00    +0.000 A 
ATOM     27  C   UNL     1      49.238   5.620  18.337  0.00  0.00    +0.000 A 
ENDBRANCH  21  22
ENDBRANCH  19  21
ENDBRANCH  18  19
ENDBRANCH   4  18
TORSDOF 8
ENDMDL
MODEL 4
REMARK VINA RESULT:    -7.302      3.003      5.740
REMARK INTER + INTRA:         -11.630
REMARK INTER:                 -10.502
REMARK INTRA:                  -1.128
REMARK UNBOUND:                -1.127
REMARK  Name = 
REMARK  8 active torsions:
REMARK  status: ('A' for Active; 'I' for Inactive)
REMARK    1  A    between atoms: N_1  and  C_2
REMARK    2  A    between atoms: C_2  and  C_3
REMARK    3  A    between atoms: C_2  and  C_10
REMARK    4  A    between atoms: C_3  and  C_4
REMARK    5  A    between atoms: C_13  and  C_14
REMARK    6  A    between atoms: C_14  and  N_15
REMARK    7  A    between atoms: N_15  and  C_16
REMARK    8  A    between atoms: C_16  and  C_17
REMARK                            x       y       z     vdW  Elec       q    Type
REMARK                         _______ _______ _______ _____ _____    ______ ____
ROOT
ATOM      1  C   UNL     1      45.130   4.443  11.562  0.00  0.00    +0.000 A 
ATOM      2  C   UNL     1      45.605   4.216  12.866  0.00  0.00    +0.000 A 
ATOM      3  C   UNL     1      46.364   5.179  13.539  0.00  0.00    +0.000 A 
ATOM      4  C   UNL     1      46.693   6.390  12.920  0.00  0.00    +0.000 A 
ATOM      5  C   UNL     1      46.273   6.606  11.608  0.00  0.00    +0.000 A 
ATOM      6  C   UNL     1      45.512   5.643  10.938  0.00  0.00    +0.000 A 
ENDROOT
BRANCH   1   7
ATOM      7  C   UNL     1      44.281   3.391  10.839  0.00  0.00    +0.000 C 
BRANCH   7   8
ATOM      8  N   UNL     1      42.903   3.370  11.368  0.00  0.00    +0.000 NA
ATOM      9  H   UNL     1      42.652   2.407  11.594  0.00  0.00    +0.000 HD
ATOM     10  H   UNL     1      42.266   3.654  10.624  0.00  0.00    +0.000 HD
ENDBRANCH   7   8
BRANCH   7  11
ATOM     11  C   UNL     1      44.257   3.597   9.299  0.00  0.00    +0.000 C 
BRANCH  11  12
ATOM     12  C   UNL     1      45.390   2.976   8.516  0.00  0.00    +0.000 A 
ATOM     13  C   UNL     1      45.647   1.602   8.623  0.00  0.00    +0.000 A 
ATOM     14  C   UNL     1      46.635   1.007   7.840  0.00  0.00    +0.000 A 
ATOM     15  C   UNL     1      47.373   1.777   6.944  0.00  0.00    +0.000 A 
ATOM     16  C   UNL     1      47.128   3.144   6.833  0.00  0.00    +0.000 A 
ATOM     17  C   UNL     1      46.140   3.742   7.615  0.00  0.00    +0.000 A 
ENDBRANCH  11  12
ENDBRANCH   7  11
ENDBRANCH   1   7
BRANCH   4  18
ATOM     18  C   UNL     1      47.472   7.454  13.651  0.00  0.00    +0.000 C 
BRANCH  18  19
ATOM     19  N   UNL     1      46.735   8.711  13.699  0.00  0.00    +0.000 NA
ATOM     20  H   UNL     1      46.782   9.091  14.644  0.00  0.00    +0.000 HD
BRANCH  19  21
ATOM     21  C   UNL     1      47.294   9.676  12.758  0.00  0.00    +0.000 C 
BRANCH  21  22
ATOM     22  C   UNL     1      46.198  10.353  11.978  0.00  0.00    +0.000 A 
ATOM     23  C   UNL     1      44.868   9.946  12.100  0.00  0.00    +0.000 A 
ATOM     24  C   UNL     1      43.900  10.609  11.360  0.00  0.00    +0.000 A 
ATOM     25  N   UNL     1      44.163  11.634  10.521  0.00  0.00    +0.000 NA
ATOM     26  C   UNL     1      45.455  12.010  10.415  0.00  0.00    +0.000 A 
ATOM     27  C   UNL     1      46.492  11.414  11.114  0.00  0.00    +0.000 A 
ENDBRANCH  21  22
ENDBRANCH  19  21
ENDBRANCH  18  19
ENDBRANCH   4  18
TORSDOF 8
ENDMDL
MODEL 5
REMARK VINA RESULT:    -7.122      2.479      8.539
REMARK INTER + INTRA:         -11.372
REMARK INTER:                 -10.125
REMARK INTRA:                  -1.247
REMARK UNBOUND:                -1.127
REMARK  Name = 
REMARK  8 active torsions:
REMARK  status: ('A' for Active; 'I' for Inactive)
REMARK    1  A    between atoms: N_1  and  C_2
REMARK    2  A    between atoms: C_2  and  C_3
REMARK    3  A    between atoms: C_2  and  C_10
REMARK    4  A    between atoms: C_3  and  C_4
REMARK    5  A    between atoms: C_13  and  C_14
REMARK    6  A    between atoms: C_14  and  N_15
REMARK    7  A    between atoms: N_15  and  C_16
REMARK    8  A    between atoms: C_16  and  C_17
REMARK                            x       y       z     vdW  Elec       q    Type
REMARK                         _______ _______ _______ _____ _____    ______ ____
ROOT
ATOM      1  C   UNL     1      46.612   6.043  12.740  0.00  0.00    +0.000 A 
ATOM      2  C   UNL     1      45.949   5.041  13.469  0.00  0.00    +0.000 A 
ATOM      3  C   UNL     1      44.960   4.247  12.877  0.00  0.00    +0.000 A 
ATOM      4  C   UNL     1      44.586   4.449  11.544  0.00  0.00    +0.000 A 
ATOM      5  C   UNL     1      45.199   5.475  10.826  0.00  0.00    +0.000 A 
ATOM      6  C   UNL     1      46.188   6.264  11.418  0.00  0.00    +0.000 A 
ENDROOT
BRANCH   1   7
ATOM      7  C   UNL     1      47.709   6.894  13.390  0.00  0.00    +0.000 C 
BRANCH   7   8
ATOM      8  N   UNL     1      47.960   6.461  14.779  0.00  0.00    +0.000 NA
ATOM      9  H   UNL     1      48.224   5.476  14.775  0.00  0.00    +0.000 HD
ATOM     10  H   UNL     1      47.083   6.511  15.297  0.00  0.00    +0.000 HD
ENDBRANCH   7   8
BRANCH   7  11
ATOM     11  C   UNL     1      49.036   6.878  12.581  0.00  0.00    +0.000 C 
BRANCH  11  12
ATOM     12  C   UNL     1      49.439   8.175  11.919  0.00  0.00    +0.000 A 
ATOM     13  C   UNL     1      48.513   9.221  11.799  0.00  0.00    +0.000 A 
ATOM     14  C   UNL     1      48.901  10.449  11.267  0.00  0.00    +0.000 A 
ATOM     15  C   UNL     1      50.217  10.644  10.851  0.00  0.00    +0.000 A 
ATOM     16  C   UNL     1      51.143   9.611  10.962  0.00  0.00    +0.000 A 
ATOM     17  C   UNL     1      50.758   8.380  11.495  0.00  0.00    +0.000 A 
ENDBRANCH  11  12
ENDBRANCH   7  11
ENDBRANCH   1   7
BRANCH   4  18
ATOM     18  C   UNL     1      43.554   3.571  10.882  0.00  0.00    +0.000 C 
BRANCH  18  19
ATOM     19  N   UNL     1      43.891   3.319   9.486  0.00  0.00    +0.000 NA
ATOM     20  H   UNL     1      44.447   4.096   9.131  0.00  0.00    +0.000 HD
BRANCH  19  21
ATOM     21  C   UNL     1      44.646   2.077   9.351  0.00  0.00    +0.000 C 
BRANCH  21  22
ATOM     22  C   UNL     1      45.752   2.236   8.342  0.00  0.00    +0.000 A 
ATOM     23  C   UNL     1      46.538   1.148   7.955  0.00  0.00    +0.000 A 
ATOM     24  C   UNL     1      47.539   1.353   7.018  0.00  0.00    +0.000 A 
ATOM     25  N   UNL     1      47.807   2.547   6.449  0.00  0.00    +0.000 NA
ATOM     26  C   UNL     1      47.039   3.587   6.838  0.00  0.00    +0.000 A 
ATOM     27  C   UNL     1      46.013   3.483   7.763  0.00  0.00    +0.000 A 
ENDBRANCH  21  22
ENDBRANCH  19  21
ENDBRANCH  18  19
ENDBRANCH   4  18
TORSDOF 8
ENDMDL
MODEL 6
REMARK VINA RESULT:    -7.094      2.669      9.196
REMARK INTER + INTRA:         -11.331
REMARK INTER:                 -10.256
REMARK INTRA:                  -1.074
REMARK UNBOUND:                -1.127
REMARK  Name = 
REMARK  8 active torsions:
REMARK  status: ('A' for Active; 'I' for Inactive)
REMARK    1  A    between atoms: N_1  and  C_2
REMARK    2  A    between atoms: C_2  and  C_3
REMARK    3  A    between atoms: C_2  and  C_10
REMARK    4  A    between atoms: C_3  and  C_4
REMARK    5  A    between atoms: C_13  and  C_14
REMARK    6  A    between atoms: C_14  and  N_15
REMARK    7  A    between atoms: N_15  and  C_16
REMARK    8  A    between atoms: C_16  and  C_17
REMARK                            x       y       z     vdW  Elec       q    Type
REMARK                         _______ _______ _______ _____ _____    ______ ____
ROOT
ATOM      1  C   UNL     1      47.023   5.707  13.073  0.00  0.00    +0.000 A 
ATOM      2  C   UNL     1      45.909   5.014  13.582  0.00  0.00    +0.000 A 
ATOM      3  C   UNL     1      44.731   4.891  12.837  0.00  0.00    +0.000 A 
ATOM      4  C   UNL     1      44.621   5.477  11.572  0.00  0.00    +0.000 A 
ATOM      5  C   UNL     1      45.699   6.212  11.079  0.00  0.00    +0.000 A 
ATOM      6  C   UNL     1      46.876   6.331  11.823  0.00  0.00    +0.000 A 
ENDROOT
BRANCH   1   7
ATOM      7  C   UNL     1      48.317   5.820  13.887  0.00  0.00    +0.000 C 
BRANCH   7   8
ATOM      8  N   UNL     1      49.267   6.749  13.245  0.00  0.00    +0.000 NA
ATOM      9  H   UNL     1      48.819   7.164  12.428  0.00  0.00    +0.000 HD
ATOM     10  H   UNL     1      50.055   6.211  12.885  0.00  0.00    +0.000 HD
ENDBRANCH   7   8
BRANCH   7  11
ATOM     11  C   UNL     1      48.062   6.252  15.358  0.00  0.00    +0.000 C 
BRANCH  11  12
ATOM     12  C   UNL     1      48.267   5.196  16.419  0.00  0.00    +0.000 A 
ATOM     13  C   UNL     1      47.280   4.226  16.644  0.00  0.00    +0.000 A 
ATOM     14  C   UNL     1      47.498   3.198  17.560  0.00  0.00    +0.000 A 
ATOM     15  C   UNL     1      48.702   3.130  18.258  0.00  0.00    +0.000 A 
ATOM     16  C   UNL     1      49.687   4.091  18.044  0.00  0.00    +0.000 A 
ATOM     17  C   UNL     1      49.473   5.120  17.128  0.00  0.00    +0.000 A 
ENDBRANCH  11  12
ENDBRANCH   7  11
ENDBRANCH   1   7
BRANCH   4  18
ATOM     18  C   UNL     1      43.373   5.313  10.741  0.00  0.00    +0.000 C 
BRANCH  18  19
ATOM     19  N   UNL     1      43.662   4.648   9.476  0.00  0.00    +0.000 NA
ATOM     20  H   UNL     1      44.350   5.197   8.960  0.00  0.00    +0.000 HD
BRANCH  19  21
ATOM     21  C   UNL     1      44.184   3.305   9.704  0.00  0.00    +0.000 C 
BRANCH  21  22
ATOM     22  C   UNL     1      45.292   2.993   8.733  0.00  0.00    +0.000 A 
ATOM     23  C   UNL     1      45.898   4.002   7.982  0.00  0.00    +0.000 A 
ATOM     24  C   UNL     1      46.917   3.657   7.107  0.00  0.00    +0.000 A 
ATOM     25  N   UNL     1      47.365   2.396   6.931  0.00  0.00    +0.000 NA
ATOM     26  C   UNL     1      46.764   1.434   7.663  0.00  0.00    +0.000 A 
ATOM     27  C   UNL     1      45.742   1.679   8.566  0.00  0.00    +0.000 A 
ENDBRANCH  21  22
ENDBRANCH  19  21
ENDBRANCH  18  19
ENDBRANCH   4  18
TORSDOF 8
ENDMDL
MODEL 7
REMARK VINA RESULT:    -6.690      5.014     10.053
REMARK INTER + INTRA:         -10.750
REMARK INTER:                  -9.489
REMARK INTRA:                  -1.261
REMARK UNBOUND:                -1.127
REMARK  Name = 
REMARK  8 active torsions:
REMARK  status: ('A' for Active; 'I' for Inactive)
REMARK    1  A    between atoms: N_1  and  C_2
REMARK    2  A    between atoms: C_2  and  C_3
REMARK    3  A    between atoms: C_2  and  C_10
REMARK    4  A    between atoms: C_3  and  C_4
REMARK    5  A    between atoms: C_13  and  C_14
REMARK    6  A    between atoms: C_14  and  N_15
REMARK    7  A    between atoms: N_15  and  C_16
REMARK    8  A    between atoms: C_16  and  C_17
REMARK                            x       y       z     vdW  Elec       q    Type
REMARK                         _______ _______ _______ _____ _____    ______ ____
ROOT
ATOM      1  C   UNL     1      47.761   4.476  16.007  0.00  0.00    +0.000 A 
ATOM      2  C   UNL     1      48.432   5.711  15.954  0.00  0.00    +0.000 A 
ATOM      3  C   UNL     1      48.253   6.586  14.877  0.00  0.00    +0.000 A 
ATOM      4  C   UNL     1      47.418   6.244  13.809  0.00  0.00    +0.000 A 
ATOM      5  C   UNL     1      46.789   4.999  13.824  0.00  0.00    +0.000 A 
ATOM      6  C   UNL     1      46.966   4.128  14.902  0.00  0.00    +0.000 A 
ENDROOT
BRANCH   1   7
ATOM      7  C   UNL     1      47.946   3.531  17.200  0.00  0.00    +0.000 C 
BRANCH   7   8
ATOM      8  N   UNL     1      46.648   3.003  17.663  0.00  0.00    +0.000 NA
ATOM      9  H   UNL     1      46.004   2.972  16.872  0.00  0.00    +0.000 HD
ATOM     10  H   UNL     1      46.244   3.667  18.323  0.00  0.00    +0.000 HD
ENDBRANCH   7   8
BRANCH   7  11
ATOM     11  C   UNL     1      48.917   2.358  16.889  0.00  0.00    +0.000 C 
BRANCH  11  12
ATOM     12  C   UNL     1      50.344   2.519  17.359  0.00  0.00    +0.000 A 
ATOM     13  C   UNL     1      50.762   3.726  17.936  0.00  0.00    +0.000 A 
ATOM     14  C   UNL     1      52.052   3.852  18.449  0.00  0.00    +0.000 A 
ATOM     15  C   UNL     1      52.934   2.775  18.392  0.00  0.00    +0.000 A 
ATOM     16  C   UNL     1      52.529   1.572  17.818  0.00  0.00    +0.000 A 
ATOM     17  C   UNL     1      51.239   1.442  17.304  0.00  0.00    +0.000 A 
ENDBRANCH  11  12
ENDBRANCH   7  11
ENDBRANCH   1   7
BRANCH   4  18
ATOM     18  C   UNL     1      47.183   7.198  12.665  0.00  0.00    +0.000 C 
BRANCH  18  19
ATOM     19  N   UNL     1      45.768   7.525  12.531  0.00  0.00    +0.000 NA
ATOM     20  H   UNL     1      45.634   8.515  12.732  0.00  0.00    +0.000 HD
BRANCH  19  21
ATOM     21  C   UNL     1      45.295   7.234  11.181  0.00  0.00    +0.000 C 
BRANCH  21  22
ATOM     22  C   UNL     1      44.619   5.889  11.134  0.00  0.00    +0.000 A 
ATOM     23  C   UNL     1      45.068   4.885  10.274  0.00  0.00    +0.000 A 
ATOM     24  C   UNL     1      44.409   3.665  10.276  0.00  0.00    +0.000 A 
ATOM     25  N   UNL     1      43.352   3.381  11.065  0.00  0.00    +0.000 NA
ATOM     26  C   UNL     1      42.930   4.365  11.888  0.00  0.00    +0.000 A 
ATOM     27  C   UNL     1      43.524   5.615  11.961  0.00  0.00    +0.000 A 
ENDBRANCH  21  22
ENDBRANCH  19  21
ENDBRANCH  18  19
ENDBRANCH   4  18
TORSDOF 8
ENDMDL
MODEL 8
REMARK VINA RESULT:    -6.408      3.131      9.183
REMARK INTER + INTRA:         -10.345
REMARK INTER:                  -9.470
REMARK INTRA:                  -0.875
REMARK UNBOUND:                -1.127
REMARK  Name = 
REMARK  8 active torsions:
REMARK  status: ('A' for Active; 'I' for Inactive)
REMARK    1  A    between atoms: N_1  and  C_2
REMARK    2  A    between atoms: C_2  and  C_3
REMARK    3  A    between atoms: C_2  and  C_10
REMARK    4  A    between atoms: C_3  and  C_4
REMARK    5  A    between atoms: C_13  and  C_14
REMARK    6  A    between atoms: C_14  and  N_15
REMARK    7  A    between atoms: N_15  and  C_16
REMARK    8  A    between atoms: C_16  and  C_17
REMARK                            x       y       z     vdW  Elec       q    Type
REMARK                         _______ _______ _______ _____ _____    ______ ____
ROOT
ATOM      1  C   UNL     1      46.717   8.200  12.753  0.00  0.00    +0.000 A 
ATOM      2  C   UNL     1      45.381   8.393  12.359  0.00  0.00    +0.000 A 
ATOM      3  C   UNL     1      44.705   7.435  11.595  0.00  0.00    +0.000 A 
ATOM      4  C   UNL     1      45.351   6.266  11.181  0.00  0.00    +0.000 A 
ATOM      5  C   UNL     1      46.692   6.087  11.520  0.00  0.00    +0.000 A 
ATOM      6  C   UNL     1      47.364   7.043  12.285  0.00  0.00    +0.000 A 
ENDROOT
BRANCH   1   7
ATOM      7  C   UNL     1      47.444   9.245  13.607  0.00  0.00    +0.000 C 
BRANCH   7   8
ATOM      8  N   UNL     1      47.519   8.815  15.018  0.00  0.00    +0.000 NA
ATOM      9  H   UNL     1      46.574   8.763  15.397  0.00  0.00    +0.000 HD
ATOM     10  H   UNL     1      47.994   9.542  15.553  0.00  0.00    +0.000 HD
ENDBRANCH   7   8
BRANCH   7  11
ATOM     11  C   UNL     1      48.867   9.568  13.073  0.00  0.00    +0.000 C 
BRANCH  11  12
ATOM     12  C   UNL     1      48.947  10.491  11.880  0.00  0.00    +0.000 A 
ATOM     13  C   UNL     1      50.160  10.653  11.196  0.00  0.00    +0.000 A 
ATOM     14  C   UNL     1      50.222  11.437  10.045  0.00  0.00    +0.000 A 
ATOM     15  C   UNL     1      49.073  12.063   9.566  0.00  0.00    +0.000 A 
ATOM     16  C   UNL     1      47.863  11.912  10.240  0.00  0.00    +0.000 A 
ATOM     17  C   UNL     1      47.799  11.128  11.392  0.00  0.00    +0.000 A 
ENDBRANCH  11  12
ENDBRANCH   7  11
ENDBRANCH   1   7
BRANCH   4  18
ATOM     18  C   UNL     1      44.620   5.206  10.396  0.00  0.00    +0.000 C 
BRANCH  18  19
ATOM     19  N   UNL     1      45.198   5.036   9.068  0.00  0.00    +0.000 NA
ATOM     20  H   UNL     1      46.211   4.957   9.153  0.00  0.00    +0.000 HD
BRANCH  19  21
ATOM     21  C   UNL     1      44.669   3.840   8.422  0.00  0.00    +0.000 C 
BRANCH  21  22
ATOM     22  C   UNL     1      45.789   2.977   7.903  0.00  0.00    +0.000 A 
ATOM     23  C   UNL     1      46.803   3.513   7.107  0.00  0.00    +0.000 A 
ATOM     24  C   UNL     1      47.812   2.671   6.661  0.00  0.00    +0.000 A 
ATOM     25  N   UNL     1      47.878   1.355   6.951  0.00  0.00    +0.000 NA
ATOM     26  C   UNL     1      46.887   0.855   7.720  0.00  0.00    +0.000 A 
ATOM     27  C   UNL     1      45.839   1.614   8.216  0.00  0.00    +0.000 A 
ENDBRANCH  21  22
ENDBRANCH  19  21
ENDBRANCH  18  19
ENDBRANCH   4  18
TORSDOF 8
ENDMDL
MODEL 9
REMARK VINA RESULT:    -6.290      3.528      6.937
REMARK INTER + INTRA:         -10.176
REMARK INTER:                  -8.806
REMARK INTRA:                  -1.369
REMARK UNBOUND:                -1.127
REMARK  Name = 
REMARK  8 active torsions:
REMARK  status: ('A' for Active; 'I' for Inactive)
REMARK    1  A    between atoms: N_1  and  C_2
REMARK    2  A    between atoms: C_2  and  C_3
REMARK    3  A    between atoms: C_2  and  C_10
REMARK    4  A    between atoms: C_3  and  C_4
REMARK    5  A    between atoms: C_13  and  C_14
REMARK    6  A    between atoms: C_14  and  N_15
REMARK    7  A    between atoms: N_15  and  C_16
REMARK    8  A    between atoms: C_16  and  C_17
REMARK                            x       y       z     vdW  Elec       q    Type
REMARK                         _______ _______ _______ _____ _____    ______ ____
ROOT
ATOM      1  C   UNL     1      45.861   6.037  12.241  0.00  0.00    +0.000 A 
ATOM      2  C   UNL     1      47.112   6.403  11.714  0.00  0.00    +0.000 A 
ATOM      3  C   UNL     1      47.568   7.724  11.780  0.00  0.00    +0.000 A 
ATOM      4  C   UNL     1      46.776   8.725  12.353  0.00  0.00    +0.000 A 
ATOM      5  C   UNL     1      45.511   8.385  12.831  0.00  0.00    +0.000 A 
ATOM      6  C   UNL     1      45.059   7.065  12.766  0.00  0.00    +0.000 A 
ENDROOT
BRANCH   1   7
ATOM      7  C   UNL     1      45.378   4.583  12.182  0.00  0.00    +0.000 C 
BRANCH   7   8
ATOM      8  N   UNL     1      44.743   4.185  13.454  0.00  0.00    +0.000 NA
ATOM      9  H   UNL     1      44.904   3.190  13.605  0.00  0.00    +0.000 HD
ATOM     10  H   UNL     1      43.733   4.291  13.359  0.00  0.00    +0.000 HD
ENDBRANCH   7   8
BRANCH   7  11
ATOM     11  C   UNL     1      44.406   4.324  10.998  0.00  0.00    +0.000 C 
BRANCH  11  12
ATOM     12  C   UNL     1      45.013   3.751   9.738  0.00  0.00    +0.000 A 
ATOM     13  C   UNL     1      45.590   4.602   8.786  0.00  0.00    +0.000 A 
ATOM     14  C   UNL     1      46.226   4.075   7.663  0.00  0.00    +0.000 A 
ATOM     15  C   UNL     1      46.293   2.695   7.483  0.00  0.00    +0.000 A 
ATOM     16  C   UNL     1      45.719   1.841   8.421  0.00  0.00    +0.000 A 
ATOM     17  C   UNL     1      45.082   2.365   9.546  0.00  0.00    +0.000 A 
ENDBRANCH  11  12
ENDBRANCH   7  11
ENDBRANCH   1   7
BRANCH   4  18
ATOM     18  C   UNL     1      47.275  10.144  12.471  0.00  0.00    +0.000 C 
BRANCH  18  19
ATOM     19  N   UNL     1      46.204  11.103  12.227  0.00  0.00    +0.000 NA
ATOM     20  H   UNL     1      46.379  11.945  12.776  0.00  0.00    +0.000 HD
BRANCH  19  21
ATOM     21  C   UNL     1      46.133  11.452  10.812  0.00  0.00    +0.000 C 
BRANCH  21  22
ATOM     22  C   UNL     1      44.727  11.290  10.296  0.00  0.00    +0.000 A 
ATOM     23  C   UNL     1      43.691  10.881  11.139  0.00  0.00    +0.000 A 
ATOM     24  C   UNL     1      42.416  10.753  10.610  0.00  0.00    +0.000 A 
ATOM     25  N   UNL     1      42.106  11.003   9.320  0.00  0.00    +0.000 NA
ATOM     26  C   UNL     1      43.122  11.394   8.520  0.00  0.00    +0.000 A 
ATOM     27  C   UNL     1      44.428  11.554   8.955  0.00  0.00    +0.000 A 
ENDBRANCH  21  22
ENDBRANCH  19  21
ENDBRANCH  18  19
ENDBRANCH   4  18
TORSDOF 8
ENDMDL
