MODEL 1
REMARK VINA RESULT:    -8.435      0.000      0.000
REMARK INTER + INTRA:         -12.355
REMARK INTER:                 -11.394
REMARK INTRA:                  -0.961
REMARK UNBOUND:                -0.961
REMARK  Name = 
REMARK  7 active torsions:
REMARK  status: ('A' for Active; 'I' for Inactive)
REMARK    1  A    between atoms: C_1  and  C_2
REMARK    2  A    between atoms: C_2  and  C_3
REMARK    3  A    between atoms: C_2  and  C_13
REMARK    4  A    between atoms: C_3  and  C_4
REMARK    5  A    between atoms: C_7  and  C_8
REMARK    6  A    between atoms: C_18  and  O_19
REMARK    7  A    between atoms: O_19  and  C_20
REMARK                            x       y       z     vdW  Elec       q    Type
REMARK                         _______ _______ _______ _____ _____    ______ ____
ROOT
ATOM      1  C   UNL     1      42.647   5.806  11.414  0.00  0.00    +0.000 C 
ATOM      2  C   UNL     1      43.992   5.183  10.986  0.00  0.00    +0.000 C 
ENDROOT
BRANCH   2   3
ATOM      3  C   UNL     1      45.154   5.442  11.956  0.00  0.00    +0.000 A 
ATOM      4  C   UNL     1      46.259   6.224  11.578  0.00  0.00    +0.000 A 
ATOM      5  C   UNL     1      47.381   6.328  12.397  0.00  0.00    +0.000 A 
ATOM      6  F   UNL     1      48.431   7.050  11.986  0.00  0.00    +0.000 F 
ATOM      7  C   UNL     1      47.437   5.669  13.613  0.00  0.00    +0.000 A 
ATOM      8  C   UNL     1      46.359   4.899  14.032  0.00  0.00    +0.000 A 
ATOM      9  C   UNL     1      45.227   4.780  13.208  0.00  0.00    +0.000 A 
BRANCH   8  10
ATOM     10  O   UNL     1      46.560   4.277  15.230  0.00  0.00    +0.000 OA
BRANCH  10  11
ATOM     11  C   UNL     1      47.880   4.203  15.779  0.00  0.00    +0.000 C 
ATOM     12  C   UNL     1      48.143   2.831  16.360  0.00  0.00    +0.000 C 
ATOM     13  C   UNL     1      47.367   2.885  17.659  0.00  0.00    +0.000 C 
ATOM     14  O   UNL     1      47.482   4.231  18.142  0.00  0.00    +0.000 OA
ATOM     15  C   UNL     1      47.902   5.063  17.043  0.00  0.00    +0.000 C 
ENDBRANCH  10  11
ENDBRANCH   8  10
ENDBRANCH   2   3
BRANCH   2  16
ATOM     16  C   UNL     1      43.774   3.720  10.515  0.00  0.00    +0.000 C 
BRANCH  16  17
ATOM     17  C   UNL     1      44.674   3.259   9.397  0.00  0.00    +0.000 A 
ATOM     18  C   UNL     1      45.249   4.174   8.522  0.00  0.00    +0.000 A 
ATOM     19  C   UNL     1      46.167   3.720   7.578  0.00  0.00    +0.000 A 
ATOM     20  C   UNL     1      46.492   2.363   7.521  0.00  0.00    +0.000 A 
ATOM     21  C   UNL     1      45.814   1.512   8.379  0.00  0.00    +0.000 A 
ATOM     22  N   UNL     1      44.916   1.928   9.309  0.00  0.00    +0.000 NA
BRANCH  20  23
ATOM     23  C   UNL     1      47.585   1.927   6.620  0.00  0.00    +0.000 C 
ATOM     24  N   UNL     1      48.667   2.741   6.440  0.00  0.00    +0.000 N 
ATOM     25  O   UNL     1      47.515   0.863   6.014  0.00  0.00    +0.000 OA
ATOM     26  H   UNL     1      48.842   3.616   6.909  0.00  0.00    +0.000 HD
ATOM     27  H   UNL     1      49.356   2.428   5.767  0.00  0.00    +0.000 HD
ENDBRANCH  20  23
ENDBRANCH  16  17
ENDBRANCH   2  16
TORSDOF 6
ENDMDL
MODEL 2
REMARK VINA RESULT:    -7.906      2.303      3.544
REMARK INTER + INTRA:         -11.640
REMARK INTER:                 -10.579
REMARK INTRA:                  -1.060
REMARK UNBOUND:                -0.961
REMARK  Name = 
REMARK  7 active torsions:
REMARK  status: ('A' for Active; 'I' for Inactive)
REMARK    1  A    between atoms: C_1  and  C_2
REMARK    2  A    between atoms: C_2  and  C_3
REMARK    3  A    between atoms: C_2  and  C_13
REMARK    4  A    between atoms: C_3  and  C_4
REMARK    5  A    between atoms: C_7  and  C_8
REMARK    6  A    between atoms: C_18  and  O_19
REMARK    7  A    between atoms: O_19  and  C_20
REMARK                            x       y       z     vdW  Elec       q    Type
REMARK                         _______ _______ _______ _____ _____    ______ ____
ROOT
ATOM      1  C   UNL     1      42.742   4.858  11.559  0.00  0.00    +0.000 C 
ATOM      2  C   UNL     1      44.103   4.453  10.954  0.00  0.00    +0.000 C 
ENDROOT
BRANCH   2   3
ATOM      3  C   UNL     1      45.317   4.774  11.838  0.00  0.00    +0.000 A 
ATOM      4  C   UNL     1      45.825   3.832  12.749  0.00  0.00    +0.000 A 
ATOM      5  C   UNL     1      46.822   4.176  13.660  0.00  0.00    +0.000 A 
ATOM      6  F   UNL     1      47.253   3.263  14.539  0.00  0.00    +0.000 F 
ATOM      7  C   UNL     1      47.349   5.455  13.687  0.00  0.00    +0.000 A 
ATOM      8  C   UNL     1      46.886   6.412  12.792  0.00  0.00    +0.000 A 
ATOM      9  C   UNL     1      45.873   6.077  11.878  0.00  0.00    +0.000 A 
BRANCH   8  10
ATOM     10  O   UNL     1      47.463   7.638  12.952  0.00  0.00    +0.000 OA
BRANCH  10  11
ATOM     11  C   UNL     1      48.147   8.249  11.853  0.00  0.00    +0.000 C 
ATOM     12  C   UNL     1      49.540   7.676  11.704  0.00  0.00    +0.000 C 
ATOM     13  C   UNL     1      50.284   8.358  12.832  0.00  0.00    +0.000 C 
ATOM     14  O   UNL     1      49.736   9.680  12.937  0.00  0.00    +0.000 OA
ATOM     15  C   UNL     1      48.468   9.690  12.253  0.00  0.00    +0.000 C 
ENDBRANCH  10  11
ENDBRANCH   8  10
ENDBRANCH   2   3
BRANCH   2  16
ATOM     16  C   UNL     1      44.016   3.020  10.361  0.00  0.00    +0.000 C 
BRANCH  16  17
ATOM     17  C   UNL     1      44.909   2.756   9.175  0.00  0.00    +0.000 A 
ATOM     18  C   UNL     1      45.265   3.783   8.309  0.00  0.00    +0.000 A 
ATOM     19  C   UNL     1      46.185   3.523   7.296  0.00  0.00    +0.000 A 
ATOM     20  C   UNL     1      46.728   2.244   7.162  0.00  0.00    +0.000 A 
ATOM     21  C   UNL     1      46.258   1.262   8.020  0.00  0.00    +0.000 A 
ATOM     22  N   UNL     1      45.364   1.489   9.017  0.00  0.00    +0.000 NA
BRANCH  20  23
ATOM     23  C   UNL     1      47.820   2.029   6.183  0.00  0.00    +0.000 C 
ATOM     24  N   UNL     1      48.931   2.822   6.237  0.00  0.00    +0.000 N 
ATOM     25  O   UNL     1      47.724   1.172   5.311  0.00  0.00    +0.000 OA
ATOM     26  H   UNL     1      49.127   3.529   6.927  0.00  0.00    +0.000 HD
ATOM     27  H   UNL     1      49.619   2.678   5.508  0.00  0.00    +0.000 HD
ENDBRANCH  20  23
ENDBRANCH  16  17
ENDBRANCH   2  16
TORSDOF 6
ENDMDL
MODEL 3
REMARK VINA RESULT:    -7.155      2.939      3.704
REMARK INTER + INTRA:         -10.626
REMARK INTER:                  -9.572
REMARK INTRA:                  -1.054
REMARK UNBOUND:                -0.961
REMARK  Name = 
REMARK  7 active torsions:
REMARK  status: ('A' for Active; 'I' for Inactive)
REMARK    1  A    between atoms: C_1  and  C_2
REMARK    2  A    between atoms: C_2  and  C_3
REMARK    3  A    between atoms: C_2  and  C_13
REMARK    4  A    between atoms: C_3  and  C_4
REMARK    5  A    between atoms: C_7  and  C_8
REMARK    6  A    between atoms: C_18  and  O_19
REMARK    7  A    between atoms: O_19  and  C_20
REMARK                            x       y       z     vdW  Elec       q    Type
REMARK                         _______ _______ _______ _____ _____    ______ ____
ROOT
ATOM      1  C   UNL     1      45.562   3.220  12.444  0.00  0.00    +0.000 C 
ATOM      2  C   UNL     1      44.316   4.050  12.072  0.00  0.00    +0.000 C 
ENDROOT
BRANCH   2   3
ATOM      3  C   UNL     1      44.534   5.570  12.081  0.00  0.00    +0.000 A 
ATOM      4  C   UNL     1      43.619   6.441  11.464  0.00  0.00    +0.000 A 
ATOM      5  C   UNL     1      43.896   7.801  11.335  0.00  0.00    +0.000 A 
ATOM      6  F   UNL     1      43.019   8.594  10.706  0.00  0.00    +0.000 F 
ATOM      7  C   UNL     1      45.076   8.335  11.819  0.00  0.00    +0.000 A 
ATOM      8  C   UNL     1      46.000   7.511  12.451  0.00  0.00    +0.000 A 
ATOM      9  C   UNL     1      45.735   6.137  12.575  0.00  0.00    +0.000 A 
BRANCH   8  10
ATOM     10  O   UNL     1      47.134   8.159  12.846  0.00  0.00    +0.000 OA
BRANCH  10  11
ATOM     11  C   UNL     1      48.255   8.234  11.959  0.00  0.00    +0.000 C 
ATOM     12  C   UNL     1      49.291   7.189  12.315  0.00  0.00    +0.000 C 
ATOM     13  C   UNL     1      49.941   7.795  13.541  0.00  0.00    +0.000 C 
ATOM     14  O   UNL     1      49.960   9.214  13.328  0.00  0.00    +0.000 OA
ATOM     15  C   UNL     1      49.016   9.520  12.285  0.00  0.00    +0.000 C 
ENDBRANCH  10  11
ENDBRANCH   8  10
ENDBRANCH   2   3
BRANCH   2  16
ATOM     16  C   UNL     1      43.625   3.440  10.822  0.00  0.00    +0.000 C 
BRANCH  16  17
ATOM     17  C   UNL     1      44.528   3.194   9.639  0.00  0.00    +0.000 A 
ATOM     18  C   UNL     1      44.997   4.252   8.868  0.00  0.00    +0.000 A 
ATOM     19  C   UNL     1      45.922   3.993   7.860  0.00  0.00    +0.000 A 
ATOM     20  C   UNL     1      46.358   2.686   7.634  0.00  0.00    +0.000 A 
ATOM     21  C   UNL     1      45.780   1.685   8.398  0.00  0.00    +0.000 A 
ATOM     22  N   UNL     1      44.878   1.908   9.388  0.00  0.00    +0.000 NA
BRANCH  20  23
ATOM     23  C   UNL     1      47.457   2.456   6.667  0.00  0.00    +0.000 C 
ATOM     24  N   UNL     1      47.459   3.139   5.484  0.00  0.00    +0.000 N 
ATOM     25  O   UNL     1      48.342   1.641   6.903  0.00  0.00    +0.000 OA
ATOM     26  H   UNL     1      46.803   3.851   5.203  0.00  0.00    +0.000 HD
ATOM     27  H   UNL     1      48.196   2.900   4.830  0.00  0.00    +0.000 HD
ENDBRANCH  20  23
ENDBRANCH  16  17
ENDBRANCH   2  16
TORSDOF 6
ENDMDL
MODEL 4
REMARK VINA RESULT:    -6.576      3.045      4.507
REMARK INTER + INTRA:          -9.844
REMARK INTER:                  -8.913
REMARK INTRA:                  -0.931
REMARK UNBOUND:                -0.961
REMARK  Name = 
REMARK  7 active torsions:
REMARK  status: ('A' for Active; 'I' for Inactive)
REMARK    1  A    between atoms: C_1  and  C_2
REMARK    2  A    between atoms: C_2  and  C_3
REMARK    3  A    between atoms: C_2  and  C_13
REMARK    4  A    between atoms: C_3  and  C_4
REMARK    5  A    between atoms: C_7  and  C_8
REMARK    6  A    between atoms: C_18  and  O_19
REMARK    7  A    between atoms: O_19  and  C_20
REMARK                            x       y       z     vdW  Elec       q    Type
REMARK                         _______ _______ _______ _____ _____    ______ ____
ROOT
ATOM      1  C   UNL     1      48.269   9.375  11.888  0.00  0.00    +0.000 C 
ATOM      2  C   UNL     1      47.676   8.101  12.525  0.00  0.00    +0.000 C 
ENDROOT
BRANCH   2   3
ATOM      3  C   UNL     1      48.039   7.896  14.002  0.00  0.00    +0.000 A 
ATOM      4  C   UNL     1      48.193   8.988  14.874  0.00  0.00    +0.000 A 
ATOM      5  C   UNL     1      48.675   8.812  16.170  0.00  0.00    +0.000 A 
ATOM      6  F   UNL     1      48.847   9.881  16.958  0.00  0.00    +0.000 F 
ATOM      7  C   UNL     1      49.008   7.555  16.640  0.00  0.00    +0.000 A 
ATOM      8  C   UNL     1      48.855   6.446  15.816  0.00  0.00    +0.000 A 
ATOM      9  C   UNL     1      48.381   6.614  14.504  0.00  0.00    +0.000 A 
BRANCH   8  10
ATOM     10  O   UNL     1      49.255   5.274  16.391  0.00  0.00    +0.000 OA
BRANCH  10  11
ATOM     11  C   UNL     1      48.282   4.404  16.978  0.00  0.00    +0.000 C 
ATOM     12  C   UNL     1      48.939   3.435  17.937  0.00  0.00    +0.000 C 
ATOM     13  C   UNL     1      49.581   2.442  16.991  0.00  0.00    +0.000 C 
ATOM     14  O   UNL     1      48.691   2.317  15.873  0.00  0.00    +0.000 OA
ATOM     15  C   UNL     1      47.800   3.448  15.885  0.00  0.00    +0.000 C 
ENDBRANCH  10  11
ENDBRANCH   8  10
ENDBRANCH   2   3
BRANCH   2  16
ATOM     16  C   UNL     1      46.179   7.959  12.136  0.00  0.00    +0.000 C 
BRANCH  16  17
ATOM     17  C   UNL     1      45.712   6.552  11.864  0.00  0.00    +0.000 A 
ATOM     18  C   UNL     1      45.231   5.749  12.892  0.00  0.00    +0.000 A 
ATOM     19  C   UNL     1      44.700   4.500  12.580  0.00  0.00    +0.000 A 
ATOM     20  C   UNL     1      44.664   4.071  11.252  0.00  0.00    +0.000 A 
ATOM     21  C   UNL     1      45.236   4.902  10.302  0.00  0.00    +0.000 A 
ATOM     22  N   UNL     1      45.758   6.125  10.578  0.00  0.00    +0.000 NA
BRANCH  20  23
ATOM     23  C   UNL     1      43.953   2.812  10.925  0.00  0.00    +0.000 C 
ATOM     24  N   UNL     1      44.422   2.024   9.913  0.00  0.00    +0.000 N 
ATOM     25  O   UNL     1      42.937   2.488  11.531  0.00  0.00    +0.000 OA
ATOM     26  H   UNL     1      45.260   2.177   9.376  0.00  0.00    +0.000 HD
ATOM     27  H   UNL     1      43.865   1.208   9.687  0.00  0.00    +0.000 HD
ENDBRANCH  20  23
ENDBRANCH  16  17
ENDBRANCH   2  16
TORSDOF 6
ENDMDL
MODEL 5
REMARK VINA RESULT:    -6.277      3.042      4.512
REMARK INTER + INTRA:          -9.440
REMARK INTER:                  -8.411
REMARK INTRA:                  -1.029
REMARK UNBOUND:                -0.961
REMARK  Name = 
REMARK  7 active torsions:
REMARK  status: ('A' for Active; 'I' for Inactive)
REMARK    1  A    between atoms: C_1  and  C_2
REMARK    2  A    between atoms: C_2  and  C_3
REMARK    3  A    between atoms: C_2  and  C_13
REMARK    4  A    between atoms: C_3  and  C_4
REMARK    5  A    between atoms: C_7  and  C_8
REMARK    6  A    between atoms: C_18  and  O_19
REMARK    7  A    between atoms: O_19  and  C_20
REMARK                            x       y       z     vdW  Elec       q    Type
REMARK                         _______ _______ _______ _____ _____    ______ ____
ROOT
ATOM      1  C   UNL     1      47.948   9.309  11.892  0.00  0.00    +0.000 C 
ATOM      2  C   UNL     1      47.640   8.007  12.660  0.00  0.00    +0.000 C 
ENDROOT
BRANCH   2   3
ATOM      3  C   UNL     1      48.583   7.721  13.838  0.00  0.00    +0.000 A 
ATOM      4  C   UNL     1      49.775   8.445  14.011  0.00  0.00    +0.000 A 
ATOM      5  C   UNL     1      50.704   8.081  14.984  0.00  0.00    +0.000 A 
ATOM      6  F   UNL     1      51.847   8.770  15.093  0.00  0.00    +0.000 F 
ATOM      7  C   UNL     1      50.474   7.000  15.816  0.00  0.00    +0.000 A 
ATOM      8  C   UNL     1      49.300   6.267  15.690  0.00  0.00    +0.000 A 
ATOM      9  C   UNL     1      48.363   6.620  14.704  0.00  0.00    +0.000 A 
BRANCH   8  10
ATOM     10  O   UNL     1      49.218   5.208  16.546  0.00  0.00    +0.000 OA
BRANCH  10  11
ATOM     11  C   UNL     1      47.940   4.782  17.028  0.00  0.00    +0.000 C 
ATOM     12  C   UNL     1      47.749   5.189  18.474  0.00  0.00    +0.000 C 
ATOM     13  C   UNL     1      48.607   4.175  19.201  0.00  0.00    +0.000 C 
ATOM     14  O   UNL     1      48.491   2.947  18.468  0.00  0.00    +0.000 OA
ATOM     15  C   UNL     1      47.979   3.259  17.158  0.00  0.00    +0.000 C 
ENDBRANCH  10  11
ENDBRANCH   8  10
ENDBRANCH   2   3
BRANCH   2  16
ATOM     16  C   UNL     1      46.115   7.895  12.929  0.00  0.00    +0.000 C 
BRANCH  16  17
ATOM     17  C   UNL     1      45.448   6.663  12.371  0.00  0.00    +0.000 A 
ATOM     18  C   UNL     1      45.652   6.278  11.051  0.00  0.00    +0.000 A 
ATOM     19  C   UNL     1      45.114   5.071  10.610  0.00  0.00    +0.000 A 
ATOM     20  C   UNL     1      44.380   4.274  11.490  0.00  0.00    +0.000 A 
ATOM     21  C   UNL     1      44.161   4.772  12.764  0.00  0.00    +0.000 A 
ATOM     22  N   UNL     1      44.675   5.943  13.221  0.00  0.00    +0.000 NA
BRANCH  20  23
ATOM     23  C   UNL     1      43.954   2.925  11.047  0.00  0.00    +0.000 C 
ATOM     24  N   UNL     1      44.655   2.295  10.058  0.00  0.00    +0.000 N 
ATOM     25  O   UNL     1      42.968   2.384  11.536  0.00  0.00    +0.000 OA
ATOM     26  H   UNL     1      45.494   2.631   9.613  0.00  0.00    +0.000 HD
ATOM     27  H   UNL     1      44.287   1.403   9.747  0.00  0.00    +0.000 HD
ENDBRANCH  20  23
ENDBRANCH  16  17
ENDBRANCH   2  16
TORSDOF 6
ENDMDL
MODEL 6
REMARK VINA RESULT:    -6.165      3.334      8.173
REMARK INTER + INTRA:          -9.288
REMARK INTER:                  -8.535
REMARK INTRA:                  -0.753
REMARK UNBOUND:                -0.961
REMARK  Name = 
REMARK  7 active torsions:
REMARK  status: ('A' for Active; 'I' for Inactive)
REMARK    1  A    between atoms: C_1  and  C_2
REMARK    2  A    between atoms: C_2  and  C_3
REMARK    3  A    between atoms: C_2  and  C_13
REMARK    4  A    between atoms: C_3  and  C_4
REMARK    5  A    between atoms: C_7  and  C_8
REMARK    6  A    between atoms: C_18  and  O_19
REMARK    7  A    between atoms: O_19  and  C_20
REMARK                            x       y       z     vdW  Elec       q    Type
REMARK                         _______ _______ _______ _____ _____    ______ ____
ROOT
ATOM      1  C   UNL     1      47.156   8.879  12.718  0.00  0.00    +0.000 C 
ATOM      2  C   UNL     1      46.901   7.447  13.233  0.00  0.00    +0.000 C 
ENDROOT
BRANCH   2   3
ATOM      3  C   UNL     1      45.865   6.652  12.425  0.00  0.00    +0.000 A 
ATOM      4  C   UNL     1      44.607   6.333  12.966  0.00  0.00    +0.000 A 
ATOM      5  C   UNL     1      43.731   5.480  12.297  0.00  0.00    +0.000 A 
ATOM      6  F   UNL     1      42.558   5.167  12.861  0.00  0.00    +0.000 F 
ATOM      7  C   UNL     1      44.072   4.928  11.075  0.00  0.00    +0.000 A 
ATOM      8  C   UNL     1      45.299   5.231  10.497  0.00  0.00    +0.000 A 
ATOM      9  C   UNL     1      46.193   6.081  11.169  0.00  0.00    +0.000 A 
BRANCH   8  10
ATOM     10  O   UNL     1      45.522   4.592   9.312  0.00  0.00    +0.000 OA
BRANCH  10  11
ATOM     11  C   UNL     1      44.623   3.566   8.879  0.00  0.00    +0.000 C 
ATOM     12  C   UNL     1      45.129   2.201   9.290  0.00  0.00    +0.000 C 
ATOM     13  C   UNL     1      46.237   1.960   8.286  0.00  0.00    +0.000 C 
ATOM     14  O   UNL     1      45.801   2.553   7.054  0.00  0.00    +0.000 OA
ATOM     15  C   UNL     1      44.732   3.470   7.356  0.00  0.00    +0.000 C 
ENDBRANCH  10  11
ENDBRANCH   8  10
ENDBRANCH   2   3
BRANCH   2  16
ATOM     16  C   UNL     1      48.251   6.745  13.541  0.00  0.00    +0.000 C 
BRANCH  16  17
ATOM     17  C   UNL     1      48.366   6.141  14.917  0.00  0.00    +0.000 A 
ATOM     18  C   UNL     1      49.073   6.790  15.924  0.00  0.00    +0.000 A 
ATOM     19  C   UNL     1      49.055   6.257  17.211  0.00  0.00    +0.000 A 
ATOM     20  C   UNL     1      48.341   5.087  17.469  0.00  0.00    +0.000 A 
ATOM     21  C   UNL     1      47.731   4.465  16.392  0.00  0.00    +0.000 A 
ATOM     22  N   UNL     1      47.730   4.962  15.128  0.00  0.00    +0.000 NA
BRANCH  20  23
ATOM     23  C   UNL     1      48.205   4.627  18.872  0.00  0.00    +0.000 C 
ATOM     24  N   UNL     1      48.323   3.296  19.153  0.00  0.00    +0.000 N 
ATOM     25  O   UNL     1      47.958   5.421  19.774  0.00  0.00    +0.000 OA
ATOM     26  H   UNL     1      48.556   2.565  18.499  0.00  0.00    +0.000 HD
ATOM     27  H   UNL     1      48.159   3.025  20.116  0.00  0.00    +0.000 HD
ENDBRANCH  20  23
ENDBRANCH  16  17
ENDBRANCH   2  16
TORSDOF 6
ENDMDL
MODEL 7
REMARK VINA RESULT:    -5.937      4.157      5.498
REMARK INTER + INTRA:          -8.980
REMARK INTER:                  -8.099
REMARK INTRA:                  -0.881
REMARK UNBOUND:                -0.961
REMARK  Name = 
REMARK  7 active torsions:
REMARK  status: ('A' for Active; 'I' for Inactive)
REMARK    1  A    between atoms: C_1  and  C_2
REMARK    2  A    between atoms: C_2  and  C_3
REMARK    3  A    between atoms: C_2  and  C_13
REMARK    4  A    between atoms: C_3  and  C_4
REMARK    5  A    between atoms: C_7  and  C_8
REMARK    6  A    between atoms: C_18  and  O_19
REMARK    7  A    between atoms: O_19  and  C_20
REMARK                            x       y       z     vdW  Elec       q    Type
REMARK                         _______ _______ _______ _____ _____    ______ ____
ROOT
ATOM      1  C   UNL     1      48.607   9.729  12.534  0.00  0.00    +0.000 C 
ATOM      2  C   UNL     1      49.027   8.340  13.058  0.00  0.00    +0.000 C 
ENDROOT
BRANCH   2   3
ATOM      3  C   UNL     1      48.762   8.113  14.553  0.00  0.00    +0.000 A 
ATOM      4  C   UNL     1      48.297   9.153  15.378  0.00  0.00    +0.000 A 
ATOM      5  C   UNL     1      48.208   8.991  16.759  0.00  0.00    +0.000 A 
ATOM      6  F   UNL     1      47.799  10.017  17.516  0.00  0.00    +0.000 F 
ATOM      7  C   UNL     1      48.566   7.797  17.359  0.00  0.00    +0.000 A 
ATOM      8  C   UNL     1      49.014   6.738  16.579  0.00  0.00    +0.000 A 
ATOM      9  C   UNL     1      49.118   6.896  15.187  0.00  0.00    +0.000 A 
BRANCH   8  10
ATOM     10  O   UNL     1      49.368   5.635  17.300  0.00  0.00    +0.000 OA
BRANCH  10  11
ATOM     11  C   UNL     1      48.354   4.743  17.775  0.00  0.00    +0.000 C 
ATOM     12  C   UNL     1      48.974   3.548  18.469  0.00  0.00    +0.000 C 
ATOM     13  C   UNL     1      49.462   2.722  17.297  0.00  0.00    +0.000 C 
ATOM     14  O   UNL     1      48.499   2.901  16.248  0.00  0.00    +0.000 OA
ATOM     15  C   UNL     1      47.720   4.073  16.555  0.00  0.00    +0.000 C 
ENDBRANCH  10  11
ENDBRANCH   8  10
ENDBRANCH   2   3
BRANCH   2  16
ATOM     16  C   UNL     1      48.549   7.235  12.078  0.00  0.00    +0.000 C 
BRANCH  16  17
ATOM     17  C   UNL     1      47.234   6.586  12.427  0.00  0.00    +0.000 A 
ATOM     18  C   UNL     1      46.029   7.232  12.173  0.00  0.00    +0.000 A 
ATOM     19  C   UNL     1      44.836   6.550  12.401  0.00  0.00    +0.000 A 
ATOM     20  C   UNL     1      44.865   5.241  12.883  0.00  0.00    +0.000 A 
ATOM     21  C   UNL     1      46.106   4.702  13.182  0.00  0.00    +0.000 A 
ATOM     22  N   UNL     1      47.284   5.343  12.967  0.00  0.00    +0.000 NA
BRANCH  20  23
ATOM     23  C   UNL     1      43.595   4.481  12.967  0.00  0.00    +0.000 C 
ATOM     24  N   UNL     1      43.630   3.116  12.938  0.00  0.00    +0.000 N 
ATOM     25  O   UNL     1      42.517   5.063  13.031  0.00  0.00    +0.000 OA
ATOM     26  H   UNL     1      44.456   2.540  12.920  0.00  0.00    +0.000 HD
ATOM     27  H   UNL     1      42.732   2.646  12.934  0.00  0.00    +0.000 HD
ENDBRANCH  20  23
ENDBRANCH  16  17
ENDBRANCH   2  16
TORSDOF 6
ENDMDL
MODEL 8
REMARK VINA RESULT:    -5.802      4.222      7.887
REMARK INTER + INTRA:          -8.798
REMARK INTER:                  -7.814
REMARK INTRA:                  -0.984
REMARK UNBOUND:                -0.961
REMARK  Name = 
REMARK  7 active torsions:
REMARK  status: ('A' for Active; 'I' for Inactive)
REMARK    1  A    between atoms: C_1  and  C_2
REMARK    2  A    between atoms: C_2  and  C_3
REMARK    3  A    between atoms: C_2  and  C_13
REMARK    4  A    between atoms: C_3  and  C_4
REMARK    5  A    between atoms: C_7  and  C_8
REMARK    6  A    between atoms: C_18  and  O_19
REMARK    7  A    between atoms: O_19  and  C_20
REMARK                            x       y       z     vdW  Elec       q    Type
REMARK                         _______ _______ _______ _____ _____    ______ ____
ROOT
ATOM      1  C   UNL     1      50.133   7.380  11.877  0.00  0.00    +0.000 C 
ATOM      2  C   UNL     1      49.200   8.536  12.296  0.00  0.00    +0.000 C 
ENDROOT
BRANCH   2   3
ATOM      3  C   UNL     1      47.704   8.256  12.093  0.00  0.00    +0.000 A 
ATOM      4  C   UNL     1      46.738   9.249  12.328  0.00  0.00    +0.000 A 
ATOM      5  C   UNL     1      45.377   8.952  12.296  0.00  0.00    +0.000 A 
ATOM      6  F   UNL     1      44.486   9.915  12.565  0.00  0.00    +0.000 F 
ATOM      7  C   UNL     1      44.936   7.669  12.023  0.00  0.00    +0.000 A 
ATOM      8  C   UNL     1      45.858   6.661  11.769  0.00  0.00    +0.000 A 
ATOM      9  C   UNL     1      47.232   6.949  11.809  0.00  0.00    +0.000 A 
BRANCH   8  10
ATOM     10  O   UNL     1      45.291   5.439  11.551  0.00  0.00    +0.000 OA
BRANCH  10  11
ATOM     11  C   UNL     1      43.911   5.353  11.181  0.00  0.00    +0.000 C 
ATOM     12  C   UNL     1      43.125   4.582  12.220  0.00  0.00    +0.000 C 
ATOM     13  C   UNL     1      43.523   3.152  11.918  0.00  0.00    +0.000 C 
ATOM     14  O   UNL     1      43.679   3.069  10.495  0.00  0.00    +0.000 OA
ATOM     15  C   UNL     1      43.813   4.408   9.983  0.00  0.00    +0.000 C 
ENDBRANCH  10  11
ENDBRANCH   8  10
ENDBRANCH   2   3
BRANCH   2  16
ATOM     16  C   UNL     1      49.635   9.096  13.678  0.00  0.00    +0.000 C 
BRANCH  16  17
ATOM     17  C   UNL     1      49.746   8.076  14.783  0.00  0.00    +0.000 A 
ATOM     18  C   UNL     1      48.619   7.417  15.261  0.00  0.00    +0.000 A 
ATOM     19  C   UNL     1      48.780   6.398  16.198  0.00  0.00    +0.000 A 
ATOM     20  C   UNL     1      50.058   6.060  16.645  0.00  0.00    +0.000 A 
ATOM     21  C   UNL     1      51.116   6.821  16.174  0.00  0.00    +0.000 A 
ATOM     22  N   UNL     1      50.989   7.817  15.260  0.00  0.00    +0.000 NA
BRANCH  20  23
ATOM     23  C   UNL     1      50.219   4.873  17.517  0.00  0.00    +0.000 C 
ATOM     24  N   UNL     1      49.942   4.981  18.850  0.00  0.00    +0.000 N 
ATOM     25  O   UNL     1      50.626   3.809  17.063  0.00  0.00    +0.000 OA
ATOM     26  H   UNL     1      49.573   5.792  19.320  0.00  0.00    +0.000 HD
ATOM     27  H   UNL     1      50.128   4.160  19.414  0.00  0.00    +0.000 HD
ENDBRANCH  20  23
ENDBRANCH  16  17
ENDBRANCH   2  16
TORSDOF 6
ENDMDL
MODEL 9
REMARK VINA RESULT:    -5.768      2.390      3.284
REMARK INTER + INTRA:          -8.752
REMARK INTER:                  -7.663
REMARK INTRA:                  -1.088
REMARK UNBOUND:                -0.961
REMARK  Name = 
REMARK  7 active torsions:
REMARK  status: ('A' for Active; 'I' for Inactive)
REMARK    1  A    between atoms: C_1  and  C_2
REMARK    2  A    between atoms: C_2  and  C_3
REMARK    3  A    between atoms: C_2  and  C_13
REMARK    4  A    between atoms: C_3  and  C_4
REMARK    5  A    between atoms: C_7  and  C_8
REMARK    6  A    between atoms: C_18  and  O_19
REMARK    7  A    between atoms: O_19  and  C_20
REMARK                            x       y       z     vdW  Elec       q    Type
REMARK                         _______ _______ _______ _____ _____    ______ ____
ROOT
ATOM      1  C   UNL     1      45.123   9.176  12.287  0.00  0.00    +0.000 C 
ATOM      2  C   UNL     1      45.901   7.858  12.098  0.00  0.00    +0.000 C 
ENDROOT
BRANCH   2   3
ATOM      3  C   UNL     1      47.338   7.879  12.638  0.00  0.00    +0.000 A 
ATOM      4  C   UNL     1      48.442   7.738  11.781  0.00  0.00    +0.000 A 
ATOM      5  C   UNL     1      49.734   7.599  12.286  0.00  0.00    +0.000 A 
ATOM      6  F   UNL     1      50.757   7.427  11.440  0.00  0.00    +0.000 F 
ATOM      7  C   UNL     1      49.967   7.605  13.650  0.00  0.00    +0.000 A 
ATOM      8  C   UNL     1      48.905   7.758  14.532  0.00  0.00    +0.000 A 
ATOM      9  C   UNL     1      47.598   7.888  14.032  0.00  0.00    +0.000 A 
BRANCH   8  10
ATOM     10  O   UNL     1      49.270   7.709  15.846  0.00  0.00    +0.000 OA
BRANCH  10  11
ATOM     11  C   UNL     1      49.858   6.516  16.376  0.00  0.00    +0.000 C 
ATOM     12  C   UNL     1      48.817   5.428  16.528  0.00  0.00    +0.000 C 
ATOM     13  C   UNL     1      48.073   5.876  17.769  0.00  0.00    +0.000 C 
ATOM     14  O   UNL     1      49.051   6.474  18.632  0.00  0.00    +0.000 OA
ATOM     15  C   UNL     1      50.212   6.787  17.839  0.00  0.00    +0.000 C 
ENDBRANCH  10  11
ENDBRANCH   8  10
ENDBRANCH   2   3
BRANCH   2  16
ATOM     16  C   UNL     1      45.009   6.652  12.501  0.00  0.00    +0.000 C 
BRANCH  16  17
ATOM     17  C   UNL     1      44.946   5.530  11.495  0.00  0.00    +0.000 A 
ATOM     18  C   UNL     1      45.412   5.709  10.197  0.00  0.00    +0.000 A 
ATOM     19  C   UNL     1      45.445   4.615   9.335  0.00  0.00    +0.000 A 
ATOM     20  C   UNL     1      45.006   3.367   9.780  0.00  0.00    +0.000 A 
ATOM     21  C   UNL     1      44.485   3.297  11.062  0.00  0.00    +0.000 A 
ATOM     22  N   UNL     1      44.444   4.346  11.923  0.00  0.00    +0.000 NA
BRANCH  20  23
ATOM     23  C   UNL     1      45.197   2.188   8.902  0.00  0.00    +0.000 C 
ATOM     24  N   UNL     1      46.262   2.157   8.047  0.00  0.00    +0.000 N 
ATOM     25  O   UNL     1      44.398   1.258   8.914  0.00  0.00    +0.000 OA
ATOM     26  H   UNL     1      46.994   2.847   7.978  0.00  0.00    +0.000 HD
ATOM     27  H   UNL     1      46.313   1.360   7.424  0.00  0.00    +0.000 HD
ENDBRANCH  20  23
ENDBRANCH  16  17
ENDBRANCH   2  16
TORSDOF 6
ENDMDL
