MODEL 1
REMARK VINA RESULT:    -7.471      0.000      0.000
REMARK INTER + INTRA:         -12.114
REMARK INTER:                 -10.966
REMARK INTRA:                  -1.148
REMARK UNBOUND:                -1.148
REMARK  Name = 
REMARK  10 active torsions:
REMARK  status: ('A' for Active; 'I' for Inactive)
REMARK    1  A    between atoms: C_1  and  O_2
REMARK    2  A    between atoms: O_2  and  C_3
REMARK    3  A    between atoms: C_8  and  C_9
REMARK    4  A    between atoms: N_11  and  C_12
REMARK    5  A    between atoms: C_12  and  C_13
REMARK    6  A    between atoms: C_16  and  C_17
REMARK    7  A    between atoms: C_17  and  N_18
REMARK    8  A    between atoms: N_18  and  C_19
REMARK    9  A    between atoms: N_18  and  C_20
REMARK   10  A    between atoms: C_20  and  C_21
REMARK                            x       y       z     vdW  Elec       q    Type
REMARK                         _______ _______ _______ _____ _____    ______ ____
ROOT
ATOM      1  C   UNL     1      47.060   8.719  12.978  0.00  0.00    +0.000 C 
ENDROOT
BRANCH   1   2
ATOM      2  C   UNL     1      46.235   7.723  12.207  0.00  0.00    +0.000 A 
ATOM      3  C   UNL     1      44.875   7.958  11.966  0.00  0.00    +0.000 A 
ATOM      4  C   UNL     1      44.078   6.967  11.388  0.00  0.00    +0.000 A 
ATOM      5  C   UNL     1      44.626   5.725  11.038  0.00  0.00    +0.000 A 
ATOM      6  C   UNL     1      45.998   5.514  11.228  0.00  0.00    +0.000 A 
ATOM      7  C   UNL     1      46.794   6.502  11.810  0.00  0.00    +0.000 A 
BRANCH   5   8
ATOM      8  C   UNL     1      43.743   4.577  10.592  0.00  0.00    +0.000 C 
BRANCH   8   9
ATOM      9  N   UNL     1      44.337   3.235  10.753  0.00  0.00    +0.000 NA
ATOM     10  C   UNL     1      43.684   2.500  11.840  0.00  0.00    +0.000 C 
BRANCH   9  11
ATOM     11  C   UNL     1      44.184   2.468   9.488  0.00  0.00    +0.000 C 
BRANCH  11  12
ATOM     12  C   UNL     1      45.423   2.514   8.608  0.00  0.00    +0.000 A 
ATOM     13  C   UNL     1      45.755   3.691   7.939  0.00  0.00    +0.000 A 
ATOM     14  C   UNL     1      46.778   3.661   6.997  0.00  0.00    +0.000 A 
ATOM     15  C   UNL     1      47.451   2.468   6.760  0.00  0.00    +0.000 A 
ATOM     16  C   UNL     1      47.083   1.352   7.492  0.00  0.00    +0.000 A 
ATOM     17  N   UNL     1      46.088   1.345   8.405  0.00  0.00    +0.000 NA
ENDBRANCH  11  12
ENDBRANCH   9  11
ENDBRANCH   8   9
ENDBRANCH   5   8
ENDBRANCH   1   2
BRANCH   1  20
ATOM     18  C   UNL     1      48.722   7.632  14.413  0.00  0.00    +0.000 C 
ATOM     19  O   UNL     1      49.567   7.658  13.524  0.00  0.00    +0.000 OA
ATOM     20  N   UNL     1      47.464   8.160  14.249  0.00  0.00    +0.000 N 
ATOM     21  H   UNL     1      46.741   7.888  14.903  0.00  0.00    +0.000 HD
BRANCH  18  27
ATOM     22  C   UNL     1      48.746   4.490  18.327  0.00  0.00    +0.000 A 
ATOM     23  N   UNL     1      47.925   3.518  17.870  0.00  0.00    +0.000 NA
ATOM     24  C   UNL     1      47.383   3.651  16.640  0.00  0.00    +0.000 A 
ATOM     25  C   UNL     1      47.610   4.718  15.780  0.00  0.00    +0.000 A 
ATOM     26  C   UNL     1      48.477   5.729  16.231  0.00  0.00    +0.000 A 
ATOM     27  C   UNL     1      48.965   6.978  15.698  0.00  0.00    +0.000 A 
ATOM     28  C   UNL     1      49.750   7.540  16.691  0.00  0.00    +0.000 A 
ATOM     29  N   UNL     1      49.785   6.694  17.762  0.00  0.00    +0.000 N 
ATOM     30  C   UNL     1      49.015   5.586  17.513  0.00  0.00    +0.000 A 
ATOM     31  H   UNL     1      50.282   6.853  18.630  0.00  0.00    +0.000 HD
BRANCH  22  33
ATOM     32  C   UNL     1      48.500   5.009  20.590  0.00  0.00    +0.000 C 
ATOM     33  O   UNL     1      49.311   4.408  19.583  0.00  0.00    +0.000 OA
ENDBRANCH  22  33
ENDBRANCH  18  27
ENDBRANCH   1  20
TORSDOF 8
ENDMDL
MODEL 2
REMARK VINA RESULT:    -7.101      2.613      3.624
REMARK INTER + INTRA:         -11.571
REMARK INTER:                 -10.713
REMARK INTRA:                  -0.857
REMARK UNBOUND:                -1.148
REMARK  Name = 
REMARK  10 active torsions:
REMARK  status: ('A' for Active; 'I' for Inactive)
REMARK    1  A    between atoms: C_1  and  O_2
REMARK    2  A    between atoms: O_2  and  C_3
REMARK    3  A    between atoms: C_8  and  C_9
REMARK    4  A    between atoms: N_11  and  C_12
REMARK    5  A    between atoms: C_12  and  C_13
REMARK    6  A    between atoms: C_16  and  C_17
REMARK    7  A    between atoms: C_17  and  N_18
REMARK    8  A    between atoms: N_18  and  C_19
REMARK    9  A    between atoms: N_18  and  C_20
REMARK   10  A    between atoms: C_20  and  C_21
REMARK                            x       y       z     vdW  Elec       q    Type
REMARK                         _______ _______ _______ _____ _____    ______ ____
ROOT
ATOM      1  C   UNL     1      48.925   7.760  15.242  0.00  0.00    +0.000 C 
ENDROOT
BRANCH   1   2
ATOM      2  C   UNL     1      47.965   7.483  14.116  0.00  0.00    +0.000 A 
ATOM      3  C   UNL     1      47.089   8.478  13.663  0.00  0.00    +0.000 A 
ATOM      4  C   UNL     1      46.097   8.173  12.727  0.00  0.00    +0.000 A 
ATOM      5  C   UNL     1      45.965   6.871  12.226  0.00  0.00    +0.000 A 
ATOM      6  C   UNL     1      46.879   5.892  12.638  0.00  0.00    +0.000 A 
ATOM      7  C   UNL     1      47.867   6.194  13.577  0.00  0.00    +0.000 A 
BRANCH   5   8
ATOM      8  C   UNL     1      44.781   6.480  11.363  0.00  0.00    +0.000 C 
BRANCH   8   9
ATOM      9  N   UNL     1      44.326   5.085  11.525  0.00  0.00    +0.000 NA
ATOM     10  C   UNL     1      43.443   4.952  12.686  0.00  0.00    +0.000 C 
BRANCH   9  11
ATOM     11  C   UNL     1      43.592   4.657  10.303  0.00  0.00    +0.000 C 
BRANCH  11  12
ATOM     12  C   UNL     1      44.442   3.828   9.355  0.00  0.00    +0.000 A 
ATOM     13  C   UNL     1      44.558   2.453   9.549  0.00  0.00    +0.000 A 
ATOM     14  C   UNL     1      45.483   1.744   8.791  0.00  0.00    +0.000 A 
ATOM     15  C   UNL     1      46.255   2.418   7.853  0.00  0.00    +0.000 A 
ATOM     16  C   UNL     1      46.055   3.780   7.697  0.00  0.00    +0.000 A 
ATOM     17  N   UNL     1      45.173   4.498   8.424  0.00  0.00    +0.000 NA
ENDBRANCH  11  12
ENDBRANCH   9  11
ENDBRANCH   8   9
ENDBRANCH   5   8
ENDBRANCH   1   2
BRANCH   1  20
ATOM     18  C   UNL     1      49.224   6.033  16.954  0.00  0.00    +0.000 C 
ATOM     19  O   UNL     1      48.408   6.571  17.697  0.00  0.00    +0.000 OA
ATOM     20  N   UNL     1      49.523   6.530  15.708  0.00  0.00    +0.000 N 
ATOM     21  H   UNL     1      50.369   6.208  15.255  0.00  0.00    +0.000 HD
BRANCH  18  27
ATOM     22  C   UNL     1      52.874   2.795  18.130  0.00  0.00    +0.000 A 
ATOM     23  N   UNL     1      53.965   3.566  17.927  0.00  0.00    +0.000 NA
ATOM     24  C   UNL     1      53.793   4.837  17.504  0.00  0.00    +0.000 A 
ATOM     25  C   UNL     1      52.563   5.438  17.266  0.00  0.00    +0.000 A 
ATOM     26  C   UNL     1      51.415   4.656  17.491  0.00  0.00    +0.000 A 
ATOM     27  C   UNL     1      49.993   4.858  17.363  0.00  0.00    +0.000 A 
ATOM     28  C   UNL     1      49.401   3.648  17.683  0.00  0.00    +0.000 A 
ATOM     29  N   UNL     1      50.376   2.753  18.023  0.00  0.00    +0.000 N 
ATOM     30  C   UNL     1      51.611   3.338  17.910  0.00  0.00    +0.000 A 
ATOM     31  H   UNL     1      50.228   1.790  18.299  0.00  0.00    +0.000 HD
BRANCH  22  33
ATOM     32  C   UNL     1      53.233   0.586  17.464  0.00  0.00    +0.000 C 
ATOM     33  O   UNL     1      52.999   1.485  18.545  0.00  0.00    +0.000 OA
ENDBRANCH  22  33
ENDBRANCH  18  27
ENDBRANCH   1  20
TORSDOF 8
ENDMDL
MODEL 3
REMARK VINA RESULT:    -7.017      2.783      3.537
REMARK INTER + INTRA:         -11.447
REMARK INTER:                 -10.805
REMARK INTRA:                  -0.643
REMARK UNBOUND:                -1.148
REMARK  Name = 
REMARK  10 active torsions:
REMARK  status: ('A' for Active; 'I' for Inactive)
REMARK    1  A    between atoms: C_1  and  O_2
REMARK    2  A    between atoms: O_2  and  C_3
REMARK    3  A    between atoms: C_8  and  C_9
REMARK    4  A    between atoms: N_11  and  C_12
REMARK    5  A    between atoms: C_12  and  C_13
REMARK    6  A    between atoms: C_16  and  C_17
REMARK    7  A    between atoms: C_17  and  N_18
REMARK    8  A    between atoms: N_18  and  C_19
REMARK    9  A    between atoms: N_18  and  C_20
REMARK   10  A    between atoms: C_20  and  C_21
REMARK                            x       y       z     vdW  Elec       q    Type
REMARK                         _______ _______ _______ _____ _____    ______ ____
ROOT
ATOM      1  C   UNL     1      48.749   6.629  14.215  0.00  0.00    +0.000 C 
ENDROOT
BRANCH   1   2
ATOM      2  C   UNL     1      47.564   6.248  13.369  0.00  0.00    +0.000 A 
ATOM      3  C   UNL     1      46.732   5.184  13.743  0.00  0.00    +0.000 A 
ATOM      4  C   UNL     1      45.729   4.734  12.881  0.00  0.00    +0.000 A 
ATOM      5  C   UNL     1      45.537   5.340  11.632  0.00  0.00    +0.000 A 
ATOM      6  C   UNL     1      46.333   6.440  11.285  0.00  0.00    +0.000 A 
ATOM      7  C   UNL     1      47.339   6.887  12.143  0.00  0.00    +0.000 A 
BRANCH   5   8
ATOM      8  C   UNL     1      44.588   4.745  10.610  0.00  0.00    +0.000 C 
BRANCH   8   9
ATOM      9  N   UNL     1      44.570   3.270  10.561  0.00  0.00    +0.000 NA
ATOM     10  C   UNL     1      43.527   2.729  11.436  0.00  0.00    +0.000 C 
BRANCH   9  11
ATOM     11  C   UNL     1      44.314   2.822   9.166  0.00  0.00    +0.000 C 
BRANCH  11  12
ATOM     12  C   UNL     1      45.584   2.453   8.415  0.00  0.00    +0.000 A 
ATOM     13  C   UNL     1      46.234   3.411   7.639  0.00  0.00    +0.000 A 
ATOM     14  C   UNL     1      47.280   3.010   6.815  0.00  0.00    +0.000 A 
ATOM     15  C   UNL     1      47.659   1.673   6.798  0.00  0.00    +0.000 A 
ATOM     16  C   UNL     1      46.985   0.790   7.626  0.00  0.00    +0.000 A 
ATOM     17  N   UNL     1      45.959   1.146   8.428  0.00  0.00    +0.000 NA
ENDBRANCH  11  12
ENDBRANCH   9  11
ENDBRANCH   8   9
ENDBRANCH   5   8
ENDBRANCH   1   2
BRANCH   1  20
ATOM     18  C   UNL     1      49.064   7.034  16.611  0.00  0.00    +0.000 C 
ATOM     19  O   UNL     1      50.155   6.472  16.604  0.00  0.00    +0.000 OA
ATOM     20  N   UNL     1      48.309   7.189  15.474  0.00  0.00    +0.000 N 
ATOM     21  H   UNL     1      47.329   7.420  15.577  0.00  0.00    +0.000 HD
BRANCH  18  27
ATOM     22  C   UNL     1      46.981   9.857  20.199  0.00  0.00    +0.000 A 
ATOM     23  N   UNL     1      46.962  11.063  19.587  0.00  0.00    +0.000 NA
ATOM     24  C   UNL     1      47.459  11.163  18.335  0.00  0.00    +0.000 A 
ATOM     25  C   UNL     1      47.989  10.110  17.602  0.00  0.00    +0.000 A 
ATOM     26  C   UNL     1      47.999   8.844  18.215  0.00  0.00    +0.000 A 
ATOM     27  C   UNL     1      48.450   7.525  17.844  0.00  0.00    +0.000 A 
ATOM     28  C   UNL     1      48.227   6.717  18.946  0.00  0.00    +0.000 A 
ATOM     29  N   UNL     1      47.644   7.461  19.932  0.00  0.00    +0.000 N 
ATOM     30  C   UNL     1      47.498   8.761  19.517  0.00  0.00    +0.000 A 
ATOM     31  H   UNL     1      47.373   7.126  20.848  0.00  0.00    +0.000 HD
BRANCH  22  33
ATOM     32  C   UNL     1      45.449  10.620  21.788  0.00  0.00    +0.000 C 
ATOM     33  O   UNL     1      46.500   9.707  21.484  0.00  0.00    +0.000 OA
ENDBRANCH  22  33
ENDBRANCH  18  27
ENDBRANCH   1  20
TORSDOF 8
ENDMDL
MODEL 4
REMARK VINA RESULT:    -6.839      3.346      5.627
REMARK INTER + INTRA:         -11.186
REMARK INTER:                  -9.944
REMARK INTRA:                  -1.242
REMARK UNBOUND:                -1.148
REMARK  Name = 
REMARK  10 active torsions:
REMARK  status: ('A' for Active; 'I' for Inactive)
REMARK    1  A    between atoms: C_1  and  O_2
REMARK    2  A    between atoms: O_2  and  C_3
REMARK    3  A    between atoms: C_8  and  C_9
REMARK    4  A    between atoms: N_11  and  C_12
REMARK    5  A    between atoms: C_12  and  C_13
REMARK    6  A    between atoms: C_16  and  C_17
REMARK    7  A    between atoms: C_17  and  N_18
REMARK    8  A    between atoms: N_18  and  C_19
REMARK    9  A    between atoms: N_18  and  C_20
REMARK   10  A    between atoms: C_20  and  C_21
REMARK                            x       y       z     vdW  Elec       q    Type
REMARK                         _______ _______ _______ _____ _____    ______ ____
ROOT
ATOM      1  C   UNL     1      47.593   3.513  16.900  0.00  0.00    +0.000 C 
ENDROOT
BRANCH   1   2
ATOM      2  C   UNL     1      47.588   4.406  15.688  0.00  0.00    +0.000 A 
ATOM      3  C   UNL     1      48.148   5.689  15.744  0.00  0.00    +0.000 A 
ATOM      4  C   UNL     1      48.006   6.570  14.669  0.00  0.00    +0.000 A 
ATOM      5  C   UNL     1      47.304   6.184  13.519  0.00  0.00    +0.000 A 
ATOM      6  C   UNL     1      46.794   4.882  13.443  0.00  0.00    +0.000 A 
ATOM      7  C   UNL     1      46.931   4.002  14.518  0.00  0.00    +0.000 A 
BRANCH   5   8
ATOM      8  C   UNL     1      46.975   7.186  12.429  0.00  0.00    +0.000 C 
BRANCH   8   9
ATOM      9  N   UNL     1      45.609   7.744  12.487  0.00  0.00    +0.000 NA
ATOM     10  C   UNL     1      45.640   9.208  12.488  0.00  0.00    +0.000 C 
BRANCH   9  11
ATOM     11  C   UNL     1      44.830   7.274  11.310  0.00  0.00    +0.000 C 
BRANCH  11  12
ATOM     12  C   UNL     1      44.231   5.890  11.503  0.00  0.00    +0.000 A 
ATOM     13  C   UNL     1      43.549   5.588  12.680  0.00  0.00    +0.000 A 
ATOM     14  C   UNL     1      43.174   4.270  12.918  0.00  0.00    +0.000 A 
ATOM     15  C   UNL     1      43.474   3.295  11.974  0.00  0.00    +0.000 A 
ATOM     16  C   UNL     1      44.125   3.684  10.815  0.00  0.00    +0.000 A 
ATOM     17  N   UNL     1      44.512   4.952  10.559  0.00  0.00    +0.000 NA
ENDBRANCH  11  12
ENDBRANCH   9  11
ENDBRANCH   8   9
ENDBRANCH   5   8
ENDBRANCH   1   2
BRANCH   1  20
ATOM     18  C   UNL     1      49.754   2.361  16.833  0.00  0.00    +0.000 C 
ATOM     19  O   UNL     1      49.398   1.662  15.889  0.00  0.00    +0.000 OA
ATOM     20  N   UNL     1      48.943   3.326  17.381  0.00  0.00    +0.000 N 
ATOM     21  H   UNL     1      49.178   3.684  18.297  0.00  0.00    +0.000 HD
BRANCH  18  27
ATOM     22  C   UNL     1      54.202   3.038  19.056  0.00  0.00    +0.000 A 
ATOM     23  N   UNL     1      54.276   4.388  19.057  0.00  0.00    +0.000 NA
ATOM     24  C   UNL     1      53.260   5.095  18.515  0.00  0.00    +0.000 A 
ATOM     25  C   UNL     1      52.116   4.543  17.956  0.00  0.00    +0.000 A 
ATOM     26  C   UNL     1      52.013   3.140  17.962  0.00  0.00    +0.000 A 
ATOM     27  C   UNL     1      51.046   2.178  17.492  0.00  0.00    +0.000 A 
ATOM     28  C   UNL     1      51.587   0.930  17.752  0.00  0.00    +0.000 A 
ATOM     29  N   UNL     1      52.793   1.088  18.373  0.00  0.00    +0.000 N 
ATOM     30  C   UNL     1      53.080   2.423  18.509  0.00  0.00    +0.000 A 
ATOM     31  H   UNL     1      53.408   0.343  18.676  0.00  0.00    +0.000 HD
BRANCH  22  33
ATOM     32  C   UNL     1      55.124   2.123  20.996  0.00  0.00    +0.000 C 
ATOM     33  O   UNL     1      55.222   2.272  19.582  0.00  0.00    +0.000 OA
ENDBRANCH  22  33
ENDBRANCH  18  27
ENDBRANCH   1  20
TORSDOF 8
ENDMDL
MODEL 5
REMARK VINA RESULT:    -6.691      2.676      8.130
REMARK INTER + INTRA:         -10.968
REMARK INTER:                  -9.209
REMARK INTRA:                  -1.758
REMARK UNBOUND:                -1.148
REMARK  Name = 
REMARK  10 active torsions:
REMARK  status: ('A' for Active; 'I' for Inactive)
REMARK    1  A    between atoms: C_1  and  O_2
REMARK    2  A    between atoms: O_2  and  C_3
REMARK    3  A    between atoms: C_8  and  C_9
REMARK    4  A    between atoms: N_11  and  C_12
REMARK    5  A    between atoms: C_12  and  C_13
REMARK    6  A    between atoms: C_16  and  C_17
REMARK    7  A    between atoms: C_17  and  N_18
REMARK    8  A    between atoms: N_18  and  C_19
REMARK    9  A    between atoms: N_18  and  C_20
REMARK   10  A    between atoms: C_20  and  C_21
REMARK                            x       y       z     vdW  Elec       q    Type
REMARK                         _______ _______ _______ _____ _____    ______ ____
ROOT
ATOM      1  C   UNL     1      48.009   9.139  15.024  0.00  0.00    +0.000 C 
ENDROOT
BRANCH   1   2
ATOM      2  C   UNL     1      49.196   8.541  15.731  0.00  0.00    +0.000 A 
ATOM      3  C   UNL     1      49.966   7.544  15.117  0.00  0.00    +0.000 A 
ATOM      4  C   UNL     1      50.968   6.884  15.832  0.00  0.00    +0.000 A 
ATOM      5  C   UNL     1      51.221   7.210  17.171  0.00  0.00    +0.000 A 
ATOM      6  C   UNL     1      50.489   8.247  17.765  0.00  0.00    +0.000 A 
ATOM      7  C   UNL     1      49.483   8.903  17.054  0.00  0.00    +0.000 A 
BRANCH   5   8
ATOM      8  C   UNL     1      52.166   6.378  18.015  0.00  0.00    +0.000 C 
BRANCH   8   9
ATOM      9  N   UNL     1      52.135   4.927  17.740  0.00  0.00    +0.000 NA
ATOM     10  C   UNL     1      53.445   4.319  17.985  0.00  0.00    +0.000 C 
BRANCH   9  11
ATOM     11  C   UNL     1      51.125   4.277  18.618  0.00  0.00    +0.000 C 
BRANCH  11  12
ATOM     12  C   UNL     1      49.770   4.110  17.947  0.00  0.00    +0.000 A 
ATOM     13  C   UNL     1      48.709   4.937  18.310  0.00  0.00    +0.000 A 
ATOM     14  C   UNL     1      47.438   4.648  17.826  0.00  0.00    +0.000 A 
ATOM     15  C   UNL     1      47.261   3.557  16.984  0.00  0.00    +0.000 A 
ATOM     16  C   UNL     1      48.373   2.805  16.643  0.00  0.00    +0.000 A 
ATOM     17  N   UNL     1      49.618   3.053  17.105  0.00  0.00    +0.000 NA
ENDBRANCH  11  12
ENDBRANCH   9  11
ENDBRANCH   8   9
ENDBRANCH   5   8
ENDBRANCH   1   2
BRANCH   1  20
ATOM     18  C   UNL     1      46.810   8.372  13.029  0.00  0.00    +0.000 C 
ATOM     19  O   UNL     1      47.004   9.438  12.453  0.00  0.00    +0.000 OA
ATOM     20  N   UNL     1      47.295   8.118  14.290  0.00  0.00    +0.000 N 
ATOM     21  H   UNL     1      46.898   7.345  14.809  0.00  0.00    +0.000 HD
BRANCH  18  27
ATOM     22  C   UNL     1      44.739   3.970  11.795  0.00  0.00    +0.000 A 
ATOM     23  N   UNL     1      45.456   3.130  12.574  0.00  0.00    +0.000 NA
ATOM     24  C   UNL     1      46.423   3.645  13.364  0.00  0.00    +0.000 A 
ATOM     25  C   UNL     1      46.742   4.994  13.458  0.00  0.00    +0.000 A 
ATOM     26  C   UNL     1      45.993   5.885  12.668  0.00  0.00    +0.000 A 
ATOM     27  C   UNL     1      45.992   7.310  12.446  0.00  0.00    +0.000 A 
ATOM     28  C   UNL     1      45.030   7.548  11.478  0.00  0.00    +0.000 A 
ATOM     29  N   UNL     1      44.439   6.365  11.138  0.00  0.00    +0.000 N 
ATOM     30  C   UNL     1      45.009   5.335  11.842  0.00  0.00    +0.000 A 
ATOM     31  H   UNL     1      43.704   6.243  10.452  0.00  0.00    +0.000 HD
BRANCH  22  33
ATOM     32  C   UNL     1      44.279   2.833   9.808  0.00  0.00    +0.000 C 
ATOM     33  O   UNL     1      43.752   3.491  10.957  0.00  0.00    +0.000 OA
ENDBRANCH  22  33
ENDBRANCH  18  27
ENDBRANCH   1  20
TORSDOF 8
ENDMDL
MODEL 6
REMARK VINA RESULT:    -6.619      2.571      8.094
REMARK INTER + INTRA:         -10.863
REMARK INTER:                  -9.052
REMARK INTRA:                  -1.811
REMARK UNBOUND:                -1.148
REMARK  Name = 
REMARK  10 active torsions:
REMARK  status: ('A' for Active; 'I' for Inactive)
REMARK    1  A    between atoms: C_1  and  O_2
REMARK    2  A    between atoms: O_2  and  C_3
REMARK    3  A    between atoms: C_8  and  C_9
REMARK    4  A    between atoms: N_11  and  C_12
REMARK    5  A    between atoms: C_12  and  C_13
REMARK    6  A    between atoms: C_16  and  C_17
REMARK    7  A    between atoms: C_17  and  N_18
REMARK    8  A    between atoms: N_18  and  C_19
REMARK    9  A    between atoms: N_18  and  C_20
REMARK   10  A    between atoms: C_20  and  C_21
REMARK                            x       y       z     vdW  Elec       q    Type
REMARK                         _______ _______ _______ _____ _____    ______ ____
ROOT
ATOM      1  C   UNL     1      48.994   8.945  13.325  0.00  0.00    +0.000 C 
ENDROOT
BRANCH   1   2
ATOM      2  C   UNL     1      49.043   8.764  14.819  0.00  0.00    +0.000 A 
ATOM      3  C   UNL     1      49.359   7.518  15.377  0.00  0.00    +0.000 A 
ATOM      4  C   UNL     1      49.253   7.314  16.755  0.00  0.00    +0.000 A 
ATOM      5  C   UNL     1      48.831   8.350  17.599  0.00  0.00    +0.000 A 
ATOM      6  C   UNL     1      48.570   9.610  17.045  0.00  0.00    +0.000 A 
ATOM      7  C   UNL     1      48.671   9.814  15.668  0.00  0.00    +0.000 A 
BRANCH   5   8
ATOM      8  C   UNL     1      48.525   8.094  19.062  0.00  0.00    +0.000 C 
BRANCH   8   9
ATOM      9  N   UNL     1      49.210   6.923  19.645  0.00  0.00    +0.000 NA
ATOM     10  C   UNL     1      49.896   7.283  20.888  0.00  0.00    +0.000 C 
BRANCH   9  11
ATOM     11  C   UNL     1      48.213   5.856  19.932  0.00  0.00    +0.000 C 
BRANCH  11  12
ATOM     12  C   UNL     1      48.166   4.779  18.860  0.00  0.00    +0.000 A 
ATOM     13  C   UNL     1      49.297   4.008  18.601  0.00  0.00    +0.000 A 
ATOM     14  C   UNL     1      49.295   3.162  17.497  0.00  0.00    +0.000 A 
ATOM     15  C   UNL     1      48.164   3.096  16.693  0.00  0.00    +0.000 A 
ATOM     16  C   UNL     1      47.067   3.869  17.038  0.00  0.00    +0.000 A 
ATOM     17  N   UNL     1      47.043   4.708  18.096  0.00  0.00    +0.000 NA
ENDBRANCH  11  12
ENDBRANCH   9  11
ENDBRANCH   8   9
ENDBRANCH   5   8
ENDBRANCH   1   2
BRANCH   1  20
ATOM     18  C   UNL     1      46.777   8.169  12.629  0.00  0.00    +0.000 C 
ATOM     19  O   UNL     1      46.252   9.218  12.989  0.00  0.00    +0.000 OA
ATOM     20  N   UNL     1      48.131   7.952  12.726  0.00  0.00    +0.000 N 
ATOM     21  H   UNL     1      48.469   7.001  12.661  0.00  0.00    +0.000 HD
BRANCH  18  27
ATOM     22  C   UNL     1      44.828   3.625  11.764  0.00  0.00    +0.000 A 
ATOM     23  N   UNL     1      45.544   2.878  12.634  0.00  0.00    +0.000 NA
ATOM     24  C   UNL     1      46.481   3.486  13.394  0.00  0.00    +0.000 A 
ATOM     25  C   UNL     1      46.769   4.844  13.369  0.00  0.00    +0.000 A 
ATOM     26  C   UNL     1      46.021   5.640  12.483  0.00  0.00    +0.000 A 
ATOM     27  C   UNL     1      45.995   7.038  12.130  0.00  0.00    +0.000 A 
ATOM     28  C   UNL     1      45.052   7.164  11.123  0.00  0.00    +0.000 A 
ATOM     29  N   UNL     1      44.495   5.941  10.881  0.00  0.00    +0.000 N 
ATOM     30  C   UNL     1      45.069   4.994  11.690  0.00  0.00    +0.000 A 
ATOM     31  H   UNL     1      43.779   5.740  10.194  0.00  0.00    +0.000 HD
BRANCH  22  33
ATOM     32  C   UNL     1      44.407   2.589   9.715  0.00  0.00    +0.000 C 
ATOM     33  O   UNL     1      43.872   3.048  10.953  0.00  0.00    +0.000 OA
ENDBRANCH  22  33
ENDBRANCH  18  27
ENDBRANCH   1  20
TORSDOF 8
ENDMDL
MODEL 7
REMARK VINA RESULT:    -6.448      3.324     10.116
REMARK INTER + INTRA:         -10.612
REMARK INTER:                  -8.926
REMARK INTRA:                  -1.686
REMARK UNBOUND:                -1.148
REMARK  Name = 
REMARK  10 active torsions:
REMARK  status: ('A' for Active; 'I' for Inactive)
REMARK    1  A    between atoms: C_1  and  O_2
REMARK    2  A    between atoms: O_2  and  C_3
REMARK    3  A    between atoms: C_8  and  C_9
REMARK    4  A    between atoms: N_11  and  C_12
REMARK    5  A    between atoms: C_12  and  C_13
REMARK    6  A    between atoms: C_16  and  C_17
REMARK    7  A    between atoms: C_17  and  N_18
REMARK    8  A    between atoms: N_18  and  C_19
REMARK    9  A    between atoms: N_18  and  C_20
REMARK   10  A    between atoms: C_20  and  C_21
REMARK                            x       y       z     vdW  Elec       q    Type
REMARK                         _______ _______ _______ _____ _____    ______ ____
ROOT
ATOM      1  C   UNL     1      48.122   5.653  16.998  0.00  0.00    +0.000 C 
ENDROOT
BRANCH   1   2
ATOM      2  C   UNL     1      49.532   5.145  17.137  0.00  0.00    +0.000 A 
ATOM      3  C   UNL     1      49.780   3.837  17.575  0.00  0.00    +0.000 A 
ATOM      4  C   UNL     1      51.085   3.420  17.850  0.00  0.00    +0.000 A 
ATOM      5  C   UNL     1      52.164   4.301  17.692  0.00  0.00    +0.000 A 
ATOM      6  C   UNL     1      51.918   5.589  17.200  0.00  0.00    +0.000 A 
ATOM      7  C   UNL     1      50.615   6.009  16.929  0.00  0.00    +0.000 A 
BRANCH   5   8
ATOM      8  C   UNL     1      53.554   3.929  18.168  0.00  0.00    +0.000 C 
BRANCH   8   9
ATOM      9  N   UNL     1      53.606   3.267  19.487  0.00  0.00    +0.000 NA
ATOM     10  C   UNL     1      54.642   2.232  19.513  0.00  0.00    +0.000 C 
BRANCH   9  11
ATOM     11  C   UNL     1      53.900   4.278  20.538  0.00  0.00    +0.000 C 
BRANCH  11  12
ATOM     12  C   UNL     1      52.725   5.198  20.828  0.00  0.00    +0.000 A 
ATOM     13  C   UNL     1      51.517   4.662  21.270  0.00  0.00    +0.000 A 
ATOM     14  C   UNL     1      50.404   5.492  21.349  0.00  0.00    +0.000 A 
ATOM     15  C   UNL     1      50.528   6.832  21.001  0.00  0.00    +0.000 A 
ATOM     16  C   UNL     1      51.772   7.294  20.604  0.00  0.00    +0.000 A 
ATOM     17  N   UNL     1      52.868   6.512  20.506  0.00  0.00    +0.000 NA
ENDBRANCH  11  12
ENDBRANCH   9  11
ENDBRANCH   8   9
ENDBRANCH   5   8
ENDBRANCH   1   2
BRANCH   1  20
ATOM     18  C   UNL     1      47.437   5.402  14.659  0.00  0.00    +0.000 C 
ATOM     19  O   UNL     1      48.064   6.402  14.325  0.00  0.00    +0.000 OA
ATOM     20  N   UNL     1      47.430   4.934  15.951  0.00  0.00    +0.000 N 
ATOM     21  H   UNL     1      46.708   4.277  16.219  0.00  0.00    +0.000 HD
BRANCH  18  27
ATOM     22  C   UNL     1      44.069   4.062  11.187  0.00  0.00    +0.000 A 
ATOM     23  N   UNL     1      43.547   5.267  10.869  0.00  0.00    +0.000 NA
ATOM     24  C   UNL     1      44.012   6.364  11.505  0.00  0.00    +0.000 A 
ATOM     25  C   UNL     1      45.011   6.363  12.470  0.00  0.00    +0.000 A 
ATOM     26  C   UNL     1      45.579   5.119  12.800  0.00  0.00    +0.000 A 
ATOM     27  C   UNL     1      46.592   4.664  13.720  0.00  0.00    +0.000 A 
ATOM     28  C   UNL     1      46.631   3.285  13.599  0.00  0.00    +0.000 A 
ATOM     29  N   UNL     1      45.733   2.897  12.646  0.00  0.00    +0.000 N 
ATOM     30  C   UNL     1      45.075   3.992  12.146  0.00  0.00    +0.000 A 
ATOM     31  H   UNL     1      45.550   1.944  12.354  0.00  0.00    +0.000 HD
BRANCH  22  33
ATOM     32  C   UNL     1      44.382   2.558   9.428  0.00  0.00    +0.000 C 
ATOM     33  O   UNL     1      43.616   2.910  10.578  0.00  0.00    +0.000 OA
ENDBRANCH  22  33
ENDBRANCH  18  27
ENDBRANCH   1  20
TORSDOF 8
ENDMDL
MODEL 8
REMARK VINA RESULT:    -6.424      3.713      8.988
REMARK INTER + INTRA:         -10.577
REMARK INTER:                  -8.475
REMARK INTRA:                  -2.102
REMARK UNBOUND:                -1.148
REMARK  Name = 
REMARK  10 active torsions:
REMARK  status: ('A' for Active; 'I' for Inactive)
REMARK    1  A    between atoms: C_1  and  O_2
REMARK    2  A    between atoms: O_2  and  C_3
REMARK    3  A    between atoms: C_8  and  C_9
REMARK    4  A    between atoms: N_11  and  C_12
REMARK    5  A    between atoms: C_12  and  C_13
REMARK    6  A    between atoms: C_16  and  C_17
REMARK    7  A    between atoms: C_17  and  N_18
REMARK    8  A    between atoms: N_18  and  C_19
REMARK    9  A    between atoms: N_18  and  C_20
REMARK   10  A    between atoms: C_20  and  C_21
REMARK                            x       y       z     vdW  Elec       q    Type
REMARK                         _______ _______ _______ _____ _____    ______ ____
ROOT
ATOM      1  C   UNL     1      47.499   3.471  15.783  0.00  0.00    +0.000 C 
ENDROOT
BRANCH   1   2
ATOM      2  C   UNL     1      47.961   3.980  17.122  0.00  0.00    +0.000 A 
ATOM      3  C   UNL     1      47.155   4.846  17.873  0.00  0.00    +0.000 A 
ATOM      4  C   UNL     1      47.649   5.438  19.039  0.00  0.00    +0.000 A 
ATOM      5  C   UNL     1      48.955   5.173  19.475  0.00  0.00    +0.000 A 
ATOM      6  C   UNL     1      49.738   4.264  18.752  0.00  0.00    +0.000 A 
ATOM      7  C   UNL     1      49.248   3.676  17.585  0.00  0.00    +0.000 A 
BRANCH   5   8
ATOM      8  C   UNL     1      49.570   5.951  20.622  0.00  0.00    +0.000 C 
BRANCH   8   9
ATOM      9  N   UNL     1      49.441   7.418  20.520  0.00  0.00    +0.000 NA
ATOM     10  C   UNL     1      49.401   8.035  21.848  0.00  0.00    +0.000 C 
BRANCH   9  11
ATOM     11  C   UNL     1      50.599   7.967  19.764  0.00  0.00    +0.000 C 
BRANCH  11  12
ATOM     12  C   UNL     1      50.455   7.815  18.258  0.00  0.00    +0.000 A 
ATOM     13  C   UNL     1      49.288   8.238  17.626  0.00  0.00    +0.000 A 
ATOM     14  C   UNL     1      49.097   7.922  16.286  0.00  0.00    +0.000 A 
ATOM     15  C   UNL     1      50.079   7.209  15.609  0.00  0.00    +0.000 A 
ATOM     16  C   UNL     1      51.227   6.855  16.299  0.00  0.00    +0.000 A 
ATOM     17  N   UNL     1      51.436   7.137  17.603  0.00  0.00    +0.000 NA
ENDBRANCH  11  12
ENDBRANCH   9  11
ENDBRANCH   8   9
ENDBRANCH   5   8
ENDBRANCH   1   2
BRANCH   1  20
ATOM     18  C   UNL     1      46.225   4.250  13.841  0.00  0.00    +0.000 C 
ATOM     19  O   UNL     1      46.335   3.164  13.281  0.00  0.00    +0.000 OA
ATOM     20  N   UNL     1      46.739   4.489  15.093  0.00  0.00    +0.000 N 
ATOM     21  H   UNL     1      46.847   5.450  15.391  0.00  0.00    +0.000 HD
BRANCH  18  27
ATOM     22  C   UNL     1      45.219   8.747  11.851  0.00  0.00    +0.000 A 
ATOM     23  N   UNL     1      46.397   9.378  12.053  0.00  0.00    +0.000 NA
ATOM     24  C   UNL     1      47.395   8.707  12.670  0.00  0.00    +0.000 A 
ATOM     25  C   UNL     1      47.317   7.393  13.113  0.00  0.00    +0.000 A 
ATOM     26  C   UNL     1      46.104   6.715  12.895  0.00  0.00    +0.000 A 
ATOM     27  C   UNL     1      45.594   5.399  13.192  0.00  0.00    +0.000 A 
ATOM     28  C   UNL     1      44.278   5.390  12.762  0.00  0.00    +0.000 A 
ATOM     29  N   UNL     1      43.985   6.600  12.201  0.00  0.00    +0.000 N 
ATOM     30  C   UNL     1      45.076   7.429  12.273  0.00  0.00    +0.000 A 
ATOM     31  H   UNL     1      43.093   6.872  11.805  0.00  0.00    +0.000 HD
BRANCH  22  33
ATOM     32  C   UNL     1      44.094  10.776  11.586  0.00  0.00    +0.000 C 
ATOM     33  O   UNL     1      44.164   9.395  11.242  0.00  0.00    +0.000 OA
ENDBRANCH  22  33
ENDBRANCH  18  27
ENDBRANCH   1  20
TORSDOF 8
ENDMDL
MODEL 9
REMARK VINA RESULT:    -6.344      3.630      9.904
REMARK INTER + INTRA:         -10.458
REMARK INTER:                  -8.965
REMARK INTRA:                  -1.494
REMARK UNBOUND:                -1.148
REMARK  Name = 
REMARK  10 active torsions:
REMARK  status: ('A' for Active; 'I' for Inactive)
REMARK    1  A    between atoms: C_1  and  O_2
REMARK    2  A    between atoms: O_2  and  C_3
REMARK    3  A    between atoms: C_8  and  C_9
REMARK    4  A    between atoms: N_11  and  C_12
REMARK    5  A    between atoms: C_12  and  C_13
REMARK    6  A    between atoms: C_16  and  C_17
REMARK    7  A    between atoms: C_17  and  N_18
REMARK    8  A    between atoms: N_18  and  C_19
REMARK    9  A    between atoms: N_18  and  C_20
REMARK   10  A    between atoms: C_20  and  C_21
REMARK                            x       y       z     vdW  Elec       q    Type
REMARK                         _______ _______ _______ _____ _____    ______ ____
ROOT
ATOM      1  C   UNL     1      47.461   3.409  16.778  0.00  0.00    +0.000 C 
ENDROOT
BRANCH   1   2
ATOM      2  C   UNL     1      48.915   3.694  17.047  0.00  0.00    +0.000 A 
ATOM      3  C   UNL     1      49.791   2.659  17.399  0.00  0.00    +0.000 A 
ATOM      4  C   UNL     1      51.100   2.946  17.798  0.00  0.00    +0.000 A 
ATOM      5  C   UNL     1      51.555   4.270  17.849  0.00  0.00    +0.000 A 
ATOM      6  C   UNL     1      50.694   5.298  17.442  0.00  0.00    +0.000 A 
ATOM      7  C   UNL     1      49.386   5.013  17.048  0.00  0.00    +0.000 A 
BRANCH   5   8
ATOM      8  C   UNL     1      52.900   4.613  18.460  0.00  0.00    +0.000 C 
BRANCH   8   9
ATOM      9  N   UNL     1      53.013   4.346  19.907  0.00  0.00    +0.000 NA
ATOM     10  C   UNL     1      54.351   3.854  20.247  0.00  0.00    +0.000 C 
BRANCH   9  11
ATOM     11  C   UNL     1      52.748   5.598  20.666  0.00  0.00    +0.000 C 
BRANCH  11  12
ATOM     12  C   UNL     1      51.266   5.872  20.868  0.00  0.00    +0.000 A 
ATOM     13  C   UNL     1      50.414   4.835  21.241  0.00  0.00    +0.000 A 
ATOM     14  C   UNL     1      49.042   5.060  21.238  0.00  0.00    +0.000 A 
ATOM     15  C   UNL     1      48.559   6.313  20.880  0.00  0.00    +0.000 A 
ATOM     16  C   UNL     1      49.474   7.301  20.555  0.00  0.00    +0.000 A 
ATOM     17  N   UNL     1      50.810   7.110  20.538  0.00  0.00    +0.000 NA
ENDBRANCH  11  12
ENDBRANCH   9  11
ENDBRANCH   8   9
ENDBRANCH   5   8
ENDBRANCH   1   2
BRANCH   1  20
ATOM     18  C   UNL     1      46.898   4.124  14.503  0.00  0.00    +0.000 C 
ATOM     19  O   UNL     1      47.276   3.056  14.030  0.00  0.00    +0.000 OA
ATOM     20  N   UNL     1      46.922   4.380  15.853  0.00  0.00    +0.000 N 
ATOM     21  H   UNL     1      46.847   5.342  16.159  0.00  0.00    +0.000 HD
BRANCH  18  27
ATOM     22  C   UNL     1      44.275   7.232  11.563  0.00  0.00    +0.000 A 
ATOM     23  N   UNL     1      43.103   6.564  11.478  0.00  0.00    +0.000 NA
ATOM     24  C   UNL     1      42.981   5.383  12.122  0.00  0.00    +0.000 A 
ATOM     25  C   UNL     1      43.973   4.787  12.889  0.00  0.00    +0.000 A 
ATOM     26  C   UNL     1      45.194   5.477  13.004  0.00  0.00    +0.000 A 
ATOM     27  C   UNL     1      46.455   5.234  13.661  0.00  0.00    +0.000 A 
ATOM     28  C   UNL     1      47.279   6.292  13.318  0.00  0.00    +0.000 A 
ATOM     29  N   UNL     1      46.581   7.162  12.529  0.00  0.00    +0.000 N 
ATOM     30  C   UNL     1      45.311   6.689  12.317  0.00  0.00    +0.000 A 
ATOM     31  H   UNL     1      46.938   8.022  12.132  0.00  0.00    +0.000 HD
BRANCH  22  33
ATOM     32  C   UNL     1      44.478   9.546  11.801  0.00  0.00    +0.000 C 
ATOM     33  O   UNL     1      44.455   8.434  10.909  0.00  0.00    +0.000 OA
ENDBRANCH  22  33
ENDBRANCH  18  27
ENDBRANCH   1  20
TORSDOF 8
ENDMDL
