MODEL 1
REMARK VINA RESULT:    -7.708      0.000      0.000
REMARK INTER + INTRA:         -11.432
REMARK INTER:                 -10.637
REMARK INTRA:                  -0.795
REMARK UNBOUND:                -0.795
REMARK  Name = 
REMARK  9 active torsions:
REMARK  status: ('A' for Active; 'I' for Inactive)
REMARK    1  A    between atoms: C_1  and  C_2
REMARK    2  A    between atoms: N_4  and  C_5
REMARK    3  A    between atoms: C_9  and  C_10
REMARK    4  A    between atoms: C_10  and  C_11
REMARK    5  A    between atoms: C_11  and  N_12
REMARK    6  A    between atoms: N_12  and  C_13
REMARK    7  A    between atoms: CA_16  and  C_17
REMARK    8  A    between atoms: C_17  and  OXT_19
REMARK    9  A    between atoms: C_24  and  C_25
REMARK                            x       y       z     vdW  Elec       q    Type
REMARK                         _______ _______ _______ _____ _____    ______ ____
ROOT
ATOM      1  C   UNL     1      47.667   5.233  15.328  0.00  0.00    +0.000 A 
ATOM      2  C   UNL     1      48.239   6.342  14.690  0.00  0.00    +0.000 A 
ATOM      3  C   UNL     1      47.927   6.678  13.366  0.00  0.00    +0.000 A 
ATOM      4  C   UNL     1      47.043   5.894  12.633  0.00  0.00    +0.000 A 
ATOM      5  C   UNL     1      46.476   4.760  13.216  0.00  0.00    +0.000 A 
ATOM      6  C   UNL     1      46.777   4.465  14.558  0.00  0.00    +0.000 A 
ENDROOT
BRANCH   1  10
ATOM      7  C   UNL     1      49.783   2.278  16.837  0.00  0.00    +0.000 C 
ATOM      8  C   UNL     1      48.902   2.968  17.883  0.00  0.00    +0.000 C 
ATOM      9  C   UNL     1      47.639   3.602  17.228  0.00  0.00    +0.000 C 
ATOM     10  N   UNL     1      47.956   4.911  16.638  0.00  0.00    +0.000 N 
ATOM     11  C   UNL     1      48.610   5.848  17.563  0.00  0.00    +0.000 C 
ATOM     12  C   UNL     1      49.893   5.223  18.166  0.00  0.00    +0.000 C 
ATOM     13  C   UNL     1      51.063   5.247  17.180  0.00  0.00    +0.000 C 
ATOM     14  N   UNL     1      49.679   3.880  18.760  0.00  0.00    +0.000 NA
ATOM     15  H   UNL     1      49.113   4.023  19.598  0.00  0.00    +0.000 HD
ENDBRANCH   1  10
BRANCH   5  16
ATOM     16  C   UNL     1      45.533   3.864  12.445  0.00  0.00    +0.000 C 
BRANCH  16  17
ATOM     17  C   UNL     1      44.496   4.675  11.668  0.00  0.00    +0.000 C 
BRANCH  17  18
ATOM     18  N   UNL     1      43.899   3.890  10.575  0.00  0.00    +0.000 N 
ATOM     19  H   UNL     1      43.033   4.302  10.228  0.00  0.00    +0.000 HD
BRANCH  18  20
ATOM     20  C   UNL     1      44.764   3.544   9.521  0.00  0.00    +0.000 A 
ATOM     21  C   UNL     1      45.086   2.201   9.289  0.00  0.00    +0.000 A 
ATOM     22  C   UNL     1      45.973   1.849   8.269  0.00  0.00    +0.000 A 
ATOM     23  CA  UNL     1      46.550   2.868   7.525  0.00  0.00    +0.000 A 
ATOM     24  N   UNL     1      46.324   4.189   7.739  0.00  0.00    +0.000 NA
ATOM     25  C   UNL     1      45.456   4.480   8.738  0.00  0.00    +0.000 A 
BRANCH  23  26
ATOM     26  C   UNL     1      47.492   2.564   6.406  0.00  0.00    +0.000 C 
ATOM     27  O   UNL     1      48.397   1.754   6.458  0.00  0.00    +0.000 OA
BRANCH  26  28
ATOM     28  OXT UNL     1      47.189   3.313   5.318  0.00  0.00    +0.000 OA
ATOM     29  HXT UNL     1      46.647   2.762   4.705  0.00  0.00    +0.000 HD
ENDBRANCH  26  28
ENDBRANCH  23  26
ENDBRANCH  18  20
ENDBRANCH  17  18
ENDBRANCH  16  17
ENDBRANCH   5  16
TORSDOF 7
ENDMDL
MODEL 2
REMARK VINA RESULT:    -7.372      2.827      3.879
REMARK INTER + INTRA:         -10.969
REMARK INTER:                  -9.967
REMARK INTRA:                  -1.001
REMARK UNBOUND:                -0.795
REMARK  Name = 
REMARK  9 active torsions:
REMARK  status: ('A' for Active; 'I' for Inactive)
REMARK    1  A    between atoms: C_1  and  C_2
REMARK    2  A    between atoms: N_4  and  C_5
REMARK    3  A    between atoms: C_9  and  C_10
REMARK    4  A    between atoms: C_10  and  C_11
REMARK    5  A    between atoms: C_11  and  N_12
REMARK    6  A    between atoms: N_12  and  C_13
REMARK    7  A    between atoms: CA_16  and  C_17
REMARK    8  A    between atoms: C_17  and  OXT_19
REMARK    9  A    between atoms: C_24  and  C_25
REMARK                            x       y       z     vdW  Elec       q    Type
REMARK                         _______ _______ _______ _____ _____    ______ ____
ROOT
ATOM      1  C   UNL     1      46.716   6.757  12.482  0.00  0.00    +0.000 A 
ATOM      2  C   UNL     1      46.087   7.804  11.794  0.00  0.00    +0.000 A 
ATOM      3  C   UNL     1      44.759   7.712  11.357  0.00  0.00    +0.000 A 
ATOM      4  C   UNL     1      44.026   6.551  11.581  0.00  0.00    +0.000 A 
ATOM      5  C   UNL     1      44.622   5.469  12.231  0.00  0.00    +0.000 A 
ATOM      6  C   UNL     1      45.945   5.601  12.691  0.00  0.00    +0.000 A 
ENDROOT
BRANCH   1  10
ATOM      7  C   UNL     1      49.269   9.748  12.334  0.00  0.00    +0.000 C 
ATOM      8  C   UNL     1      49.944   8.409  12.652  0.00  0.00    +0.000 C 
ATOM      9  C   UNL     1      49.141   7.215  12.056  0.00  0.00    +0.000 C 
ATOM     10  N   UNL     1      48.017   6.852  12.931  0.00  0.00    +0.000 N 
ATOM     11  C   UNL     1      48.396   6.600  14.329  0.00  0.00    +0.000 C 
ATOM     12  C   UNL     1      49.149   7.816  14.925  0.00  0.00    +0.000 C 
ATOM     13  C   UNL     1      48.198   8.955  15.299  0.00  0.00    +0.000 C 
ATOM     14  N   UNL     1      50.286   8.280  14.091  0.00  0.00    +0.000 NA
ATOM     15  H   UNL     1      51.001   7.553  14.152  0.00  0.00    +0.000 HD
ENDBRANCH   1  10
BRANCH   5  16
ATOM     16  C   UNL     1      43.870   4.179  12.467  0.00  0.00    +0.000 C 
BRANCH  16  17
ATOM     17  C   UNL     1      44.372   3.060  11.554  0.00  0.00    +0.000 C 
BRANCH  17  18
ATOM     18  N   UNL     1      43.995   3.294  10.151  0.00  0.00    +0.000 N 
ATOM     19  H   UNL     1      43.602   4.224  10.003  0.00  0.00    +0.000 HD
BRANCH  18  20
ATOM     20  C   UNL     1      44.977   2.992   9.189  0.00  0.00    +0.000 A 
ATOM     21  C   UNL     1      45.461   3.994   8.340  0.00  0.00    +0.000 A 
ATOM     22  C   UNL     1      46.406   3.697   7.356  0.00  0.00    +0.000 A 
ATOM     23  CA  UNL     1      46.818   2.379   7.224  0.00  0.00    +0.000 A 
ATOM     24  N   UNL     1      46.344   1.352   7.976  0.00  0.00    +0.000 NA
ATOM     25  C   UNL     1      45.428   1.692   8.916  0.00  0.00    +0.000 A 
BRANCH  23  26
ATOM     26  C   UNL     1      47.841   1.991   6.207  0.00  0.00    +0.000 C 
ATOM     27  O   UNL     1      47.687   1.140   5.353  0.00  0.00    +0.000 OA
BRANCH  26  28
ATOM     28  OXT UNL     1      48.965   2.732   6.362  0.00  0.00    +0.000 OA
ATOM     29  HXT UNL     1      49.621   2.197   6.870  0.00  0.00    +0.000 HD
ENDBRANCH  26  28
ENDBRANCH  23  26
ENDBRANCH  18  20
ENDBRANCH  17  18
ENDBRANCH  16  17
ENDBRANCH   5  16
TORSDOF 7
ENDMDL
MODEL 3
REMARK VINA RESULT:    -7.323      2.748      3.914
REMARK INTER + INTRA:         -10.900
REMARK INTER:                 -10.039
REMARK INTRA:                  -0.861
REMARK UNBOUND:                -0.795
REMARK  Name = 
REMARK  9 active torsions:
REMARK  status: ('A' for Active; 'I' for Inactive)
REMARK    1  A    between atoms: C_1  and  C_2
REMARK    2  A    between atoms: N_4  and  C_5
REMARK    3  A    between atoms: C_9  and  C_10
REMARK    4  A    between atoms: C_10  and  C_11
REMARK    5  A    between atoms: C_11  and  N_12
REMARK    6  A    between atoms: N_12  and  C_13
REMARK    7  A    between atoms: CA_16  and  C_17
REMARK    8  A    between atoms: C_17  and  OXT_19
REMARK    9  A    between atoms: C_24  and  C_25
REMARK                            x       y       z     vdW  Elec       q    Type
REMARK                         _______ _______ _______ _____ _____    ______ ____
ROOT
ATOM      1  C   UNL     1      46.956   6.828  13.183  0.00  0.00    +0.000 A 
ATOM      2  C   UNL     1      47.490   5.691  13.806  0.00  0.00    +0.000 A 
ATOM      3  C   UNL     1      46.804   4.470  13.830  0.00  0.00    +0.000 A 
ATOM      4  C   UNL     1      45.548   4.358  13.245  0.00  0.00    +0.000 A 
ATOM      5  C   UNL     1      44.962   5.473  12.643  0.00  0.00    +0.000 A 
ATOM      6  C   UNL     1      45.686   6.678  12.600  0.00  0.00    +0.000 A 
ENDROOT
BRANCH   1  10
ATOM      7  C   UNL     1      50.472   7.837  14.635  0.00  0.00    +0.000 C 
ATOM      8  C   UNL     1      49.620   9.051  14.250  0.00  0.00    +0.000 C 
ATOM      9  C   UNL     1      48.100   8.729  14.346  0.00  0.00    +0.000 C 
ATOM     10  N   UNL     1      47.637   8.028  13.139  0.00  0.00    +0.000 N 
ATOM     11  C   UNL     1      47.963   8.712  11.880  0.00  0.00    +0.000 C 
ATOM     12  C   UNL     1      49.486   8.980  11.775  0.00  0.00    +0.000 C 
ATOM     13  C   UNL     1      50.267   7.722  11.392  0.00  0.00    +0.000 C 
ATOM     14  N   UNL     1      50.054   9.659  12.966  0.00  0.00    +0.000 NA
ATOM     15  H   UNL     1      49.682  10.611  12.959  0.00  0.00    +0.000 HD
ENDBRANCH   1  10
BRANCH   5  16
ATOM     16  C   UNL     1      43.585   5.403  12.022  0.00  0.00    +0.000 C 
BRANCH  16  17
ATOM     17  C   UNL     1      43.658   5.074  10.530  0.00  0.00    +0.000 C 
BRANCH  17  18
ATOM     18  N   UNL     1      43.906   3.641  10.301  0.00  0.00    +0.000 N 
ATOM     19  H   UNL     1      43.043   3.101  10.244  0.00  0.00    +0.000 HD
BRANCH  18  20
ATOM     20  C   UNL     1      44.781   3.327   9.245  0.00  0.00    +0.000 A 
ATOM     21  C   UNL     1      45.239   2.014   9.079  0.00  0.00    +0.000 A 
ATOM     22  C   UNL     1      46.138   1.699   8.057  0.00  0.00    +0.000 A 
ATOM     23  CA  UNL     1      46.588   2.728   7.244  0.00  0.00    +0.000 A 
ATOM     24  N   UNL     1      46.228   4.029   7.390  0.00  0.00    +0.000 NA
ATOM     25  C   UNL     1      45.355   4.284   8.395  0.00  0.00    +0.000 A 
BRANCH  23  26
ATOM     26  C   UNL     1      47.534   2.461   6.119  0.00  0.00    +0.000 C 
ATOM     27  O   UNL     1      47.216   2.031   5.028  0.00  0.00    +0.000 OA
BRANCH  26  28
ATOM     28  OXT UNL     1      48.801   2.777   6.483  0.00  0.00    +0.000 OA
ATOM     29  HXT UNL     1      49.374   1.989   6.325  0.00  0.00    +0.000 HD
ENDBRANCH  26  28
ENDBRANCH  23  26
ENDBRANCH  18  20
ENDBRANCH  17  18
ENDBRANCH  16  17
ENDBRANCH   5  16
TORSDOF 7
ENDMDL
MODEL 4
REMARK VINA RESULT:    -7.176      3.680      4.674
REMARK INTER + INTRA:         -10.697
REMARK INTER:                  -9.865
REMARK INTRA:                  -0.833
REMARK UNBOUND:                -0.795
REMARK  Name = 
REMARK  9 active torsions:
REMARK  status: ('A' for Active; 'I' for Inactive)
REMARK    1  A    between atoms: C_1  and  C_2
REMARK    2  A    between atoms: N_4  and  C_5
REMARK    3  A    between atoms: C_9  and  C_10
REMARK    4  A    between atoms: C_10  and  C_11
REMARK    5  A    between atoms: C_11  and  N_12
REMARK    6  A    between atoms: N_12  and  C_13
REMARK    7  A    between atoms: CA_16  and  C_17
REMARK    8  A    between atoms: C_17  and  OXT_19
REMARK    9  A    between atoms: C_24  and  C_25
REMARK                            x       y       z     vdW  Elec       q    Type
REMARK                         _______ _______ _______ _____ _____    ______ ____
ROOT
ATOM      1  C   UNL     1      47.312   8.405  12.521  0.00  0.00    +0.000 A 
ATOM      2  C   UNL     1      46.317   9.332  12.181  0.00  0.00    +0.000 A 
ATOM      3  C   UNL     1      45.051   8.931  11.736  0.00  0.00    +0.000 A 
ATOM      4  C   UNL     1      44.752   7.579  11.599  0.00  0.00    +0.000 A 
ATOM      5  C   UNL     1      45.722   6.621  11.894  0.00  0.00    +0.000 A 
ATOM      6  C   UNL     1      46.973   7.049  12.373  0.00  0.00    +0.000 A 
ENDROOT
BRANCH   1  10
ATOM      7  C   UNL     1      50.905   7.791  11.038  0.00  0.00    +0.000 C 
ATOM      8  C   UNL     1      50.939   8.257  12.498  0.00  0.00    +0.000 C 
ATOM      9  C   UNL     1      49.641   7.846  13.253  0.00  0.00    +0.000 C 
ATOM     10  N   UNL     1      48.553   8.797  12.979  0.00  0.00    +0.000 N 
ATOM     11  C   UNL     1      48.901  10.202  13.234  0.00  0.00    +0.000 C 
ATOM     12  C   UNL     1      50.164  10.611  12.435  0.00  0.00    +0.000 C 
ATOM     13  C   UNL     1      49.855  10.866  10.959  0.00  0.00    +0.000 C 
ATOM     14  N   UNL     1      51.312   9.689  12.622  0.00  0.00    +0.000 NA
ATOM     15  H   UNL     1      51.632   9.819  13.584  0.00  0.00    +0.000 HD
ENDBRANCH   1  10
BRANCH   5  16
ATOM     16  C   UNL     1      45.448   5.143  11.730  0.00  0.00    +0.000 C 
BRANCH  16  17
ATOM     17  C   UNL     1      43.989   4.881  11.353  0.00  0.00    +0.000 C 
BRANCH  17  18
ATOM     18  N   UNL     1      43.822   4.739   9.897  0.00  0.00    +0.000 N 
ATOM     19  H   UNL     1      43.810   5.639   9.417  0.00  0.00    +0.000 HD
BRANCH  18  20
ATOM     20  C   UNL     1      44.687   3.828   9.263  0.00  0.00    +0.000 A 
ATOM     21  C   UNL     1      45.559   4.270   8.261  0.00  0.00    +0.000 A 
ATOM     22  C   UNL     1      46.394   3.368   7.597  0.00  0.00    +0.000 A 
ATOM     23  CA  UNL     1      46.303   2.025   7.933  0.00  0.00    +0.000 A 
ATOM     24  N   UNL     1      45.437   1.527   8.853  0.00  0.00    +0.000 NA
ATOM     25  C   UNL     1      44.649   2.442   9.469  0.00  0.00    +0.000 A 
BRANCH  23  26
ATOM     26  C   UNL     1      47.179   1.008   7.279  0.00  0.00    +0.000 C 
ATOM     27  O   UNL     1      48.035   1.254   6.453  0.00  0.00    +0.000 OA
BRANCH  26  28
ATOM     28  OXT UNL     1      46.892  -0.232   7.746  0.00  0.00    +0.000 OA
ATOM     29  HXT UNL     1      45.945  -0.248   8.021  0.00  0.00    +0.000 HD
ENDBRANCH  26  28
ENDBRANCH  23  26
ENDBRANCH  18  20
ENDBRANCH  17  18
ENDBRANCH  16  17
ENDBRANCH   5  16
TORSDOF 7
ENDMDL
MODEL 5
REMARK VINA RESULT:    -6.859      2.569      3.671
REMARK INTER + INTRA:         -10.261
REMARK INTER:                  -9.390
REMARK INTRA:                  -0.871
REMARK UNBOUND:                -0.795
REMARK  Name = 
REMARK  9 active torsions:
REMARK  status: ('A' for Active; 'I' for Inactive)
REMARK    1  A    between atoms: C_1  and  C_2
REMARK    2  A    between atoms: N_4  and  C_5
REMARK    3  A    between atoms: C_9  and  C_10
REMARK    4  A    between atoms: C_10  and  C_11
REMARK    5  A    between atoms: C_11  and  N_12
REMARK    6  A    between atoms: N_12  and  C_13
REMARK    7  A    between atoms: CA_16  and  C_17
REMARK    8  A    between atoms: C_17  and  OXT_19
REMARK    9  A    between atoms: C_24  and  C_25
REMARK                            x       y       z     vdW  Elec       q    Type
REMARK                         _______ _______ _______ _____ _____    ______ ____
ROOT
ATOM      1  C   UNL     1      48.843   6.075  16.023  0.00  0.00    +0.000 A 
ATOM      2  C   UNL     1      50.051   6.763  16.206  0.00  0.00    +0.000 A 
ATOM      3  C   UNL     1      50.600   7.574  15.204  0.00  0.00    +0.000 A 
ATOM      4  C   UNL     1      49.961   7.701  13.976  0.00  0.00    +0.000 A 
ATOM      5  C   UNL     1      48.775   7.007  13.736  0.00  0.00    +0.000 A 
ATOM      6  C   UNL     1      48.225   6.229  14.770  0.00  0.00    +0.000 A 
ENDROOT
BRANCH   1  10
ATOM      7  C   UNL     1      49.574   2.350  17.061  0.00  0.00    +0.000 C 
ATOM      8  C   UNL     1      48.260   2.880  17.645  0.00  0.00    +0.000 C 
ATOM      9  C   UNL     1      47.650   3.995  16.745  0.00  0.00    +0.000 C 
ATOM     10  N   UNL     1      48.288   5.292  17.015  0.00  0.00    +0.000 N 
ATOM     11  C   UNL     1      48.286   5.684  18.431  0.00  0.00    +0.000 C 
ATOM     12  C   UNL     1      48.943   4.588  19.308  0.00  0.00    +0.000 C 
ATOM     13  C   UNL     1      50.470   4.615  19.215  0.00  0.00    +0.000 C 
ATOM     14  N   UNL     1      48.385   3.231  19.083  0.00  0.00    +0.000 NA
ATOM     15  H   UNL     1      47.435   3.246  19.458  0.00  0.00    +0.000 HD
ENDBRANCH   1  10
BRANCH   5  16
ATOM     16  C   UNL     1      48.064   7.095  12.404  0.00  0.00    +0.000 C 
BRANCH  16  17
ATOM     17  C   UNL     1      46.957   8.150  12.426  0.00  0.00    +0.000 C 
BRANCH  17  18
ATOM     18  N   UNL     1      45.720   7.626  13.029  0.00  0.00    +0.000 N 
ATOM     19  H   UNL     1      44.987   8.333  13.090  0.00  0.00    +0.000 HD
BRANCH  18  20
ATOM     20  C   UNL     1      45.232   6.422  12.490  0.00  0.00    +0.000 A 
ATOM     21  C   UNL     1      45.090   5.293  13.305  0.00  0.00    +0.000 A 
ATOM     22  C   UNL     1      44.642   4.082  12.772  0.00  0.00    +0.000 A 
ATOM     23  CA  UNL     1      44.383   4.026  11.410  0.00  0.00    +0.000 A 
ATOM     24  N   UNL     1      44.557   5.068  10.557  0.00  0.00    +0.000 NA
ATOM     25  C   UNL     1      44.992   6.220  11.123  0.00  0.00    +0.000 A 
BRANCH  23  26
ATOM     26  C   UNL     1      43.883   2.770  10.774  0.00  0.00    +0.000 C 
ATOM     27  O   UNL     1      44.250   2.339   9.699  0.00  0.00    +0.000 OA
BRANCH  26  28
ATOM     28  OXT UNL     1      42.967   2.169  11.573  0.00  0.00    +0.000 OA
ATOM     29  HXT UNL     1      42.147   2.719  11.570  0.00  0.00    +0.000 HD
ENDBRANCH  26  28
ENDBRANCH  23  26
ENDBRANCH  18  20
ENDBRANCH  17  18
ENDBRANCH  16  17
ENDBRANCH   5  16
TORSDOF 7
ENDMDL
MODEL 6
REMARK VINA RESULT:    -6.854      2.818      4.600
REMARK INTER + INTRA:         -10.253
REMARK INTER:                  -9.419
REMARK INTRA:                  -0.835
REMARK UNBOUND:                -0.795
REMARK  Name = 
REMARK  9 active torsions:
REMARK  status: ('A' for Active; 'I' for Inactive)
REMARK    1  A    between atoms: C_1  and  C_2
REMARK    2  A    between atoms: N_4  and  C_5
REMARK    3  A    between atoms: C_9  and  C_10
REMARK    4  A    between atoms: C_10  and  C_11
REMARK    5  A    between atoms: C_11  and  N_12
REMARK    6  A    between atoms: N_12  and  C_13
REMARK    7  A    between atoms: CA_16  and  C_17
REMARK    8  A    between atoms: C_17  and  OXT_19
REMARK    9  A    between atoms: C_24  and  C_25
REMARK                            x       y       z     vdW  Elec       q    Type
REMARK                         _______ _______ _______ _____ _____    ______ ____
ROOT
ATOM      1  C   UNL     1      50.618   5.743  17.071  0.00  0.00    +0.000 A 
ATOM      2  C   UNL     1      51.948   6.141  16.875  0.00  0.00    +0.000 A 
ATOM      3  C   UNL     1      52.296   7.127  15.943  0.00  0.00    +0.000 A 
ATOM      4  C   UNL     1      51.317   7.731  15.161  0.00  0.00    +0.000 A 
ATOM      5  C   UNL     1      49.983   7.342  15.298  0.00  0.00    +0.000 A 
ATOM      6  C   UNL     1      49.655   6.376  16.266  0.00  0.00    +0.000 A 
ENDROOT
BRANCH   1  10
ATOM      7  C   UNL     1      47.849   5.778  19.869  0.00  0.00    +0.000 C 
ATOM      8  C   UNL     1      48.882   4.665  20.072  0.00  0.00    +0.000 C 
ATOM      9  C   UNL     1      50.258   5.048  19.450  0.00  0.00    +0.000 C 
ATOM     10  N   UNL     1      50.268   4.787  18.003  0.00  0.00    +0.000 N 
ATOM     11  C   UNL     1      49.873   3.421  17.632  0.00  0.00    +0.000 C 
ATOM     12  C   UNL     1      48.480   3.072  18.214  0.00  0.00    +0.000 C 
ATOM     13  C   UNL     1      47.344   3.710  17.411  0.00  0.00    +0.000 C 
ATOM     14  N   UNL     1      48.360   3.333  19.671  0.00  0.00    +0.000 NA
ATOM     15  H   UNL     1      48.951   2.642  20.136  0.00  0.00    +0.000 HD
ENDBRANCH   1  10
BRANCH   5  16
ATOM     16  C   UNL     1      48.892   7.952  14.447  0.00  0.00    +0.000 C 
BRANCH  16  17
ATOM     17  C   UNL     1      48.246   6.912  13.531  0.00  0.00    +0.000 C 
BRANCH  17  18
ATOM     18  N   UNL     1      46.780   6.911  13.660  0.00  0.00    +0.000 N 
ATOM     19  H   UNL     1      46.371   7.827  13.475  0.00  0.00    +0.000 HD
BRANCH  18  20
ATOM     20  C   UNL     1      46.100   5.893  12.966  0.00  0.00    +0.000 A 
ATOM     21  C   UNL     1      45.569   6.144  11.695  0.00  0.00    +0.000 A 
ATOM     22  C   UNL     1      44.859   5.154  11.013  0.00  0.00    +0.000 A 
ATOM     23  CA  UNL     1      44.665   3.936  11.648  0.00  0.00    +0.000 A 
ATOM     24  N   UNL     1      45.103   3.651  12.901  0.00  0.00    +0.000 NA
ATOM     25  C   UNL     1      45.786   4.644  13.521  0.00  0.00    +0.000 A 
BRANCH  23  26
ATOM     26  C   UNL     1      43.932   2.824  10.971  0.00  0.00    +0.000 C 
ATOM     27  O   UNL     1      43.956   2.600   9.777  0.00  0.00    +0.000 OA
BRANCH  26  28
ATOM     28  OXT UNL     1      43.244   2.090  11.879  0.00  0.00    +0.000 OA
ATOM     29  HXT UNL     1      43.665   2.217  12.763  0.00  0.00    +0.000 HD
ENDBRANCH  26  28
ENDBRANCH  23  26
ENDBRANCH  18  20
ENDBRANCH  17  18
ENDBRANCH  16  17
ENDBRANCH   5  16
TORSDOF 7
ENDMDL
MODEL 7
REMARK VINA RESULT:    -6.814      2.448      3.923
REMARK INTER + INTRA:         -10.197
REMARK INTER:                  -9.393
REMARK INTRA:                  -0.804
REMARK UNBOUND:                -0.795
REMARK  Name = 
REMARK  9 active torsions:
REMARK  status: ('A' for Active; 'I' for Inactive)
REMARK    1  A    between atoms: C_1  and  C_2
REMARK    2  A    between atoms: N_4  and  C_5
REMARK    3  A    between atoms: C_9  and  C_10
REMARK    4  A    between atoms: C_10  and  C_11
REMARK    5  A    between atoms: C_11  and  N_12
REMARK    6  A    between atoms: N_12  and  C_13
REMARK    7  A    between atoms: CA_16  and  C_17
REMARK    8  A    between atoms: C_17  and  OXT_19
REMARK    9  A    between atoms: C_24  and  C_25
REMARK                            x       y       z     vdW  Elec       q    Type
REMARK                         _______ _______ _______ _____ _____    ______ ____
ROOT
ATOM      1  C   UNL     1      47.917   6.410  13.865  0.00  0.00    +0.000 A 
ATOM      2  C   UNL     1      47.793   5.269  14.671  0.00  0.00    +0.000 A 
ATOM      3  C   UNL     1      46.680   4.423  14.593  0.00  0.00    +0.000 A 
ATOM      4  C   UNL     1      45.642   4.710  13.713  0.00  0.00    +0.000 A 
ATOM      5  C   UNL     1      45.705   5.853  12.915  0.00  0.00    +0.000 A 
ATOM      6  C   UNL     1      46.850   6.666  12.986  0.00  0.00    +0.000 A 
ENDROOT
BRANCH   1  10
ATOM      7  C   UNL     1      48.341  10.205  12.915  0.00  0.00    +0.000 C 
ATOM      8  C   UNL     1      49.682   9.480  13.066  0.00  0.00    +0.000 C 
ATOM      9  C   UNL     1      49.541   7.960  12.756  0.00  0.00    +0.000 C 
ATOM     10  N   UNL     1      49.022   7.234  13.924  0.00  0.00    +0.000 N 
ATOM     11  C   UNL     1      49.779   7.461  15.163  0.00  0.00    +0.000 C 
ATOM     12  C   UNL     1      49.867   8.974  15.487  0.00  0.00    +0.000 C 
ATOM     13  C   UNL     1      48.564   9.511  16.084  0.00  0.00    +0.000 C 
ATOM     14  N   UNL     1      50.353   9.799  14.353  0.00  0.00    +0.000 NA
ATOM     15  H   UNL     1      51.339   9.563  14.228  0.00  0.00    +0.000 HD
ENDBRANCH   1  10
BRANCH   5  16
ATOM     16  C   UNL     1      44.585   6.217  11.966  0.00  0.00    +0.000 C 
BRANCH  16  17
ATOM     17  C   UNL     1      45.007   6.049  10.506  0.00  0.00    +0.000 C 
BRANCH  17  18
ATOM     18  N   UNL     1      44.237   4.989   9.837  0.00  0.00    +0.000 N 
ATOM     19  H   UNL     1      43.509   5.362   9.228  0.00  0.00    +0.000 HD
BRANCH  18  20
ATOM     20  C   UNL     1      44.991   3.994   9.188  0.00  0.00    +0.000 A 
ATOM     21  C   UNL     1      45.783   4.323   8.081  0.00  0.00    +0.000 A 
ATOM     22  C   UNL     1      46.505   3.336   7.405  0.00  0.00    +0.000 A 
ATOM     23  CA  UNL     1      46.383   2.025   7.841  0.00  0.00    +0.000 A 
ATOM     24  N   UNL     1      45.587   1.634   8.870  0.00  0.00    +0.000 NA
ATOM     25  C   UNL     1      44.908   2.628   9.492  0.00  0.00    +0.000 A 
BRANCH  23  26
ATOM     26  C   UNL     1      47.141   0.921   7.179  0.00  0.00    +0.000 C 
ATOM     27  O   UNL     1      47.886   1.060   6.228  0.00  0.00    +0.000 OA
BRANCH  26  28
ATOM     28  OXT UNL     1      46.891  -0.259   7.796  0.00  0.00    +0.000 OA
ATOM     29  HXT UNL     1      47.634  -0.446   8.418  0.00  0.00    +0.000 HD
ENDBRANCH  26  28
ENDBRANCH  23  26
ENDBRANCH  18  20
ENDBRANCH  17  18
ENDBRANCH  16  17
ENDBRANCH   5  16
TORSDOF 7
ENDMDL
MODEL 8
REMARK VINA RESULT:    -6.746      3.915      7.951
REMARK INTER + INTRA:         -10.104
REMARK INTER:                  -8.869
REMARK INTRA:                  -1.235
REMARK UNBOUND:                -0.795
REMARK  Name = 
REMARK  9 active torsions:
REMARK  status: ('A' for Active; 'I' for Inactive)
REMARK    1  A    between atoms: C_1  and  C_2
REMARK    2  A    between atoms: N_4  and  C_5
REMARK    3  A    between atoms: C_9  and  C_10
REMARK    4  A    between atoms: C_10  and  C_11
REMARK    5  A    between atoms: C_11  and  N_12
REMARK    6  A    between atoms: N_12  and  C_13
REMARK    7  A    between atoms: CA_16  and  C_17
REMARK    8  A    between atoms: C_17  and  OXT_19
REMARK    9  A    between atoms: C_24  and  C_25
REMARK                            x       y       z     vdW  Elec       q    Type
REMARK                         _______ _______ _______ _____ _____    ______ ____
ROOT
ATOM      1  C   UNL     1      45.324   7.062  11.436  0.00  0.00    +0.000 A 
ATOM      2  C   UNL     1      44.659   8.175  11.969  0.00  0.00    +0.000 A 
ATOM      3  C   UNL     1      45.351   9.306  12.420  0.00  0.00    +0.000 A 
ATOM      4  C   UNL     1      46.741   9.344  12.370  0.00  0.00    +0.000 A 
ATOM      5  C   UNL     1      47.447   8.245  11.880  0.00  0.00    +0.000 A 
ATOM      6  C   UNL     1      46.727   7.137  11.399  0.00  0.00    +0.000 A 
ENDROOT
BRANCH   1  10
ATOM      7  C   UNL     1      45.648   3.260  12.403  0.00  0.00    +0.000 C 
ATOM      8  C   UNL     1      44.878   3.475  11.096  0.00  0.00    +0.000 C 
ATOM      9  C   UNL     1      45.323   4.788  10.386  0.00  0.00    +0.000 C 
ATOM     10  N   UNL     1      44.645   5.954  10.972  0.00  0.00    +0.000 N 
ATOM     11  C   UNL     1      43.180   5.840  11.022  0.00  0.00    +0.000 C 
ATOM     12  C   UNL     1      42.752   4.556  11.775  0.00  0.00    +0.000 C 
ATOM     13  C   UNL     1      42.877   4.710  13.293  0.00  0.00    +0.000 C 
ATOM     14  N   UNL     1      43.412   3.324  11.275  0.00  0.00    +0.000 NA
ATOM     15  H   UNL     1      43.025   3.148  10.346  0.00  0.00    +0.000 HD
ENDBRANCH   1  10
BRANCH   5  16
ATOM     16  C   UNL     1      48.959   8.235  11.835  0.00  0.00    +0.000 C 
BRANCH  16  17
ATOM     17  C   UNL     1      49.543   7.205  12.803  0.00  0.00    +0.000 C 
BRANCH  17  18
ATOM     18  N   UNL     1      49.378   7.623  14.204  0.00  0.00    +0.000 N 
ATOM     19  H   UNL     1      48.817   8.470  14.295  0.00  0.00    +0.000 HD
BRANCH  18  20
ATOM     20  C   UNL     1      48.952   6.625  15.100  0.00  0.00    +0.000 A 
ATOM     21  C   UNL     1      49.528   6.532  16.373  0.00  0.00    +0.000 A 
ATOM     22  C   UNL     1      49.140   5.521  17.256  0.00  0.00    +0.000 A 
ATOM     23  CA  UNL     1      48.202   4.598  16.819  0.00  0.00    +0.000 A 
ATOM     24  N   UNL     1      47.651   4.599  15.578  0.00  0.00    +0.000 NA
ATOM     25  C   UNL     1      48.059   5.599  14.759  0.00  0.00    +0.000 A 
BRANCH  23  26
ATOM     26  C   UNL     1      47.726   3.502  17.716  0.00  0.00    +0.000 C 
ATOM     27  O   UNL     1      48.391   2.978  18.588  0.00  0.00    +0.000 OA
BRANCH  26  28
ATOM     28  OXT UNL     1      46.441   3.183  17.430  0.00  0.00    +0.000 OA
ATOM     29  HXT UNL     1      46.429   2.677  16.582  0.00  0.00    +0.000 HD
ENDBRANCH  26  28
ENDBRANCH  23  26
ENDBRANCH  18  20
ENDBRANCH  17  18
ENDBRANCH  16  17
ENDBRANCH   5  16
TORSDOF 7
ENDMDL
MODEL 9
REMARK VINA RESULT:    -6.703      4.933      7.685
REMARK INTER + INTRA:         -10.045
REMARK INTER:                  -8.906
REMARK INTRA:                  -1.138
REMARK UNBOUND:                -0.795
REMARK  Name = 
REMARK  9 active torsions:
REMARK  status: ('A' for Active; 'I' for Inactive)
REMARK    1  A    between atoms: C_1  and  C_2
REMARK    2  A    between atoms: N_4  and  C_5
REMARK    3  A    between atoms: C_9  and  C_10
REMARK    4  A    between atoms: C_10  and  C_11
REMARK    5  A    between atoms: C_11  and  N_12
REMARK    6  A    between atoms: N_12  and  C_13
REMARK    7  A    between atoms: CA_16  and  C_17
REMARK    8  A    between atoms: C_17  and  OXT_19
REMARK    9  A    between atoms: C_24  and  C_25
REMARK                            x       y       z     vdW  Elec       q    Type
REMARK                         _______ _______ _______ _____ _____    ______ ____
ROOT
ATOM      1  C   UNL     1      46.123   5.318  13.249  0.00  0.00    +0.000 A 
ATOM      2  C   UNL     1      47.007   5.080  14.311  0.00  0.00    +0.000 A 
ATOM      3  C   UNL     1      48.033   5.976  14.636  0.00  0.00    +0.000 A 
ATOM      4  C   UNL     1      48.217   7.133  13.887  0.00  0.00    +0.000 A 
ATOM      5  C   UNL     1      47.383   7.395  12.799  0.00  0.00    +0.000 A 
ATOM      6  C   UNL     1      46.337   6.498  12.516  0.00  0.00    +0.000 A 
ENDROOT
BRANCH   1  10
ATOM      7  C   UNL     1      42.745   5.917  11.321  0.00  0.00    +0.000 C 
ATOM      8  C   UNL     1      42.753   4.602  12.106  0.00  0.00    +0.000 C 
ATOM      9  C   UNL     1      43.702   4.684  13.338  0.00  0.00    +0.000 C 
ATOM     10  N   UNL     1      45.097   4.448  12.939  0.00  0.00    +0.000 N 
ATOM     11  C   UNL     1      45.308   3.208  12.180  0.00  0.00    +0.000 C 
ATOM     12  C   UNL     1      44.395   3.164  10.929  0.00  0.00    +0.000 C 
ATOM     13  C   UNL     1      44.925   4.047   9.797  0.00  0.00    +0.000 C 
ATOM     14  N   UNL     1      42.964   3.423  11.227  0.00  0.00    +0.000 NA
ATOM     15  H   UNL     1      42.628   2.612  11.749  0.00  0.00    +0.000 HD
ENDBRANCH   1  10
BRANCH   5  16
ATOM     16  C   UNL     1      47.568   8.626  11.941  0.00  0.00    +0.000 C 
BRANCH  16  17
ATOM     17  C   UNL     1      46.826   9.831  12.520  0.00  0.00    +0.000 C 
BRANCH  17  18
ATOM     18  N   UNL     1      46.233  10.664  11.462  0.00  0.00    +0.000 N 
ATOM     19  H   UNL     1      46.704  10.547  10.564  0.00  0.00    +0.000 HD
BRANCH  18  20
ATOM     20  C   UNL     1      44.835  10.584  11.323  0.00  0.00    +0.000 A 
ATOM     21  C   UNL     1      44.238   9.390  10.901  0.00  0.00    +0.000 A 
ATOM     22  C   UNL     1      42.855   9.312  10.722  0.00  0.00    +0.000 A 
ATOM     23  CA  UNL     1      42.102  10.457  10.939  0.00  0.00    +0.000 A 
ATOM     24  N   UNL     1      42.628  11.658  11.293  0.00  0.00    +0.000 NA
ATOM     25  C   UNL     1      43.973  11.683  11.453  0.00  0.00    +0.000 A 
BRANCH  23  26
ATOM     26  C   UNL     1      40.617  10.441  10.787  0.00  0.00    +0.000 C 
ATOM     27  O   UNL     1      39.976  11.231  10.123  0.00  0.00    +0.000 OA
BRANCH  26  28
ATOM     28  OXT UNL     1      40.082   9.411  11.487  0.00  0.00    +0.000 OA
ATOM     29  HXT UNL     1      40.758   8.695  11.550  0.00  0.00    +0.000 HD
ENDBRANCH  26  28
ENDBRANCH  23  26
ENDBRANCH  18  20
ENDBRANCH  17  18
ENDBRANCH  16  17
ENDBRANCH   5  16
TORSDOF 7
ENDMDL
