MODEL 1
REMARK VINA RESULT:    -7.992      0.000      0.000
REMARK INTER + INTRA:         -12.476
REMARK INTER:                 -11.730
REMARK INTRA:                  -0.746
REMARK UNBOUND:                -0.746
REMARK  Name = 
REMARK  8 active torsions:
REMARK  status: ('A' for Active; 'I' for Inactive)
REMARK    1  A    between atoms: C_2  and  C_23
REMARK    2  A    between atoms: N_3  and  C_4
REMARK    3  A    between atoms: C_4  and  C_5
REMARK    4  A    between atoms: C_8  and  C_9
REMARK    5  A    between atoms: C_9  and  O_10
REMARK    6  A    between atoms: O_10  and  C_11
REMARK    7  A    between atoms: C_11  and  C_12
REMARK    8  A    between atoms: C_17  and  N_18
REMARK                            x       y       z     vdW  Elec       q    Type
REMARK                         _______ _______ _______ _____ _____    ______ ____
ROOT
ATOM      1  C   UNL     1      46.538   7.541  12.792  0.00  0.00    +0.000 A 
ATOM      2  C   UNL     1      46.690   8.728  13.518  0.00  0.00    +0.000 A 
ATOM      3  C   UNL     1      47.639   8.820  14.537  0.00  0.00    +0.000 A 
ATOM      4  C   UNL     1      48.455   7.724  14.851  0.00  0.00    +0.000 A 
ATOM      5  C   UNL     1      48.335   6.551  14.095  0.00  0.00    +0.000 A 
ATOM      6  C   UNL     1      47.388   6.461  13.071  0.00  0.00    +0.000 A 
ENDROOT
BRANCH   1   7
ATOM      7  C   UNL     1      45.480   7.429  11.728  0.00  0.00    +0.000 C 
BRANCH   7  10
ATOM      8  O   UNL     1      43.327   5.697  11.537  0.00  0.00    +0.000 OA
ATOM      9  C   UNL     1      44.389   5.358  11.022  0.00  0.00    +0.000 C 
ATOM     10  N   UNL     1      45.517   6.144  11.079  0.00  0.00    +0.000 N 
ATOM     11  H   UNL     1      46.347   5.884  10.571  0.00  0.00    +0.000 HD
BRANCH   9  12
ATOM     12  C   UNL     1      44.532   4.092  10.301  0.00  0.00    +0.000 A 
ATOM     13  C   UNL     1      43.980   2.864  10.631  0.00  0.00    +0.000 A 
ATOM     14  N   UNL     1      44.363   1.943   9.692  0.00  0.00    +0.000 N 
ATOM     15  C   UNL     1      45.158   2.537   8.743  0.00  0.00    +0.000 A 
ATOM     16  C   UNL     1      45.775   1.998   7.614  0.00  0.00    +0.000 A 
ATOM     17  C   UNL     1      46.513   2.904   6.871  0.00  0.00    +0.000 A 
ATOM     18 CL   UNL     1      47.338   2.386   5.456  0.00  0.00    +0.000 Cl
ATOM     19  N   UNL     1      46.662   4.213   7.153  0.00  0.00    +0.000 NA
ATOM     20  C   UNL     1      46.051   4.714   8.256  0.00  0.00    +0.000 A 
ATOM     21  C   UNL     1      45.281   3.883   9.088  0.00  0.00    +0.000 A 
ATOM     22  H   UNL     1      44.098   0.966   9.690  0.00  0.00    +0.000 HD
ENDBRANCH   9  12
ENDBRANCH   7  10
ENDBRANCH   1   7
BRANCH   4  23
ATOM     23  C   UNL     1      49.382   7.789  16.037  0.00  0.00    +0.000 C 
BRANCH  23  24
ATOM     24  O   UNL     1      49.979   6.513  16.302  0.00  0.00    +0.000 OA
BRANCH  24  25
ATOM     25  C   UNL     1      49.224   5.745  17.242  0.00  0.00    +0.000 C 
BRANCH  25  26
ATOM     26  C   UNL     1      49.651   4.302  17.180  0.00  0.00    +0.000 A 
ATOM     27  N   UNL     1      50.938   4.035  17.534  0.00  0.00    +0.000 NA
ATOM     28  C   UNL     1      51.334   2.749  17.481  0.00  0.00    +0.000 A 
ATOM     29  N   UNL     1      50.570   1.705  17.117  0.00  0.00    +0.000 NA
ATOM     30  C   UNL     1      49.299   2.001  16.771  0.00  0.00    +0.000 A 
ATOM     31  C   UNL     1      48.807   3.284  16.780  0.00  0.00    +0.000 A 
BRANCH  31  32
ATOM     32  N   UNL     1      47.474   3.522  16.313  0.00  0.00    +0.000 N 
ATOM     33  O   UNL     1      47.290   3.478  15.090  0.00  0.00    +0.000 OA
ATOM     34  O   UNL     1      46.593   3.676  17.169  0.00  0.00    +0.000 OA
ENDBRANCH  31  32
ENDBRANCH  25  26
ENDBRANCH  24  25
ENDBRANCH  23  24
ENDBRANCH   4  23
TORSDOF 8
ENDMDL
MODEL 2
REMARK VINA RESULT:    -7.729      1.708      2.234
REMARK INTER + INTRA:         -12.090
REMARK INTER:                 -11.080
REMARK INTRA:                  -1.010
REMARK UNBOUND:                -0.746
REMARK  Name = 
REMARK  8 active torsions:
REMARK  status: ('A' for Active; 'I' for Inactive)
REMARK    1  A    between atoms: C_2  and  C_23
REMARK    2  A    between atoms: N_3  and  C_4
REMARK    3  A    between atoms: C_4  and  C_5
REMARK    4  A    between atoms: C_8  and  C_9
REMARK    5  A    between atoms: C_9  and  O_10
REMARK    6  A    between atoms: O_10  and  C_11
REMARK    7  A    between atoms: C_11  and  C_12
REMARK    8  A    between atoms: C_17  and  N_18
REMARK                            x       y       z     vdW  Elec       q    Type
REMARK                         _______ _______ _______ _____ _____    ______ ____
ROOT
ATOM      1  C   UNL     1      46.788   7.871  13.186  0.00  0.00    +0.000 A 
ATOM      2  C   UNL     1      47.065   8.934  14.054  0.00  0.00    +0.000 A 
ATOM      3  C   UNL     1      48.233   8.940  14.818  0.00  0.00    +0.000 A 
ATOM      4  C   UNL     1      49.147   7.881  14.728  0.00  0.00    +0.000 A 
ATOM      5  C   UNL     1      48.893   6.840  13.826  0.00  0.00    +0.000 A 
ATOM      6  C   UNL     1      47.726   6.837  13.058  0.00  0.00    +0.000 A 
ENDROOT
BRANCH   1   7
ATOM      7  C   UNL     1      45.504   7.843  12.401  0.00  0.00    +0.000 C 
BRANCH   7  10
ATOM      8  O   UNL     1      43.965   5.705  13.255  0.00  0.00    +0.000 OA
ATOM      9  C   UNL     1      44.550   5.603  12.181  0.00  0.00    +0.000 C 
ATOM     10  N   UNL     1      45.350   6.605  11.682  0.00  0.00    +0.000 N 
ATOM     11  H   UNL     1      45.745   6.532  10.758  0.00  0.00    +0.000 HD
BRANCH   9  12
ATOM     12  C   UNL     1      44.435   4.406  11.344  0.00  0.00    +0.000 A 
ATOM     13  C   UNL     1      43.768   3.228  11.642  0.00  0.00    +0.000 A 
ATOM     14  N   UNL     1      43.908   2.365  10.588  0.00  0.00    +0.000 N 
ATOM     15  C   UNL     1      44.654   2.949   9.594  0.00  0.00    +0.000 A 
ATOM     16  C   UNL     1      45.052   2.454   8.353  0.00  0.00    +0.000 A 
ATOM     17  C   UNL     1      45.809   3.333   7.596  0.00  0.00    +0.000 A 
ATOM     18 CL   UNL     1      46.380   2.861   6.045  0.00  0.00    +0.000 Cl
ATOM     19  N   UNL     1      46.164   4.579   7.963  0.00  0.00    +0.000 NA
ATOM     20  C   UNL     1      45.764   5.039   9.175  0.00  0.00    +0.000 A 
ATOM     21  C   UNL     1      44.997   4.230  10.030  0.00  0.00    +0.000 A 
ATOM     22  H   UNL     1      43.517   1.432  10.541  0.00  0.00    +0.000 HD
ENDBRANCH   9  12
ENDBRANCH   7  10
ENDBRANCH   1   7
BRANCH   4  23
ATOM     23  C   UNL     1      50.337   7.832  15.652  0.00  0.00    +0.000 C 
BRANCH  23  24
ATOM     24  O   UNL     1      50.793   6.487  15.842  0.00  0.00    +0.000 OA
BRANCH  24  25
ATOM     25  C   UNL     1      50.611   6.036  17.187  0.00  0.00    +0.000 C 
BRANCH  25  26
ATOM     26  C   UNL     1      49.287   5.330  17.314  0.00  0.00    +0.000 A 
ATOM     27  N   UNL     1      49.132   4.196  16.577  0.00  0.00    +0.000 NA
ATOM     28  C   UNL     1      47.952   3.556  16.679  0.00  0.00    +0.000 A 
ATOM     29  N   UNL     1      46.917   3.931  17.448  0.00  0.00    +0.000 NA
ATOM     30  C   UNL     1      47.099   5.060  18.167  0.00  0.00    +0.000 A 
ATOM     31  C   UNL     1      48.263   5.790  18.119  0.00  0.00    +0.000 A 
BRANCH  31  32
ATOM     32  N   UNL     1      48.342   7.023  18.845  0.00  0.00    +0.000 N 
ATOM     33  O   UNL     1      47.946   8.042  18.266  0.00  0.00    +0.000 OA
ATOM     34  O   UNL     1      48.727   6.965  20.020  0.00  0.00    +0.000 OA
ENDBRANCH  31  32
ENDBRANCH  25  26
ENDBRANCH  24  25
ENDBRANCH  23  24
ENDBRANCH   4  23
TORSDOF 8
ENDMDL
MODEL 3
REMARK VINA RESULT:    -7.169      1.310      1.538
REMARK INTER + INTRA:         -11.268
REMARK INTER:                 -10.329
REMARK INTRA:                  -0.939
REMARK UNBOUND:                -0.746
REMARK  Name = 
REMARK  8 active torsions:
REMARK  status: ('A' for Active; 'I' for Inactive)
REMARK    1  A    between atoms: C_2  and  C_23
REMARK    2  A    between atoms: N_3  and  C_4
REMARK    3  A    between atoms: C_4  and  C_5
REMARK    4  A    between atoms: C_8  and  C_9
REMARK    5  A    between atoms: C_9  and  O_10
REMARK    6  A    between atoms: O_10  and  C_11
REMARK    7  A    between atoms: C_11  and  C_12
REMARK    8  A    between atoms: C_17  and  N_18
REMARK                            x       y       z     vdW  Elec       q    Type
REMARK                         _______ _______ _______ _____ _____    ______ ____
ROOT
ATOM      1  C   UNL     1      46.765   7.591  12.666  0.00  0.00    +0.000 A 
ATOM      2  C   UNL     1      46.876   8.666  13.555  0.00  0.00    +0.000 A 
ATOM      3  C   UNL     1      48.125   9.061  14.038  0.00  0.00    +0.000 A 
ATOM      4  C   UNL     1      49.287   8.386  13.642  0.00  0.00    +0.000 A 
ATOM      5  C   UNL     1      49.181   7.339  12.716  0.00  0.00    +0.000 A 
ATOM      6  C   UNL     1      47.931   6.948  12.229  0.00  0.00    +0.000 A 
ENDROOT
BRANCH   1   7
ATOM      7  C   UNL     1      45.413   7.136  12.185  0.00  0.00    +0.000 C 
BRANCH   7  10
ATOM      8  O   UNL     1      43.243   5.768  11.143  0.00  0.00    +0.000 OA
ATOM      9  C   UNL     1      44.360   5.281  10.992  0.00  0.00    +0.000 C 
ATOM     10  N   UNL     1      45.495   5.878  11.489  0.00  0.00    +0.000 N 
ATOM     11  H   UNL     1      46.405   5.505  11.273  0.00  0.00    +0.000 HD
BRANCH   9  12
ATOM     12  C   UNL     1      44.568   4.026  10.266  0.00  0.00    +0.000 A 
ATOM     13  C   UNL     1      44.097   2.766  10.602  0.00  0.00    +0.000 A 
ATOM     14  N   UNL     1      44.520   1.872   9.654  0.00  0.00    +0.000 N 
ATOM     15  C   UNL     1      45.261   2.515   8.693  0.00  0.00    +0.000 A 
ATOM     16  C   UNL     1      45.890   2.017   7.553  0.00  0.00    +0.000 A 
ATOM     17  C   UNL     1      46.559   2.968   6.800  0.00  0.00    +0.000 A 
ATOM     18 CL   UNL     1      47.390   2.503   5.369  0.00  0.00    +0.000 Cl
ATOM     19  N   UNL     1      46.632   4.283   7.083  0.00  0.00    +0.000 NA
ATOM     20  C   UNL     1      46.011   4.743   8.198  0.00  0.00    +0.000 A 
ATOM     21  C   UNL     1      45.308   3.866   9.040  0.00  0.00    +0.000 A 
ATOM     22  H   UNL     1      44.315   0.880   9.654  0.00  0.00    +0.000 HD
ENDBRANCH   9  12
ENDBRANCH   7  10
ENDBRANCH   1   7
BRANCH   4  23
ATOM     23  C   UNL     1      50.612   8.734  14.269  0.00  0.00    +0.000 C 
BRANCH  23  24
ATOM     24  O   UNL     1      51.173   7.609  14.958  0.00  0.00    +0.000 OA
BRANCH  24  25
ATOM     25  C   UNL     1      50.573   7.402  16.240  0.00  0.00    +0.000 C 
BRANCH  25  26
ATOM     26  C   UNL     1      51.051   6.098  16.822  0.00  0.00    +0.000 A 
ATOM     27  N   UNL     1      52.397   5.952  16.958  0.00  0.00    +0.000 NA
ATOM     28  C   UNL     1      52.839   4.790  17.474  0.00  0.00    +0.000 A 
ATOM     29  N   UNL     1      52.069   3.764  17.875  0.00  0.00    +0.000 NA
ATOM     30  C   UNL     1      50.738   3.937  17.727  0.00  0.00    +0.000 A 
ATOM     31  C   UNL     1      50.193   5.082  17.197  0.00  0.00    +0.000 A 
BRANCH  31  32
ATOM     32  N   UNL     1      48.777   5.148  16.992  0.00  0.00    +0.000 N 
ATOM     33  O   UNL     1      48.340   4.696  15.926  0.00  0.00    +0.000 OA
ATOM     34  O   UNL     1      48.089   5.582  17.926  0.00  0.00    +0.000 OA
ENDBRANCH  31  32
ENDBRANCH  25  26
ENDBRANCH  24  25
ENDBRANCH  23  24
ENDBRANCH   4  23
TORSDOF 8
ENDMDL
MODEL 4
REMARK VINA RESULT:    -7.140      1.599      2.314
REMARK INTER + INTRA:         -11.226
REMARK INTER:                 -10.649
REMARK INTRA:                  -0.577
REMARK UNBOUND:                -0.746
REMARK  Name = 
REMARK  8 active torsions:
REMARK  status: ('A' for Active; 'I' for Inactive)
REMARK    1  A    between atoms: C_2  and  C_23
REMARK    2  A    between atoms: N_3  and  C_4
REMARK    3  A    between atoms: C_4  and  C_5
REMARK    4  A    between atoms: C_8  and  C_9
REMARK    5  A    between atoms: C_9  and  O_10
REMARK    6  A    between atoms: O_10  and  C_11
REMARK    7  A    between atoms: C_11  and  C_12
REMARK    8  A    between atoms: C_17  and  N_18
REMARK                            x       y       z     vdW  Elec       q    Type
REMARK                         _______ _______ _______ _____ _____    ______ ____
ROOT
ATOM      1  C   UNL     1      46.996   7.844  13.140  0.00  0.00    +0.000 A 
ATOM      2  C   UNL     1      48.014   6.927  12.857  0.00  0.00    +0.000 A 
ATOM      3  C   UNL     1      49.200   6.932  13.595  0.00  0.00    +0.000 A 
ATOM      4  C   UNL     1      49.389   7.858  14.631  0.00  0.00    +0.000 A 
ATOM      5  C   UNL     1      48.351   8.745  14.945  0.00  0.00    +0.000 A 
ATOM      6  C   UNL     1      47.163   8.736  14.209  0.00  0.00    +0.000 A 
ENDROOT
BRANCH   1   7
ATOM      7  C   UNL     1      45.740   7.868  12.311  0.00  0.00    +0.000 C 
BRANCH   7  10
ATOM      8  O   UNL     1      44.143   5.782  13.188  0.00  0.00    +0.000 OA
ATOM      9  C   UNL     1      44.723   5.655  12.113  0.00  0.00    +0.000 C 
ATOM     10  N   UNL     1      45.550   6.629  11.603  0.00  0.00    +0.000 N 
ATOM     11  H   UNL     1      45.940   6.537  10.679  0.00  0.00    +0.000 HD
BRANCH   9  12
ATOM     12  C   UNL     1      44.571   4.454  11.287  0.00  0.00    +0.000 A 
ATOM     13  C   UNL     1      43.890   3.290  11.606  0.00  0.00    +0.000 A 
ATOM     14  N   UNL     1      43.995   2.417  10.555  0.00  0.00    +0.000 N 
ATOM     15  C   UNL     1      44.733   2.982   9.543  0.00  0.00    +0.000 A 
ATOM     16  C   UNL     1      45.100   2.471   8.299  0.00  0.00    +0.000 A 
ATOM     17  C   UNL     1      45.858   3.331   7.521  0.00  0.00    +0.000 A 
ATOM     18 CL   UNL     1      46.391   2.840   5.964  0.00  0.00    +0.000 Cl
ATOM     19  N   UNL     1      46.241   4.574   7.873  0.00  0.00    +0.000 NA
ATOM     20  C   UNL     1      45.871   5.049   9.089  0.00  0.00    +0.000 A 
ATOM     21  C   UNL     1      45.106   4.259   9.964  0.00  0.00    +0.000 A 
ATOM     22  H   UNL     1      43.588   1.491  10.521  0.00  0.00    +0.000 HD
ENDBRANCH   9  12
ENDBRANCH   7  10
ENDBRANCH   1   7
BRANCH   4  23
ATOM     23  C   UNL     1      50.719   7.942  15.332  0.00  0.00    +0.000 C 
BRANCH  23  24
ATOM     24  O   UNL     1      51.049   6.703  15.973  0.00  0.00    +0.000 OA
BRANCH  24  25
ATOM     25  C   UNL     1      50.264   6.472  17.146  0.00  0.00    +0.000 C 
BRANCH  25  26
ATOM     26  C   UNL     1      49.575   5.137  17.042  0.00  0.00    +0.000 A 
ATOM     27  N   UNL     1      48.350   5.132  16.448  0.00  0.00    +0.000 NA
ATOM     28  C   UNL     1      47.720   3.947  16.352  0.00  0.00    +0.000 A 
ATOM     29  N   UNL     1      48.196   2.765  16.782  0.00  0.00    +0.000 NA
ATOM     30  C   UNL     1      49.412   2.801  17.367  0.00  0.00    +0.000 A 
ATOM     31  C   UNL     1      50.126   3.966  17.524  0.00  0.00    +0.000 A 
BRANCH  31  32
ATOM     32  N   UNL     1      51.369   3.930  18.235  0.00  0.00    +0.000 N 
ATOM     33  O   UNL     1      51.434   4.578  19.288  0.00  0.00    +0.000 OA
ATOM     34  O   UNL     1      52.258   3.194  17.786  0.00  0.00    +0.000 OA
ENDBRANCH  31  32
ENDBRANCH  25  26
ENDBRANCH  24  25
ENDBRANCH  23  24
ENDBRANCH   4  23
TORSDOF 8
ENDMDL
MODEL 5
REMARK VINA RESULT:    -6.955      2.888      3.839
REMARK INTER + INTRA:         -10.953
REMARK INTER:                  -9.822
REMARK INTRA:                  -1.132
REMARK UNBOUND:                -0.746
REMARK  Name = 
REMARK  8 active torsions:
REMARK  status: ('A' for Active; 'I' for Inactive)
REMARK    1  A    between atoms: C_2  and  C_23
REMARK    2  A    between atoms: N_3  and  C_4
REMARK    3  A    between atoms: C_4  and  C_5
REMARK    4  A    between atoms: C_8  and  C_9
REMARK    5  A    between atoms: C_9  and  O_10
REMARK    6  A    between atoms: O_10  and  C_11
REMARK    7  A    between atoms: C_11  and  C_12
REMARK    8  A    between atoms: C_17  and  N_18
REMARK                            x       y       z     vdW  Elec       q    Type
REMARK                         _______ _______ _______ _____ _____    ______ ____
ROOT
ATOM      1  C   UNL     1      48.887   9.521  14.809  0.00  0.00    +0.000 A 
ATOM      2  C   UNL     1      48.094   9.659  15.954  0.00  0.00    +0.000 A 
ATOM      3  C   UNL     1      48.486   9.082  17.163  0.00  0.00    +0.000 A 
ATOM      4  C   UNL     1      49.681   8.353  17.248  0.00  0.00    +0.000 A 
ATOM      5  C   UNL     1      50.497   8.253  16.115  0.00  0.00    +0.000 A 
ATOM      6  C   UNL     1      50.106   8.836  14.906  0.00  0.00    +0.000 A 
ENDROOT
BRANCH   1   7
ATOM      7  C   UNL     1      48.437  10.102  13.495  0.00  0.00    +0.000 C 
BRANCH   7  10
ATOM      8  O   UNL     1      48.173   7.944  11.779  0.00  0.00    +0.000 OA
ATOM      9  C   UNL     1      47.150   8.456  12.226  0.00  0.00    +0.000 C 
ATOM     10  N   UNL     1      47.181   9.541  13.072  0.00  0.00    +0.000 N 
ATOM     11  H   UNL     1      46.333   9.884  13.494  0.00  0.00    +0.000 HD
BRANCH   9  12
ATOM     12  C   UNL     1      45.819   7.944  11.896  0.00  0.00    +0.000 A 
ATOM     13  C   UNL     1      44.716   8.669  11.470  0.00  0.00    +0.000 A 
ATOM     14  N   UNL     1      43.671   7.805  11.273  0.00  0.00    +0.000 N 
ATOM     15  C   UNL     1      44.061   6.519  11.558  0.00  0.00    +0.000 A 
ATOM     16  C   UNL     1      43.343   5.325  11.506  0.00  0.00    +0.000 A 
ATOM     17  C   UNL     1      44.065   4.200  11.868  0.00  0.00    +0.000 A 
ATOM     18 CL   UNL     1      43.314   2.655  11.860  0.00  0.00    +0.000 Cl
ATOM     19  N   UNL     1      45.359   4.186  12.244  0.00  0.00    +0.000 NA
ATOM     20  C   UNL     1      46.036   5.361  12.286  0.00  0.00    +0.000 A 
ATOM     21  C   UNL     1      45.400   6.567  11.947  0.00  0.00    +0.000 A 
ATOM     22  H   UNL     1      42.746   8.069  10.959  0.00  0.00    +0.000 HD
ENDBRANCH   9  12
ENDBRANCH   7  10
ENDBRANCH   1   7
BRANCH   4  23
ATOM     23  C   UNL     1      50.029   7.624  18.520  0.00  0.00    +0.000 C 
BRANCH  23  24
ATOM     24  O   UNL     1      50.345   6.250  18.263  0.00  0.00    +0.000 OA
BRANCH  24  25
ATOM     25  C   UNL     1      49.180   5.422  18.219  0.00  0.00    +0.000 C 
BRANCH  25  26
ATOM     26  C   UNL     1      49.533   4.073  17.653  0.00  0.00    +0.000 A 
ATOM     27  N   UNL     1      50.813   3.651  17.845  0.00  0.00    +0.000 NA
ATOM     28  C   UNL     1      51.144   2.448  17.342  0.00  0.00    +0.000 A 
ATOM     29  N   UNL     1      50.322   1.621  16.673  0.00  0.00    +0.000 NA
ATOM     30  C   UNL     1      49.059   2.066  16.497  0.00  0.00    +0.000 A 
ATOM     31  C   UNL     1      48.631   3.287  16.962  0.00  0.00    +0.000 A 
BRANCH  31  32
ATOM     32  N   UNL     1      47.301   3.721  16.656  0.00  0.00    +0.000 N 
ATOM     33  O   UNL     1      46.574   4.023  17.611  0.00  0.00    +0.000 OA
ATOM     34  O   UNL     1      47.003   3.835  15.460  0.00  0.00    +0.000 OA
ENDBRANCH  31  32
ENDBRANCH  25  26
ENDBRANCH  24  25
ENDBRANCH  23  24
ENDBRANCH   4  23
TORSDOF 8
ENDMDL
MODEL 6
REMARK VINA RESULT:    -6.758      4.540      6.143
REMARK INTER + INTRA:         -10.664
REMARK INTER:                  -9.578
REMARK INTRA:                  -1.086
REMARK UNBOUND:                -0.746
REMARK  Name = 
REMARK  8 active torsions:
REMARK  status: ('A' for Active; 'I' for Inactive)
REMARK    1  A    between atoms: C_2  and  C_23
REMARK    2  A    between atoms: N_3  and  C_4
REMARK    3  A    between atoms: C_4  and  C_5
REMARK    4  A    between atoms: C_8  and  C_9
REMARK    5  A    between atoms: C_9  and  O_10
REMARK    6  A    between atoms: O_10  and  C_11
REMARK    7  A    between atoms: C_11  and  C_12
REMARK    8  A    between atoms: C_17  and  N_18
REMARK                            x       y       z     vdW  Elec       q    Type
REMARK                         _______ _______ _______ _____ _____    ______ ____
ROOT
ATOM      1  C   UNL     1      46.270   8.230  12.283  0.00  0.00    +0.000 A 
ATOM      2  C   UNL     1      47.541   7.644  12.276  0.00  0.00    +0.000 A 
ATOM      3  C   UNL     1      48.678   8.418  12.035  0.00  0.00    +0.000 A 
ATOM      4  C   UNL     1      48.564   9.795  11.796  0.00  0.00    +0.000 A 
ATOM      5  C   UNL     1      47.297  10.390  11.849  0.00  0.00    +0.000 A 
ATOM      6  C   UNL     1      46.160   9.615  12.095  0.00  0.00    +0.000 A 
ENDROOT
BRANCH   1   7
ATOM      7  C   UNL     1      45.043   7.385  12.494  0.00  0.00    +0.000 C 
BRANCH   7  10
ATOM      8  O   UNL     1      43.000   6.089  11.145  0.00  0.00    +0.000 OA
ATOM      9  C   UNL     1      44.099   5.543  11.194  0.00  0.00    +0.000 C 
ATOM     10  N   UNL     1      45.169   6.101  11.855  0.00  0.00    +0.000 N 
ATOM     11  H   UNL     1      46.081   5.676  11.803  0.00  0.00    +0.000 HD
BRANCH   9  12
ATOM     12  C   UNL     1      44.354   4.254  10.546  0.00  0.00    +0.000 A 
ATOM     13  C   UNL     1      43.877   3.009  10.923  0.00  0.00    +0.000 A 
ATOM     14  N   UNL     1      44.356   2.071  10.047  0.00  0.00    +0.000 N 
ATOM     15  C   UNL     1      45.140   2.671   9.093  0.00  0.00    +0.000 A 
ATOM     16  C   UNL     1      45.832   2.121   8.014  0.00  0.00    +0.000 A 
ATOM     17  C   UNL     1      46.532   3.038   7.248  0.00  0.00    +0.000 A 
ATOM     18 CL   UNL     1      47.439   2.509   5.888  0.00  0.00    +0.000 Cl
ATOM     19  N   UNL     1      46.580   4.367   7.465  0.00  0.00    +0.000 NA
ATOM     20  C   UNL     1      45.898   4.878   8.520  0.00  0.00    +0.000 A 
ATOM     21  C   UNL     1      45.158   4.039   9.370  0.00  0.00    +0.000 A 
ATOM     22  H   UNL     1      44.159   1.079  10.088  0.00  0.00    +0.000 HD
ENDBRANCH   9  12
ENDBRANCH   7  10
ENDBRANCH   1   7
BRANCH   4  23
ATOM     23  C   UNL     1      49.779  10.595  11.407  0.00  0.00    +0.000 C 
BRANCH  23  24
ATOM     24  O   UNL     1      50.909  10.254  12.221  0.00  0.00    +0.000 OA
BRANCH  24  25
ATOM     25  C   UNL     1      52.151  10.463  11.543  0.00  0.00    +0.000 C 
BRANCH  25  26
ATOM     26  C   UNL     1      52.362   9.379  10.520  0.00  0.00    +0.000 A 
ATOM     27  N   UNL     1      52.244   8.097  10.962  0.00  0.00    +0.000 NA
ATOM     28  C   UNL     1      52.434   7.117  10.059  0.00  0.00    +0.000 A 
ATOM     29  N   UNL     1      52.721   7.291   8.758  0.00  0.00    +0.000 NA
ATOM     30  C   UNL     1      52.832   8.573   8.348  0.00  0.00    +0.000 A 
ATOM     31  C   UNL     1      52.670   9.640   9.199  0.00  0.00    +0.000 A 
BRANCH  31  32
ATOM     32  N   UNL     1      52.892  10.966   8.703  0.00  0.00    +0.000 N 
ATOM     33  O   UNL     1      51.894  11.613   8.363  0.00  0.00    +0.000 OA
ATOM     34  O   UNL     1      54.055  11.391   8.723  0.00  0.00    +0.000 OA
ENDBRANCH  31  32
ENDBRANCH  25  26
ENDBRANCH  24  25
ENDBRANCH  23  24
ENDBRANCH   4  23
TORSDOF 8
ENDMDL
MODEL 7
REMARK VINA RESULT:    -6.717      3.128      4.293
REMARK INTER + INTRA:         -10.604
REMARK INTER:                  -9.366
REMARK INTRA:                  -1.238
REMARK UNBOUND:                -0.746
REMARK  Name = 
REMARK  8 active torsions:
REMARK  status: ('A' for Active; 'I' for Inactive)
REMARK    1  A    between atoms: C_2  and  C_23
REMARK    2  A    between atoms: N_3  and  C_4
REMARK    3  A    between atoms: C_4  and  C_5
REMARK    4  A    between atoms: C_8  and  C_9
REMARK    5  A    between atoms: C_9  and  O_10
REMARK    6  A    between atoms: O_10  and  C_11
REMARK    7  A    between atoms: C_11  and  C_12
REMARK    8  A    between atoms: C_17  and  N_18
REMARK                            x       y       z     vdW  Elec       q    Type
REMARK                         _______ _______ _______ _____ _____    ______ ____
ROOT
ATOM      1  C   UNL     1      48.720   8.620  15.350  0.00  0.00    +0.000 A 
ATOM      2  C   UNL     1      49.516   7.486  15.147  0.00  0.00    +0.000 A 
ATOM      3  C   UNL     1      49.996   6.752  16.234  0.00  0.00    +0.000 A 
ATOM      4  C   UNL     1      49.689   7.141  17.545  0.00  0.00    +0.000 A 
ATOM      5  C   UNL     1      48.855   8.248  17.747  0.00  0.00    +0.000 A 
ATOM      6  C   UNL     1      48.371   8.979  16.659  0.00  0.00    +0.000 A 
ENDROOT
BRANCH   1   7
ATOM      7  C   UNL     1      48.246   9.437  14.178  0.00  0.00    +0.000 C 
BRANCH   7  10
ATOM      8  O   UNL     1      48.057   8.000  11.818  0.00  0.00    +0.000 OA
ATOM      9  C   UNL     1      47.028   8.200  12.458  0.00  0.00    +0.000 C 
ATOM     10  N   UNL     1      47.020   8.916  13.632  0.00  0.00    +0.000 N 
ATOM     11  H   UNL     1      46.179   8.988  14.182  0.00  0.00    +0.000 HD
BRANCH   9  12
ATOM     12  C   UNL     1      45.729   7.683  12.020  0.00  0.00    +0.000 A 
ATOM     13  C   UNL     1      44.667   8.402  11.493  0.00  0.00    +0.000 A 
ATOM     14  N   UNL     1      43.644   7.535  11.216  0.00  0.00    +0.000 N 
ATOM     15  C   UNL     1      44.007   6.253  11.547  0.00  0.00    +0.000 A 
ATOM     16  C   UNL     1      43.296   5.057  11.446  0.00  0.00    +0.000 A 
ATOM     17  C   UNL     1      43.985   3.937  11.881  0.00  0.00    +0.000 A 
ATOM     18 CL   UNL     1      43.237   2.391  11.824  0.00  0.00    +0.000 Cl
ATOM     19  N   UNL     1      45.241   3.928  12.367  0.00  0.00    +0.000 NA
ATOM     20  C   UNL     1      45.912   5.104  12.455  0.00  0.00    +0.000 A 
ATOM     21  C   UNL     1      45.308   6.306  12.049  0.00  0.00    +0.000 A 
ATOM     22  H   UNL     1      42.749   7.795  10.820  0.00  0.00    +0.000 HD
ENDBRANCH   9  12
ENDBRANCH   7  10
ENDBRANCH   1   7
BRANCH   4  23
ATOM     23  C   UNL     1      50.318   6.422  18.710  0.00  0.00    +0.000 C 
BRANCH  23  24
ATOM     24  O   UNL     1      49.330   5.752  19.503  0.00  0.00    +0.000 OA
BRANCH  24  25
ATOM     25  C   UNL     1      49.406   4.329  19.379  0.00  0.00    +0.000 C 
BRANCH  25  26
ATOM     26  C   UNL     1      48.763   3.895  18.088  0.00  0.00    +0.000 A 
ATOM     27  N   UNL     1      47.505   4.357  17.853  0.00  0.00    +0.000 NA
ATOM     28  C   UNL     1      46.917   3.975  16.704  0.00  0.00    +0.000 A 
ATOM     29  N   UNL     1      47.464   3.185  15.764  0.00  0.00    +0.000 NA
ATOM     30  C   UNL     1      48.712   2.742  16.026  0.00  0.00    +0.000 A 
ATOM     31  C   UNL     1      49.389   3.066  17.177  0.00  0.00    +0.000 A 
BRANCH  31  32
ATOM     32  N   UNL     1      50.675   2.482  17.417  0.00  0.00    +0.000 N 
ATOM     33  O   UNL     1      51.627   3.260  17.564  0.00  0.00    +0.000 OA
ATOM     34  O   UNL     1      50.725   1.251  17.535  0.00  0.00    +0.000 OA
ENDBRANCH  31  32
ENDBRANCH  25  26
ENDBRANCH  24  25
ENDBRANCH  23  24
ENDBRANCH   4  23
TORSDOF 8
ENDMDL
MODEL 8
REMARK VINA RESULT:    -6.385      3.903      5.237
REMARK INTER + INTRA:         -10.117
REMARK INTER:                  -9.259
REMARK INTRA:                  -0.859
REMARK UNBOUND:                -0.746
REMARK  Name = 
REMARK  8 active torsions:
REMARK  status: ('A' for Active; 'I' for Inactive)
REMARK    1  A    between atoms: C_2  and  C_23
REMARK    2  A    between atoms: N_3  and  C_4
REMARK    3  A    between atoms: C_4  and  C_5
REMARK    4  A    between atoms: C_8  and  C_9
REMARK    5  A    between atoms: C_9  and  O_10
REMARK    6  A    between atoms: O_10  and  C_11
REMARK    7  A    between atoms: C_11  and  C_12
REMARK    8  A    between atoms: C_17  and  N_18
REMARK                            x       y       z     vdW  Elec       q    Type
REMARK                         _______ _______ _______ _____ _____    ______ ____
ROOT
ATOM      1  C   UNL     1      46.124   7.838  12.692  0.00  0.00    +0.000 A 
ATOM      2  C   UNL     1      47.391   7.353  13.035  0.00  0.00    +0.000 A 
ATOM      3  C   UNL     1      48.524   8.152  12.874  0.00  0.00    +0.000 A 
ATOM      4  C   UNL     1      48.411   9.453  12.364  0.00  0.00    +0.000 A 
ATOM      5  C   UNL     1      47.138   9.955  12.064  0.00  0.00    +0.000 A 
ATOM      6  C   UNL     1      46.004   9.156  12.231  0.00  0.00    +0.000 A 
ENDROOT
BRANCH   1   7
ATOM      7  C   UNL     1      44.910   6.957  12.820  0.00  0.00    +0.000 C 
BRANCH   7  10
ATOM      8  O   UNL     1      43.055   5.923  11.043  0.00  0.00    +0.000 OA
ATOM      9  C   UNL     1      44.098   5.300  11.218  0.00  0.00    +0.000 C 
ATOM     10  N   UNL     1      45.071   5.726  12.092  0.00  0.00    +0.000 N 
ATOM     11  H   UNL     1      45.955   5.245  12.148  0.00  0.00    +0.000 HD
BRANCH   9  12
ATOM     12  C   UNL     1      44.388   4.055  10.501  0.00  0.00    +0.000 A 
ATOM     13  C   UNL     1      43.963   2.776  10.823  0.00  0.00    +0.000 A 
ATOM     14  N   UNL     1      44.459   1.901   9.893  0.00  0.00    +0.000 N 
ATOM     15  C   UNL     1      45.204   2.577   8.958  0.00  0.00    +0.000 A 
ATOM     16  C   UNL     1      45.895   2.107   7.842  0.00  0.00    +0.000 A 
ATOM     17  C   UNL     1      46.548   3.086   7.111  0.00  0.00    +0.000 A 
ATOM     18 CL   UNL     1      47.449   2.659   5.712  0.00  0.00    +0.000 Cl
ATOM     19  N   UNL     1      46.551   4.403   7.394  0.00  0.00    +0.000 NA
ATOM     20  C   UNL     1      45.871   4.836   8.485  0.00  0.00    +0.000 A 
ATOM     21  C   UNL     1      45.178   3.928   9.304  0.00  0.00    +0.000 A 
ATOM     22  H   UNL     1      44.299   0.901   9.888  0.00  0.00    +0.000 HD
ENDBRANCH   9  12
ENDBRANCH   7  10
ENDBRANCH   1   7
BRANCH   4  23
ATOM     23  C   UNL     1      49.650  10.257  12.071  0.00  0.00    +0.000 C 
BRANCH  23  24
ATOM     24  O   UNL     1      50.529   9.555  11.182  0.00  0.00    +0.000 OA
BRANCH  24  25
ATOM     25  C   UNL     1      51.902   9.680  11.563  0.00  0.00    +0.000 C 
BRANCH  25  26
ATOM     26  C   UNL     1      52.678   8.488  11.069  0.00  0.00    +0.000 A 
ATOM     27  N   UNL     1      52.248   7.923   9.908  0.00  0.00    +0.000 NA
ATOM     28  C   UNL     1      52.931   6.855   9.456  0.00  0.00    +0.000 A 
ATOM     29  N   UNL     1      54.006   6.302  10.043  0.00  0.00    +0.000 NA
ATOM     30  C   UNL     1      54.409   6.883  11.193  0.00  0.00    +0.000 A 
ATOM     31  C   UNL     1      53.768   7.969  11.741  0.00  0.00    +0.000 A 
BRANCH  31  32
ATOM     32  N   UNL     1      54.206   8.470  13.010  0.00  0.00    +0.000 N 
ATOM     33  O   UNL     1      54.846   9.530  13.005  0.00  0.00    +0.000 OA
ATOM     34  O   UNL     1      53.849   7.848  14.019  0.00  0.00    +0.000 OA
ENDBRANCH  31  32
ENDBRANCH  25  26
ENDBRANCH  24  25
ENDBRANCH  23  24
ENDBRANCH   4  23
TORSDOF 8
ENDMDL
MODEL 9
REMARK VINA RESULT:    -6.304      1.564      2.028
REMARK INTER + INTRA:          -9.998
REMARK INTER:                  -9.473
REMARK INTRA:                  -0.525
REMARK UNBOUND:                -0.746
REMARK  Name = 
REMARK  8 active torsions:
REMARK  status: ('A' for Active; 'I' for Inactive)
REMARK    1  A    between atoms: C_2  and  C_23
REMARK    2  A    between atoms: N_3  and  C_4
REMARK    3  A    between atoms: C_4  and  C_5
REMARK    4  A    between atoms: C_8  and  C_9
REMARK    5  A    between atoms: C_9  and  O_10
REMARK    6  A    between atoms: O_10  and  C_11
REMARK    7  A    between atoms: C_11  and  C_12
REMARK    8  A    between atoms: C_17  and  N_18
REMARK                            x       y       z     vdW  Elec       q    Type
REMARK                         _______ _______ _______ _____ _____    ______ ____
ROOT
ATOM      1  C   UNL     1      45.429   6.756  12.625  0.00  0.00    +0.000 A 
ATOM      2  C   UNL     1      46.122   5.714  13.252  0.00  0.00    +0.000 A 
ATOM      3  C   UNL     1      47.285   5.972  13.981  0.00  0.00    +0.000 A 
ATOM      4  C   UNL     1      47.777   7.279  14.095  0.00  0.00    +0.000 A 
ATOM      5  C   UNL     1      47.059   8.328  13.507  0.00  0.00    +0.000 A 
ATOM      6  C   UNL     1      45.893   8.070  12.782  0.00  0.00    +0.000 A 
ENDROOT
BRANCH   1   7
ATOM      7  C   UNL     1      44.204   6.469  11.800  0.00  0.00    +0.000 C 
BRANCH   7  10
ATOM      8  O   UNL     1      45.802   5.903   9.609  0.00  0.00    +0.000 OA
ATOM      9  C   UNL     1      45.125   4.994  10.082  0.00  0.00    +0.000 C 
ATOM     10  N   UNL     1      44.289   5.183  11.158  0.00  0.00    +0.000 N 
ATOM     11  H   UNL     1      43.815   4.401  11.581  0.00  0.00    +0.000 HD
BRANCH   9  12
ATOM     12  C   UNL     1      45.161   3.635   9.536  0.00  0.00    +0.000 A 
ATOM     13  C   UNL     1      44.489   2.517  10.005  0.00  0.00    +0.000 A 
ATOM     14  N   UNL     1      44.801   1.449   9.206  0.00  0.00    +0.000 N 
ATOM     15  C   UNL     1      45.667   1.837   8.214  0.00  0.00    +0.000 A 
ATOM     16  C   UNL     1      46.253   1.100   7.186  0.00  0.00    +0.000 A 
ATOM     17  C   UNL     1      47.089   1.828   6.355  0.00  0.00    +0.000 A 
ATOM     18 CL   UNL     1      47.889   1.054   5.046  0.00  0.00    +0.000 Cl
ATOM     19  N   UNL     1      47.355   3.143   6.470  0.00  0.00    +0.000 NA
ATOM     20  C   UNL     1      46.773   3.840   7.478  0.00  0.00    +0.000 A 
ATOM     21  C   UNL     1      45.912   3.201   8.386  0.00  0.00    +0.000 A 
ATOM     22  H   UNL     1      44.445   0.509   9.323  0.00  0.00    +0.000 HD
ENDBRANCH   9  12
ENDBRANCH   7  10
ENDBRANCH   1   7
BRANCH   4  23
ATOM     23  C   UNL     1      49.101   7.530  14.770  0.00  0.00    +0.000 C 
BRANCH  23  24
ATOM     24  O   UNL     1      49.064   7.138  16.148  0.00  0.00    +0.000 OA
BRANCH  24  25
ATOM     25  C   UNL     1      49.813   5.945  16.395  0.00  0.00    +0.000 C 
BRANCH  25  26
ATOM     26  C   UNL     1      49.440   5.379  17.740  0.00  0.00    +0.000 A 
ATOM     27  N   UNL     1      49.889   6.060  18.830  0.00  0.00    +0.000 NA
ATOM     28  C   UNL     1      49.566   5.563  20.038  0.00  0.00    +0.000 A 
ATOM     29  N   UNL     1      48.834   4.460  20.266  0.00  0.00    +0.000 NA
ATOM     30  C   UNL     1      48.403   3.805  19.166  0.00  0.00    +0.000 A 
ATOM     31  C   UNL     1      48.693   4.226  17.890  0.00  0.00    +0.000 A 
BRANCH  31  32
ATOM     32  N   UNL     1      48.273   3.425  16.780  0.00  0.00    +0.000 N 
ATOM     33  O   UNL     1      49.089   2.608  16.335  0.00  0.00    +0.000 OA
ATOM     34  O   UNL     1      47.103   3.556  16.398  0.00  0.00    +0.000 OA
ENDBRANCH  31  32
ENDBRANCH  25  26
ENDBRANCH  24  25
ENDBRANCH  23  24
ENDBRANCH   4  23
TORSDOF 8
ENDMDL
