MODEL 1
REMARK VINA RESULT:    -8.298      0.000      0.000
REMARK INTER + INTRA:         -11.855
REMARK INTER:                 -11.208
REMARK INTRA:                  -0.647
REMARK UNBOUND:                -0.647
REMARK  Name = 
REMARK  6 active torsions:
REMARK  status: ('A' for Active; 'I' for Inactive)
REMARK    1  A    between atoms: C_2  and  C_4
REMARK    2  A    between atoms: N_8  and  C_9
REMARK    3  A    between atoms: C_9  and  C_10
REMARK    4  A    between atoms: C_10  and  C_11
REMARK    5  A    between atoms: C_15  and  N_16
REMARK    6  A    between atoms: N_16  and  C_17
REMARK                            x       y       z     vdW  Elec       q    Type
REMARK                         _______ _______ _______ _____ _____    ______ ____
ROOT
ATOM      1  C   UNL     1      43.423   4.174  11.021  0.00  0.00    +0.000 C 
ENDROOT
BRANCH   1   6
ATOM      2  C   UNL     1      46.594   2.398   7.486  0.00  0.00    +0.000 A 
ATOM      3  C   UNL     1      45.848   1.699   8.428  0.00  0.00    +0.000 A 
ATOM      4  C   UNL     1      44.890   2.383   9.178  0.00  0.00    +0.000 A 
ATOM      5  C   UNL     1      44.711   3.751   8.990  0.00  0.00    +0.000 A 
ATOM      6  N   UNL     1      43.720   4.481   9.630  0.00  0.00    +0.000 N 
ATOM      7  N   UNL     1      45.457   4.445   8.108  0.00  0.00    +0.000 NA
ATOM      8  C   UNL     1      46.382   3.763   7.379  0.00  0.00    +0.000 A 
ATOM      9  H   UNL     1      43.906   5.461   9.418  0.00  0.00    +0.000 HD
BRANCH   2  11
ATOM     10  N   UNL     1      48.740   2.431   6.352  0.00  0.00    +0.000 N 
ATOM     11  C   UNL     1      47.581   1.746   6.604  0.00  0.00    +0.000 C 
ATOM     12  O   UNL     1      47.395   0.624   6.151  0.00  0.00    +0.000 OA
ATOM     13  H   UNL     1      49.459   1.926   5.848  0.00  0.00    +0.000 HD
ATOM     14  H   UNL     1      49.033   3.222   6.907  0.00  0.00    +0.000 HD
ENDBRANCH   2  11
ENDBRANCH   1   6
BRANCH   1  15
ATOM     15  C   UNL     1      43.604   5.418  11.897  0.00  0.00    +0.000 C 
BRANCH  15  16
ATOM     16  C   UNL     1      44.994   5.480  12.469  0.00  0.00    +0.000 A 
ATOM     17  C   UNL     1      45.920   6.404  11.993  0.00  0.00    +0.000 A 
ATOM     18  N   UNL     1      47.172   6.529  12.473  0.00  0.00    +0.000 NA
ATOM     19  C   UNL     1      47.520   5.690  13.477  0.00  0.00    +0.000 A 
ATOM     20  C   UNL     1      46.674   4.746  14.065  0.00  0.00    +0.000 A 
ATOM     21  C   UNL     1      45.393   4.644  13.524  0.00  0.00    +0.000 A 
BRANCH  20  22
ATOM     22  N   UNL     1      47.141   3.896  15.090  0.00  0.00    +0.000 N 
ATOM     23  H   UNL     1      47.934   3.333  14.783  0.00  0.00    +0.000 HD
BRANCH  22  24
ATOM     24  C   UNL     1      47.229   4.240  16.485  0.00  0.00    +0.000 C 
ATOM     25  C   UNL     1      48.676   4.475  16.974  0.00  0.00    +0.000 C 
ATOM     26  N   UNL     1      48.391   3.627  18.154  0.00  0.00    +0.000 NA
ATOM     27  C   UNL     1      47.270   3.005  17.412  0.00  0.00    +0.000 C 
ATOM     28  H   UNL     1      48.085   4.161  18.969  0.00  0.00    +0.000 HD
ENDBRANCH  22  24
ENDBRANCH  20  22
ENDBRANCH  15  16
ENDBRANCH   1  15
TORSDOF 6
ENDMDL
MODEL 2
REMARK VINA RESULT:    -7.636      1.798      3.510
REMARK INTER + INTRA:         -10.962
REMARK INTER:                 -10.271
REMARK INTRA:                  -0.691
REMARK UNBOUND:                -0.647
REMARK  Name = 
REMARK  6 active torsions:
REMARK  status: ('A' for Active; 'I' for Inactive)
REMARK    1  A    between atoms: C_2  and  C_4
REMARK    2  A    between atoms: N_8  and  C_9
REMARK    3  A    between atoms: C_9  and  C_10
REMARK    4  A    between atoms: C_10  and  C_11
REMARK    5  A    between atoms: C_15  and  N_16
REMARK    6  A    between atoms: N_16  and  C_17
REMARK                            x       y       z     vdW  Elec       q    Type
REMARK                         _______ _______ _______ _____ _____    ______ ____
ROOT
ATOM      1  C   UNL     1      43.363   4.302  10.918  0.00  0.00    +0.000 C 
ENDROOT
BRANCH   1   6
ATOM      2  C   UNL     1      46.579   2.449   7.465  0.00  0.00    +0.000 A 
ATOM      3  C   UNL     1      45.765   1.767   8.362  0.00  0.00    +0.000 A 
ATOM      4  C   UNL     1      44.812   2.481   9.090  0.00  0.00    +0.000 A 
ATOM      5  C   UNL     1      44.708   3.861   8.928  0.00  0.00    +0.000 A 
ATOM      6  N   UNL     1      43.729   4.624   9.547  0.00  0.00    +0.000 N 
ATOM      7  N   UNL     1      45.519   4.535   8.091  0.00  0.00    +0.000 NA
ATOM      8  C   UNL     1      46.439   3.824   7.383  0.00  0.00    +0.000 A 
ATOM      9  H   UNL     1      43.970   5.598   9.365  0.00  0.00    +0.000 HD
BRANCH   2  11
ATOM     10  N   UNL     1      48.743   2.427   6.366  0.00  0.00    +0.000 N 
ATOM     11  C   UNL     1      47.568   1.768   6.607  0.00  0.00    +0.000 C 
ATOM     12  O   UNL     1      47.367   0.645   6.162  0.00  0.00    +0.000 OA
ATOM     13  H   UNL     1      49.460   1.903   5.879  0.00  0.00    +0.000 HD
ATOM     14  H   UNL     1      49.044   3.218   6.917  0.00  0.00    +0.000 HD
ENDBRANCH   2  11
ENDBRANCH   1   6
BRANCH   1  15
ATOM     15  C   UNL     1      43.452   5.548  11.805  0.00  0.00    +0.000 C 
BRANCH  15  16
ATOM     16  C   UNL     1      44.793   5.635  12.485  0.00  0.00    +0.000 A 
ATOM     17  C   UNL     1      45.254   4.592  13.284  0.00  0.00    +0.000 A 
ATOM     18  N   UNL     1      46.449   4.593  13.903  0.00  0.00    +0.000 NA
ATOM     19  C   UNL     1      47.225   5.689  13.718  0.00  0.00    +0.000 A 
ATOM     20  C   UNL     1      46.892   6.782  12.914  0.00  0.00    +0.000 A 
ATOM     21  C   UNL     1      45.637   6.741  12.306  0.00  0.00    +0.000 A 
BRANCH  20  22
ATOM     22  N   UNL     1      47.757   7.891  12.808  0.00  0.00    +0.000 N 
ATOM     23  H   UNL     1      48.227   8.090  13.691  0.00  0.00    +0.000 HD
BRANCH  22  24
ATOM     24  C   UNL     1      48.586   8.199  11.671  0.00  0.00    +0.000 C 
ATOM     25  C   UNL     1      50.030   7.663  11.797  0.00  0.00    +0.000 C 
ATOM     26  N   UNL     1      50.534   8.982  11.350  0.00  0.00    +0.000 NA
ATOM     27  C   UNL     1      49.248   9.591  11.763  0.00  0.00    +0.000 C 
ATOM     28  H   UNL     1      50.695   9.031  10.343  0.00  0.00    +0.000 HD
ENDBRANCH  22  24
ENDBRANCH  20  22
ENDBRANCH  15  16
ENDBRANCH   1  15
TORSDOF 6
ENDMDL
MODEL 3
REMARK VINA RESULT:    -7.147      2.934      8.335
REMARK INTER + INTRA:         -10.302
REMARK INTER:                  -9.801
REMARK INTRA:                  -0.500
REMARK UNBOUND:                -0.647
REMARK  Name = 
REMARK  6 active torsions:
REMARK  status: ('A' for Active; 'I' for Inactive)
REMARK    1  A    between atoms: C_2  and  C_4
REMARK    2  A    between atoms: N_8  and  C_9
REMARK    3  A    between atoms: C_9  and  C_10
REMARK    4  A    between atoms: C_10  and  C_11
REMARK    5  A    between atoms: C_15  and  N_16
REMARK    6  A    between atoms: N_16  and  C_17
REMARK                            x       y       z     vdW  Elec       q    Type
REMARK                         _______ _______ _______ _____ _____    ______ ____
ROOT
ATOM      1  C   UNL     1      45.686   5.896  12.478  0.00  0.00    +0.000 C 
ENDROOT
BRANCH   1   6
ATOM      2  C   UNL     1      48.293   4.605  16.629  0.00  0.00    +0.000 A 
ATOM      3  C   UNL     1      47.323   3.885  15.942  0.00  0.00    +0.000 A 
ATOM      4  C   UNL     1      46.876   4.357  14.707  0.00  0.00    +0.000 A 
ATOM      5  C   UNL     1      47.386   5.547  14.195  0.00  0.00    +0.000 A 
ATOM      6  N   UNL     1      47.060   6.033  12.937  0.00  0.00    +0.000 N 
ATOM      7  N   UNL     1      48.297   6.272  14.872  0.00  0.00    +0.000 NA
ATOM      8  C   UNL     1      48.729   5.796  16.071  0.00  0.00    +0.000 A 
ATOM      9  H   UNL     1      47.460   6.968  12.880  0.00  0.00    +0.000 HD
BRANCH   2  11
ATOM     10  N   UNL     1      47.995   3.809  18.903  0.00  0.00    +0.000 N 
ATOM     11  C   UNL     1      48.872   4.148  17.908  0.00  0.00    +0.000 C 
ATOM     12  O   UNL     1      50.081   4.036  18.062  0.00  0.00    +0.000 OA
ATOM     13  H   UNL     1      48.396   3.383  19.729  0.00  0.00    +0.000 HD
ATOM     14  H   UNL     1      47.014   3.641  18.727  0.00  0.00    +0.000 HD
ENDBRANCH   2  11
ENDBRANCH   1   6
BRANCH   1  15
ATOM     15  C   UNL     1      45.597   6.141  10.968  0.00  0.00    +0.000 C 
BRANCH  15  16
ATOM     16  C   UNL     1      45.212   4.882  10.237  0.00  0.00    +0.000 A 
ATOM     17  C   UNL     1      44.378   3.940  10.833  0.00  0.00    +0.000 A 
ATOM     18  N   UNL     1      43.977   2.805  10.230  0.00  0.00    +0.000 NA
ATOM     19  C   UNL     1      44.431   2.596   8.970  0.00  0.00    +0.000 A 
ATOM     20  C   UNL     1      45.241   3.480   8.252  0.00  0.00    +0.000 A 
ATOM     21  C   UNL     1      45.642   4.634   8.925  0.00  0.00    +0.000 A 
BRANCH  20  22
ATOM     22  N   UNL     1      45.686   3.158   6.952  0.00  0.00    +0.000 N 
ATOM     23  H   UNL     1      45.098   3.583   6.235  0.00  0.00    +0.000 HD
BRANCH  22  24
ATOM     24  C   UNL     1      47.062   3.066   6.540  0.00  0.00    +0.000 C 
ATOM     25  C   UNL     1      47.244   2.483   5.120  0.00  0.00    +0.000 C 
ATOM     26  N   UNL     1      48.308   1.597   5.645  0.00  0.00    +0.000 NA
ATOM     27  C   UNL     1      47.747   1.762   7.006  0.00  0.00    +0.000 C 
ATOM     28  H   UNL     1      49.245   1.991   5.546  0.00  0.00    +0.000 HD
ENDBRANCH  22  24
ENDBRANCH  20  22
ENDBRANCH  15  16
ENDBRANCH   1  15
TORSDOF 6
ENDMDL
MODEL 4
REMARK VINA RESULT:    -6.618      3.387      8.569
REMARK INTER + INTRA:          -9.587
REMARK INTER:                  -9.324
REMARK INTRA:                  -0.263
REMARK UNBOUND:                -0.647
REMARK  Name = 
REMARK  6 active torsions:
REMARK  status: ('A' for Active; 'I' for Inactive)
REMARK    1  A    between atoms: C_2  and  C_4
REMARK    2  A    between atoms: N_8  and  C_9
REMARK    3  A    between atoms: C_9  and  C_10
REMARK    4  A    between atoms: C_10  and  C_11
REMARK    5  A    between atoms: C_15  and  N_16
REMARK    6  A    between atoms: N_16  and  C_17
REMARK                            x       y       z     vdW  Elec       q    Type
REMARK                         _______ _______ _______ _____ _____    ______ ____
ROOT
ATOM      1  C   UNL     1      47.286   5.246  13.446  0.00  0.00    +0.000 C 
ENDROOT
BRANCH   1   6
ATOM      2  C   UNL     1      48.705   4.529  18.259  0.00  0.00    +0.000 A 
ATOM      3  C   UNL     1      48.950   5.613  17.423  0.00  0.00    +0.000 A 
ATOM      4  C   UNL     1      48.295   5.681  16.193  0.00  0.00    +0.000 A 
ATOM      5  C   UNL     1      47.430   4.659  15.811  0.00  0.00    +0.000 A 
ATOM      6  N   UNL     1      46.675   4.699  14.648  0.00  0.00    +0.000 N 
ATOM      7  N   UNL     1      47.217   3.586  16.597  0.00  0.00    +0.000 NA
ATOM      8  C   UNL     1      47.857   3.536  17.797  0.00  0.00    +0.000 A 
ATOM      9  H   UNL     1      46.247   3.779  14.554  0.00  0.00    +0.000 HD
BRANCH   2  11
ATOM     10  N   UNL     1      48.526   3.842  20.580  0.00  0.00    +0.000 N 
ATOM     11  C   UNL     1      49.302   4.406  19.603  0.00  0.00    +0.000 C 
ATOM     12  O   UNL     1      50.454   4.753  19.829  0.00  0.00    +0.000 OA
ATOM     13  H   UNL     1      48.984   3.651  21.463  0.00  0.00    +0.000 HD
ATOM     14  H   UNL     1      47.689   3.317  20.371  0.00  0.00    +0.000 HD
ENDBRANCH   2  11
ENDBRANCH   1   6
BRANCH   1  15
ATOM     15  C   UNL     1      46.377   6.308  12.816  0.00  0.00    +0.000 C 
BRANCH  15  16
ATOM     16  C   UNL     1      45.201   5.673  12.125  0.00  0.00    +0.000 A 
ATOM     17  C   UNL     1      44.027   5.400  12.822  0.00  0.00    +0.000 A 
ATOM     18  N   UNL     1      42.931   4.855  12.262  0.00  0.00    +0.000 NA
ATOM     19  C   UNL     1      43.008   4.564  10.941  0.00  0.00    +0.000 A 
ATOM     20  C   UNL     1      44.112   4.821  10.125  0.00  0.00    +0.000 A 
ATOM     21  C   UNL     1      45.228   5.373  10.754  0.00  0.00    +0.000 A 
BRANCH  20  22
ATOM     22  N   UNL     1      44.105   4.454   8.763  0.00  0.00    +0.000 N 
ATOM     23  H   UNL     1      44.443   5.209   8.166  0.00  0.00    +0.000 HD
BRANCH  22  24
ATOM     24  C   UNL     1      44.455   3.157   8.246  0.00  0.00    +0.000 C 
ATOM     25  C   UNL     1      44.751   2.113   9.347  0.00  0.00    +0.000 C 
ATOM     26  N   UNL     1      45.969   1.711   8.606  0.00  0.00    +0.000 NA
ATOM     27  C   UNL     1      45.958   3.022   7.916  0.00  0.00    +0.000 C 
ATOM     28  H   UNL     1      45.814   0.924   7.975  0.00  0.00    +0.000 HD
ENDBRANCH  22  24
ENDBRANCH  20  22
ENDBRANCH  15  16
ENDBRANCH   1  15
TORSDOF 6
ENDMDL
MODEL 5
REMARK VINA RESULT:    -6.472      3.989      7.611
REMARK INTER + INTRA:          -9.389
REMARK INTER:                  -8.484
REMARK INTRA:                  -0.905
REMARK UNBOUND:                -0.647
REMARK  Name = 
REMARK  6 active torsions:
REMARK  status: ('A' for Active; 'I' for Inactive)
REMARK    1  A    between atoms: C_2  and  C_4
REMARK    2  A    between atoms: N_8  and  C_9
REMARK    3  A    between atoms: C_9  and  C_10
REMARK    4  A    between atoms: C_10  and  C_11
REMARK    5  A    between atoms: C_15  and  N_16
REMARK    6  A    between atoms: N_16  and  C_17
REMARK                            x       y       z     vdW  Elec       q    Type
REMARK                         _______ _______ _______ _____ _____    ______ ____
ROOT
ATOM      1  C   UNL     1      48.652   7.813  12.189  0.00  0.00    +0.000 C 
ENDROOT
BRANCH   1   6
ATOM      2  C   UNL     1      47.699   4.905  16.230  0.00  0.00    +0.000 A 
ATOM      3  C   UNL     1      47.124   4.867  14.965  0.00  0.00    +0.000 A 
ATOM      4  C   UNL     1      47.679   5.639  13.944  0.00  0.00    +0.000 A 
ATOM      5  C   UNL     1      48.780   6.449  14.210  0.00  0.00    +0.000 A 
ATOM      6  N   UNL     1      49.442   7.174  13.230  0.00  0.00    +0.000 N 
ATOM      7  N   UNL     1      49.319   6.524  15.442  0.00  0.00    +0.000 NA
ATOM      8  C   UNL     1      48.771   5.760  16.426  0.00  0.00    +0.000 A 
ATOM      9  H   UNL     1      50.107   7.772  13.719  0.00  0.00    +0.000 HD
BRANCH   2  11
ATOM     10  N   UNL     1      47.522   4.500  18.617  0.00  0.00    +0.000 N 
ATOM     11  C   UNL     1      47.219   4.074  17.352  0.00  0.00    +0.000 C 
ATOM     12  O   UNL     1      46.543   3.071  17.165  0.00  0.00    +0.000 OA
ATOM     13  H   UNL     1      47.087   3.993  19.378  0.00  0.00    +0.000 HD
ATOM     14  H   UNL     1      47.841   5.438  18.811  0.00  0.00    +0.000 HD
ENDBRANCH   2  11
ENDBRANCH   1   6
BRANCH   1  15
ATOM     15  C   UNL     1      47.969   9.074  12.730  0.00  0.00    +0.000 C 
BRANCH  15  16
ATOM     16  C   UNL     1      46.585   9.228  12.161  0.00  0.00    +0.000 A 
ATOM     17  C   UNL     1      46.104  10.480  11.786  0.00  0.00    +0.000 A 
ATOM     18  N   UNL     1      44.886  10.687  11.251  0.00  0.00    +0.000 NA
ATOM     19  C   UNL     1      44.106   9.592  11.082  0.00  0.00    +0.000 A 
ATOM     20  C   UNL     1      44.485   8.281  11.383  0.00  0.00    +0.000 A 
ATOM     21  C   UNL     1      45.750   8.120  11.949  0.00  0.00    +0.000 A 
BRANCH  20  22
ATOM     22  N   UNL     1      43.588   7.209  11.198  0.00  0.00    +0.000 N 
ATOM     23  H   UNL     1      43.117   7.261  10.295  0.00  0.00    +0.000 HD
BRANCH  22  24
ATOM     24  C   UNL     1      43.815   5.849  11.613  0.00  0.00    +0.000 C 
ATOM     25  C   UNL     1      43.587   4.813  10.488  0.00  0.00    +0.000 C 
ATOM     26  N   UNL     1      42.799   3.992  11.436  0.00  0.00    +0.000 NA
ATOM     27  C   UNL     1      42.575   5.199  12.265  0.00  0.00    +0.000 C 
ATOM     28  H   UNL     1      43.355   3.278  11.908  0.00  0.00    +0.000 HD
ENDBRANCH  22  24
ENDBRANCH  20  22
ENDBRANCH  15  16
ENDBRANCH   1  15
TORSDOF 6
ENDMDL
MODEL 6
REMARK VINA RESULT:    -6.403      3.578      7.921
REMARK INTER + INTRA:          -9.296
REMARK INTER:                  -8.783
REMARK INTRA:                  -0.512
REMARK UNBOUND:                -0.647
REMARK  Name = 
REMARK  6 active torsions:
REMARK  status: ('A' for Active; 'I' for Inactive)
REMARK    1  A    between atoms: C_2  and  C_4
REMARK    2  A    between atoms: N_8  and  C_9
REMARK    3  A    between atoms: C_9  and  C_10
REMARK    4  A    between atoms: C_10  and  C_11
REMARK    5  A    between atoms: C_15  and  N_16
REMARK    6  A    between atoms: N_16  and  C_17
REMARK                            x       y       z     vdW  Elec       q    Type
REMARK                         _______ _______ _______ _____ _____    ______ ____
ROOT
ATOM      1  C   UNL     1      45.713   5.424  12.714  0.00  0.00    +0.000 C 
ENDROOT
BRANCH   1   6
ATOM      2  C   UNL     1      49.946   8.209  12.871  0.00  0.00    +0.000 A 
ATOM      3  C   UNL     1      49.360   7.562  11.790  0.00  0.00    +0.000 A 
ATOM      4  C   UNL     1      48.086   7.012  11.938  0.00  0.00    +0.000 A 
ATOM      5  C   UNL     1      47.433   7.097  13.165  0.00  0.00    +0.000 A 
ATOM      6  N   UNL     1      46.133   6.656  13.364  0.00  0.00    +0.000 N 
ATOM      7  N   UNL     1      48.009   7.687  14.230  0.00  0.00    +0.000 NA
ATOM      8  C   UNL     1      49.249   8.225  14.069  0.00  0.00    +0.000 A 
ATOM      9  H   UNL     1      45.964   6.713  14.368  0.00  0.00    +0.000 HD
BRANCH   2  11
ATOM     10  N   UNL     1      52.334   8.097  12.450  0.00  0.00    +0.000 N 
ATOM     11  C   UNL     1      51.260   8.876  12.788  0.00  0.00    +0.000 C 
ATOM     12  O   UNL     1      51.381  10.080  12.969  0.00  0.00    +0.000 OA
ATOM     13  H   UNL     1      53.205   8.583  12.277  0.00  0.00    +0.000 HD
ATOM     14  H   UNL     1      52.230   7.177  12.045  0.00  0.00    +0.000 HD
ENDBRANCH   2  11
ENDBRANCH   1   6
BRANCH   1  15
ATOM     15  C   UNL     1      44.815   5.730  11.511  0.00  0.00    +0.000 C 
BRANCH  15  16
ATOM     16  C   UNL     1      44.802   4.582  10.538  0.00  0.00    +0.000 A 
ATOM     17  C   UNL     1      44.068   3.429  10.806  0.00  0.00    +0.000 A 
ATOM     18  N   UNL     1      43.995   2.375   9.972  0.00  0.00    +0.000 NA
ATOM     19  C   UNL     1      44.688   2.473   8.812  0.00  0.00    +0.000 A 
ATOM     20  C   UNL     1      45.430   3.587   8.411  0.00  0.00    +0.000 A 
ATOM     21  C   UNL     1      45.488   4.647   9.316  0.00  0.00    +0.000 A 
BRANCH  20  22
ATOM     22  N   UNL     1      46.143   3.580   7.194  0.00  0.00    +0.000 N 
ATOM     23  H   UNL     1      46.863   4.302   7.173  0.00  0.00    +0.000 HD
BRANCH  22  24
ATOM     24  C   UNL     1      46.533   2.404   6.461  0.00  0.00    +0.000 C 
ATOM     25  C   UNL     1      47.888   1.815   6.914  0.00  0.00    +0.000 C 
ATOM     26  N   UNL     1      48.288   1.702   5.492  0.00  0.00    +0.000 NA
ATOM     27  C   UNL     1      47.277   2.728   5.147  0.00  0.00    +0.000 C 
ATOM     28  H   UNL     1      48.085   0.786   5.089  0.00  0.00    +0.000 HD
ENDBRANCH  22  24
ENDBRANCH  20  22
ENDBRANCH  15  16
ENDBRANCH   1  15
TORSDOF 6
ENDMDL
MODEL 7
REMARK VINA RESULT:    -6.366      3.599      8.627
REMARK INTER + INTRA:          -9.247
REMARK INTER:                  -8.753
REMARK INTRA:                  -0.493
REMARK UNBOUND:                -0.647
REMARK  Name = 
REMARK  6 active torsions:
REMARK  status: ('A' for Active; 'I' for Inactive)
REMARK    1  A    between atoms: C_2  and  C_4
REMARK    2  A    between atoms: N_8  and  C_9
REMARK    3  A    between atoms: C_9  and  C_10
REMARK    4  A    between atoms: C_10  and  C_11
REMARK    5  A    between atoms: C_15  and  N_16
REMARK    6  A    between atoms: N_16  and  C_17
REMARK                            x       y       z     vdW  Elec       q    Type
REMARK                         _______ _______ _______ _____ _____    ______ ____
ROOT
ATOM      1  C   UNL     1      46.661   6.409  11.426  0.00  0.00    +0.000 C 
ENDROOT
BRANCH   1   6
ATOM      2  C   UNL     1      48.805   7.896  15.773  0.00  0.00    +0.000 A 
ATOM      3  C   UNL     1      48.078   8.641  14.852  0.00  0.00    +0.000 A 
ATOM      4  C   UNL     1      47.413   7.980  13.818  0.00  0.00    +0.000 A 
ATOM      5  C   UNL     1      47.507   6.595  13.709  0.00  0.00    +0.000 A 
ATOM      6  N   UNL     1      46.804   5.860  12.766  0.00  0.00    +0.000 N 
ATOM      7  N   UNL     1      48.242   5.868  14.573  0.00  0.00    +0.000 NA
ATOM      8  C   UNL     1      48.879   6.526  15.580  0.00  0.00    +0.000 A 
ATOM      9  H   UNL     1      47.161   4.907  12.824  0.00  0.00    +0.000 HD
BRANCH   2  11
ATOM     10  N   UNL     1      49.328   7.881  18.143  0.00  0.00    +0.000 N 
ATOM     11  C   UNL     1      49.485   8.503  16.934  0.00  0.00    +0.000 C 
ATOM     12  O   UNL     1      50.195   9.493  16.817  0.00  0.00    +0.000 OA
ATOM     13  H   UNL     1      49.893   8.232  18.906  0.00  0.00    +0.000 HD
ATOM     14  H   UNL     1      48.975   6.938  18.226  0.00  0.00    +0.000 HD
ENDBRANCH   2  11
ENDBRANCH   1   6
BRANCH   1  15
ATOM     15  C   UNL     1      45.213   6.278  10.943  0.00  0.00    +0.000 C 
BRANCH  15  16
ATOM     16  C   UNL     1      44.996   4.969  10.232  0.00  0.00    +0.000 A 
ATOM     17  C   UNL     1      44.231   3.961  10.814  0.00  0.00    +0.000 A 
ATOM     18  N   UNL     1      43.979   2.776  10.226  0.00  0.00    +0.000 NA
ATOM     19  C   UNL     1      44.517   2.584   8.997  0.00  0.00    +0.000 A 
ATOM     20  C   UNL     1      45.269   3.528   8.293  0.00  0.00    +0.000 A 
ATOM     21  C   UNL     1      45.516   4.734   8.950  0.00  0.00    +0.000 A 
BRANCH  20  22
ATOM     22  N   UNL     1      45.811   3.222   7.027  0.00  0.00    +0.000 N 
ATOM     23  H   UNL     1      45.387   3.782   6.289  0.00  0.00    +0.000 HD
BRANCH  22  24
ATOM     24  C   UNL     1      47.196   2.932   6.760  0.00  0.00    +0.000 C 
ATOM     25  C   UNL     1      47.484   2.611   5.276  0.00  0.00    +0.000 C 
ATOM     26  N   UNL     1      48.284   1.442   5.709  0.00  0.00    +0.000 NA
ATOM     27  C   UNL     1      47.562   1.452   7.002  0.00  0.00    +0.000 C 
ATOM     28  H   UNL     1      49.279   1.648   5.803  0.00  0.00    +0.000 HD
ENDBRANCH  22  24
ENDBRANCH  20  22
ENDBRANCH  15  16
ENDBRANCH   1  15
TORSDOF 6
ENDMDL
MODEL 8
REMARK VINA RESULT:    -6.272      3.153      4.920
REMARK INTER + INTRA:          -9.120
REMARK INTER:                  -8.252
REMARK INTRA:                  -0.868
REMARK UNBOUND:                -0.647
REMARK  Name = 
REMARK  6 active torsions:
REMARK  status: ('A' for Active; 'I' for Inactive)
REMARK    1  A    between atoms: C_2  and  C_4
REMARK    2  A    between atoms: N_8  and  C_9
REMARK    3  A    between atoms: C_9  and  C_10
REMARK    4  A    between atoms: C_10  and  C_11
REMARK    5  A    between atoms: C_15  and  N_16
REMARK    6  A    between atoms: N_16  and  C_17
REMARK                            x       y       z     vdW  Elec       q    Type
REMARK                         _______ _______ _______ _____ _____    ______ ____
ROOT
ATOM      1  C   UNL     1      48.766   7.449  12.986  0.00  0.00    +0.000 C 
ENDROOT
BRANCH   1   6
ATOM      2  C   UNL     1      45.083   4.204  11.721  0.00  0.00    +0.000 A 
ATOM      3  C   UNL     1      45.884   4.224  12.856  0.00  0.00    +0.000 A 
ATOM      4  C   UNL     1      46.705   5.328  13.087  0.00  0.00    +0.000 A 
ATOM      5  C   UNL     1      46.729   6.377  12.171  0.00  0.00    +0.000 A 
ATOM      6  N   UNL     1      47.449   7.545  12.375  0.00  0.00    +0.000 N 
ATOM      7  N   UNL     1      45.987   6.348  11.048  0.00  0.00    +0.000 NA
ATOM      8  C   UNL     1      45.186   5.268  10.840  0.00  0.00    +0.000 A 
ATOM      9  H   UNL     1      47.398   8.067  11.502  0.00  0.00    +0.000 HD
BRANCH   2  11
ATOM     10  N   UNL     1      43.648   2.406  12.497  0.00  0.00    +0.000 N 
ATOM     11  C   UNL     1      44.137   3.110  11.429  0.00  0.00    +0.000 C 
ATOM     12  O   UNL     1      43.768   2.866  10.287  0.00  0.00    +0.000 OA
ATOM     13  H   UNL     1      42.911   1.742  12.298  0.00  0.00    +0.000 HD
ATOM     14  H   UNL     1      43.724   2.742  13.447  0.00  0.00    +0.000 HD
ENDBRANCH   2  11
ENDBRANCH   1   6
BRANCH   1  15
ATOM     15  C   UNL     1      48.937   8.521  14.068  0.00  0.00    +0.000 C 
BRANCH  15  16
ATOM     16  C   UNL     1      48.879   7.916  15.445  0.00  0.00    +0.000 A 
ATOM     17  C   UNL     1      48.419   8.658  16.530  0.00  0.00    +0.000 A 
ATOM     18  N   UNL     1      48.321   8.174  17.782  0.00  0.00    +0.000 NA
ATOM     19  C   UNL     1      48.701   6.886  17.964  0.00  0.00    +0.000 A 
ATOM     20  C   UNL     1      49.144   6.028  16.954  0.00  0.00    +0.000 A 
ATOM     21  C   UNL     1      49.243   6.581  15.676  0.00  0.00    +0.000 A 
BRANCH  20  22
ATOM     22  N   UNL     1      49.545   4.709  17.249  0.00  0.00    +0.000 N 
ATOM     23  H   UNL     1      50.133   4.669  18.081  0.00  0.00    +0.000 HD
BRANCH  22  24
ATOM     24  C   UNL     1      48.722   3.535  17.111  0.00  0.00    +0.000 C 
ATOM     25  C   UNL     1      47.302   3.835  16.580  0.00  0.00    +0.000 C 
ATOM     26  N   UNL     1      46.746   2.967  17.642  0.00  0.00    +0.000 NA
ATOM     27  C   UNL     1      47.995   3.148  18.418  0.00  0.00    +0.000 C 
ATOM     28  H   UNL     1      46.599   2.003  17.339  0.00  0.00    +0.000 HD
ENDBRANCH  22  24
ENDBRANCH  20  22
ENDBRANCH  15  16
ENDBRANCH   1  15
TORSDOF 6
ENDMDL
MODEL 9
REMARK VINA RESULT:    -6.234      4.241      6.089
REMARK INTER + INTRA:          -9.068
REMARK INTER:                  -8.190
REMARK INTRA:                  -0.878
REMARK UNBOUND:                -0.647
REMARK  Name = 
REMARK  6 active torsions:
REMARK  status: ('A' for Active; 'I' for Inactive)
REMARK    1  A    between atoms: C_2  and  C_4
REMARK    2  A    between atoms: N_8  and  C_9
REMARK    3  A    between atoms: C_9  and  C_10
REMARK    4  A    between atoms: C_10  and  C_11
REMARK    5  A    between atoms: C_15  and  N_16
REMARK    6  A    between atoms: N_16  and  C_17
REMARK                            x       y       z     vdW  Elec       q    Type
REMARK                         _______ _______ _______ _____ _____    ______ ____
ROOT
ATOM      1  C   UNL     1      49.428   8.088  13.585  0.00  0.00    +0.000 C 
ENDROOT
BRANCH   1   6
ATOM      2  C   UNL     1      45.265   5.223  13.188  0.00  0.00    +0.000 A 
ATOM      3  C   UNL     1      45.436   6.569  12.889  0.00  0.00    +0.000 A 
ATOM      4  C   UNL     1      46.724   7.106  12.892  0.00  0.00    +0.000 A 
ATOM      5  C   UNL     1      47.811   6.296  13.214  0.00  0.00    +0.000 A 
ATOM      6  N   UNL     1      49.126   6.732  13.150  0.00  0.00    +0.000 N 
ATOM      7  N   UNL     1      47.651   5.001  13.544  0.00  0.00    +0.000 NA
ATOM      8  C   UNL     1      46.389   4.490  13.531  0.00  0.00    +0.000 A 
ATOM      9  H   UNL     1      49.692   5.993  13.565  0.00  0.00    +0.000 HD
BRANCH   2  11
ATOM     10  N   UNL     1      42.841   5.360  13.168  0.00  0.00    +0.000 N 
ATOM     11  C   UNL     1      43.949   4.556  13.146  0.00  0.00    +0.000 C 
ATOM     12  O   UNL     1      43.849   3.339  13.053  0.00  0.00    +0.000 OA
ATOM     13  H   UNL     1      41.951   4.902  13.016  0.00  0.00    +0.000 HD
ATOM     14  H   UNL     1      42.888   6.352  12.982  0.00  0.00    +0.000 HD
ENDBRANCH   2  11
ENDBRANCH   1   6
BRANCH   1  15
ATOM     15  C   UNL     1      50.460   8.072  14.718  0.00  0.00    +0.000 C 
BRANCH  15  16
ATOM     16  C   UNL     1      49.899   7.423  15.954  0.00  0.00    +0.000 A 
ATOM     17  C   UNL     1      48.878   8.035  16.678  0.00  0.00    +0.000 A 
ATOM     18  N   UNL     1      48.315   7.502  17.779  0.00  0.00    +0.000 NA
ATOM     19  C   UNL     1      48.794   6.300  18.180  0.00  0.00    +0.000 A 
ATOM     20  C   UNL     1      49.786   5.569  17.522  0.00  0.00    +0.000 A 
ATOM     21  C   UNL     1      50.349   6.170  16.395  0.00  0.00    +0.000 A 
BRANCH  20  22
ATOM     22  N   UNL     1      50.238   4.336  18.037  0.00  0.00    +0.000 N 
ATOM     23  H   UNL     1      50.602   4.432  18.984  0.00  0.00    +0.000 HD
BRANCH  22  24
ATOM     24  C   UNL     1      49.602   3.061  17.827  0.00  0.00    +0.000 C 
ATOM     25  C   UNL     1      50.464   2.068  17.014  0.00  0.00    +0.000 C 
ATOM     26  N   UNL     1      49.277   1.752  16.187  0.00  0.00    +0.000 NA
ATOM     27  C   UNL     1      48.674   3.043  16.593  0.00  0.00    +0.000 C 
ATOM     28  H   UNL     1      48.756   0.942  16.524  0.00  0.00    +0.000 HD
ENDBRANCH  22  24
ENDBRANCH  20  22
ENDBRANCH  15  16
ENDBRANCH   1  15
TORSDOF 6
ENDMDL
