MODEL 1
REMARK VINA RESULT:    -8.374      0.000      0.000
REMARK INTER + INTRA:         -12.165
REMARK INTER:                 -11.312
REMARK INTRA:                  -0.854
REMARK UNBOUND:                -0.854
REMARK  Name = 
REMARK  7 active torsions:
REMARK  status: ('A' for Active; 'I' for Inactive)
REMARK    1  A    between atoms: C_1  and  N_2
REMARK    2  A    between atoms: N_2  and  C_3
REMARK    3  A    between atoms: C_3  and  C_4
REMARK    4  A    between atoms: C_8  and  C_9
REMARK    5  A    between atoms: C_9  and  N_10
REMARK    6  A    between atoms: C_11  and  C_13
REMARK    7  A    between atoms: C_24  and  C_26
REMARK                            x       y       z     vdW  Elec       q    Type
REMARK                         _______ _______ _______ _____ _____    ______ ____
ROOT
ATOM      1  C   UNL     1      48.750   5.589  18.600  0.00  0.00    +0.000 A 
ATOM      2  C   UNL     1      48.262   6.411  19.608  0.00  0.00    +0.000 A 
ATOM      3  C   UNL     1      47.988   7.741  19.307  0.00  0.00    +0.000 A 
ATOM      4  C   UNL     1      48.206   8.215  18.015  0.00  0.00    +0.000 A 
ATOM      5  C   UNL     1      48.705   7.339  17.057  0.00  0.00    +0.000 A 
ATOM      6  N   UNL     1      48.973   6.040  17.337  0.00  0.00    +0.000 NA
ENDROOT
BRANCH   1   7
ATOM      7  C   UNL     1      49.038   4.126  18.857  0.00  0.00    +0.000 C 
BRANCH   7   9
ATOM      8  C   UNL     1      47.297   3.083  17.352  0.00  0.00    +0.000 C 
ATOM      9  N   UNL     1      48.678   3.144  17.820  0.00  0.00    +0.000 N 
ATOM     10  C   UNL     1      49.611   2.411  17.071  0.00  0.00    +0.000 C 
ATOM     11  O   UNL     1      49.280   1.776  16.066  0.00  0.00    +0.000 OA
BRANCH  10  12
ATOM     12  C   UNL     1      51.065   2.390  17.410  0.00  0.00    +0.000 A 
ATOM     13  C   UNL     1      51.799   3.523  17.753  0.00  0.00    +0.000 A 
ATOM     14  C   UNL     1      53.149   3.378  18.020  0.00  0.00    +0.000 A 
ATOM     15  N   UNL     1      53.789   2.192  18.035  0.00  0.00    +0.000 NA
ATOM     16  C   UNL     1      53.041   1.096  17.789  0.00  0.00    +0.000 A 
ATOM     17  C   UNL     1      51.697   1.143  17.467  0.00  0.00    +0.000 A 
ENDBRANCH  10  12
ENDBRANCH   7   9
ENDBRANCH   1   7
BRANCH   5  18
ATOM     18  C   UNL     1      48.931   7.799  15.638  0.00  0.00    +0.000 C 
BRANCH  18  19
ATOM     19  N   UNL     1      47.814   7.479  14.773  0.00  0.00    +0.000 N 
ATOM     20  C   UNL     1      47.952   6.725  13.641  0.00  0.00    +0.000 C 
ATOM     21  O   UNL     1      49.044   6.294  13.278  0.00  0.00    +0.000 OA
ATOM     22  H   UNL     1      46.959   8.002  14.938  0.00  0.00    +0.000 HD
BRANCH  20  23
ATOM     23  C   UNL     1      46.718   6.393  12.912  0.00  0.00    +0.000 A 
ATOM     24  C   UNL     1      45.999   7.408  12.294  0.00  0.00    +0.000 A 
ATOM     25  S   UNL     1      44.626   6.860  11.447  0.00  0.00    +0.000 S 
ATOM     26  C   UNL     1      44.913   5.249  11.918  0.00  0.00    +0.000 A 
ATOM     27  N   UNL     1      44.069   4.254  11.536  0.00  0.00    +0.000 NA
ATOM     28  C   UNL     1      44.386   3.083  11.988  0.00  0.00    +0.000 A 
ATOM     29  N   UNL     1      45.475   2.825  12.778  0.00  0.00    +0.000 N 
ATOM     30  C   UNL     1      46.382   3.789  13.145  0.00  0.00    +0.000 A 
ATOM     31  O   UNL     1      47.390   3.507  13.784  0.00  0.00    +0.000 OA
ATOM     32  C   UNL     1      46.055   5.129  12.689  0.00  0.00    +0.000 A 
ATOM     33  H   UNL     1      45.678   1.885  13.083  0.00  0.00    +0.000 HD
ENDBRANCH  20  23
ENDBRANCH  18  19
ENDBRANCH   5  18
TORSDOF 6
ENDMDL
MODEL 2
REMARK VINA RESULT:    -7.909      3.014      7.602
REMARK INTER + INTRA:         -11.537
REMARK INTER:                 -10.415
REMARK INTRA:                  -1.123
REMARK UNBOUND:                -0.854
REMARK  Name = 
REMARK  7 active torsions:
REMARK  status: ('A' for Active; 'I' for Inactive)
REMARK    1  A    between atoms: C_1  and  N_2
REMARK    2  A    between atoms: N_2  and  C_3
REMARK    3  A    between atoms: C_3  and  C_4
REMARK    4  A    between atoms: C_8  and  C_9
REMARK    5  A    between atoms: C_9  and  N_10
REMARK    6  A    between atoms: C_11  and  C_13
REMARK    7  A    between atoms: C_24  and  C_26
REMARK                            x       y       z     vdW  Elec       q    Type
REMARK                         _______ _______ _______ _____ _____    ______ ____
ROOT
ATOM      1  C   UNL     1      45.864   6.545  12.095  0.00  0.00    +0.000 A 
ATOM      2  C   UNL     1      45.006   7.400  11.415  0.00  0.00    +0.000 A 
ATOM      3  C   UNL     1      45.066   8.762  11.693  0.00  0.00    +0.000 A 
ATOM      4  C   UNL     1      45.976   9.234  12.637  0.00  0.00    +0.000 A 
ATOM      5  C   UNL     1      46.798   8.320  13.287  0.00  0.00    +0.000 A 
ATOM      6  N   UNL     1      46.752   6.992  13.023  0.00  0.00    +0.000 NA
ENDROOT
BRANCH   1   7
ATOM      7  C   UNL     1      45.869   5.058  11.815  0.00  0.00    +0.000 C 
BRANCH   7   9
ATOM      8  C   UNL     1      43.699   4.551  13.005  0.00  0.00    +0.000 C 
ATOM      9  N   UNL     1      44.593   4.325  11.873  0.00  0.00    +0.000 N 
ATOM     10  C   UNL     1      44.054   3.594  10.803  0.00  0.00    +0.000 C 
ATOM     11  O   UNL     1      42.888   3.190  10.817  0.00  0.00    +0.000 OA
BRANCH  10  12
ATOM     12  C   UNL     1      44.836   3.299   9.566  0.00  0.00    +0.000 A 
ATOM     13  C   UNL     1      45.250   4.271   8.659  0.00  0.00    +0.000 A 
ATOM     14  C   UNL     1      45.947   3.869   7.533  0.00  0.00    +0.000 A 
ATOM     15  N   UNL     1      46.311   2.594   7.291  0.00  0.00    +0.000 NA
ATOM     16  C   UNL     1      45.978   1.680   8.226  0.00  0.00    +0.000 A 
ATOM     17  C   UNL     1      45.244   1.977   9.360  0.00  0.00    +0.000 A 
ENDBRANCH  10  12
ENDBRANCH   7   9
ENDBRANCH   1   7
BRANCH   5  18
ATOM     18  C   UNL     1      47.819   8.787  14.296  0.00  0.00    +0.000 C 
BRANCH  18  19
ATOM     19  N   UNL     1      48.070   7.796  15.321  0.00  0.00    +0.000 N 
ATOM     20  C   UNL     1      49.277   7.168  15.458  0.00  0.00    +0.000 C 
ATOM     21  O   UNL     1      50.216   7.394  14.699  0.00  0.00    +0.000 OA
ATOM     22  H   UNL     1      47.252   7.443  15.809  0.00  0.00    +0.000 HD
BRANCH  20  23
ATOM     23  C   UNL     1      49.423   6.257  16.604  0.00  0.00    +0.000 A 
ATOM     24  C   UNL     1      50.393   6.521  17.564  0.00  0.00    +0.000 A 
ATOM     25  S   UNL     1      50.404   5.409  18.855  0.00  0.00    +0.000 S 
ATOM     26  C   UNL     1      49.144   4.502  18.153  0.00  0.00    +0.000 A 
ATOM     27  N   UNL     1      48.680   3.377  18.758  0.00  0.00    +0.000 NA
ATOM     28  C   UNL     1      47.744   2.767  18.103  0.00  0.00    +0.000 A 
ATOM     29  N   UNL     1      47.231   3.192  16.906  0.00  0.00    +0.000 N 
ATOM     30  C   UNL     1      47.634   4.349  16.285  0.00  0.00    +0.000 A 
ATOM     31  O   UNL     1      47.095   4.741  15.256  0.00  0.00    +0.000 OA
ATOM     32  C   UNL     1      48.706   5.056  16.963  0.00  0.00    +0.000 A 
ATOM     33  H   UNL     1      46.488   2.680  16.454  0.00  0.00    +0.000 HD
ENDBRANCH  20  23
ENDBRANCH  18  19
ENDBRANCH   5  18
TORSDOF 6
ENDMDL
MODEL 3
REMARK VINA RESULT:    -7.535      1.973      4.825
REMARK INTER + INTRA:         -11.032
REMARK INTER:                  -9.841
REMARK INTRA:                  -1.191
REMARK UNBOUND:                -0.854
REMARK  Name = 
REMARK  7 active torsions:
REMARK  status: ('A' for Active; 'I' for Inactive)
REMARK    1  A    between atoms: C_1  and  N_2
REMARK    2  A    between atoms: N_2  and  C_3
REMARK    3  A    between atoms: C_3  and  C_4
REMARK    4  A    between atoms: C_8  and  C_9
REMARK    5  A    between atoms: C_9  and  N_10
REMARK    6  A    between atoms: C_11  and  C_13
REMARK    7  A    between atoms: C_24  and  C_26
REMARK                            x       y       z     vdW  Elec       q    Type
REMARK                         _______ _______ _______ _____ _____    ______ ____
ROOT
ATOM      1  C   UNL     1      50.584   5.089  17.312  0.00  0.00    +0.000 A 
ATOM      2  C   UNL     1      51.467   4.052  17.581  0.00  0.00    +0.000 A 
ATOM      3  C   UNL     1      50.987   2.746  17.559  0.00  0.00    +0.000 A 
ATOM      4  C   UNL     1      49.644   2.510  17.271  0.00  0.00    +0.000 A 
ATOM      5  C   UNL     1      48.814   3.596  17.020  0.00  0.00    +0.000 A 
ATOM      6  N   UNL     1      49.270   4.873  17.036  0.00  0.00    +0.000 NA
ENDROOT
BRANCH   1   7
ATOM      7  C   UNL     1      51.052   6.528  17.290  0.00  0.00    +0.000 C 
BRANCH   7   9
ATOM      8  C   UNL     1      50.329   7.619  15.129  0.00  0.00    +0.000 C 
ATOM      9  N   UNL     1      50.232   7.525  16.583  0.00  0.00    +0.000 N 
ATOM     10  C   UNL     1      49.182   8.245  17.174  0.00  0.00    +0.000 C 
ATOM     11  O   UNL     1      48.381   8.895  16.497  0.00  0.00    +0.000 OA
BRANCH  10  12
ATOM     12  C   UNL     1      48.938   8.232  18.647  0.00  0.00    +0.000 A 
ATOM     13  C   UNL     1      49.639   9.019  19.557  0.00  0.00    +0.000 A 
ATOM     14  C   UNL     1      49.339   8.896  20.903  0.00  0.00    +0.000 A 
ATOM     15  N   UNL     1      48.359   8.107  21.385  0.00  0.00    +0.000 NA
ATOM     16  C   UNL     1      47.632   7.421  20.479  0.00  0.00    +0.000 A 
ATOM     17  C   UNL     1      47.884   7.443  19.120  0.00  0.00    +0.000 A 
ENDBRANCH  10  12
ENDBRANCH   7   9
ENDBRANCH   1   7
BRANCH   5  18
ATOM     18  C   UNL     1      47.359   3.389  16.675  0.00  0.00    +0.000 C 
BRANCH  18  19
ATOM     19  N   UNL     1      46.873   4.375  15.733  0.00  0.00    +0.000 N 
ATOM     20  C   UNL     1      46.878   4.166  14.381  0.00  0.00    +0.000 C 
ATOM     21  O   UNL     1      47.319   3.132  13.886  0.00  0.00    +0.000 OA
ATOM     22  H   UNL     1      46.712   5.306  16.106  0.00  0.00    +0.000 HD
BRANCH  20  23
ATOM     23  C   UNL     1      46.262   5.211  13.549  0.00  0.00    +0.000 A 
ATOM     24  C   UNL     1      46.910   6.430  13.398  0.00  0.00    +0.000 A 
ATOM     25  S   UNL     1      46.100   7.516  12.364  0.00  0.00    +0.000 S 
ATOM     26  C   UNL     1      44.825   6.413  12.118  0.00  0.00    +0.000 A 
ATOM     27  N   UNL     1      43.767   6.740  11.330  0.00  0.00    +0.000 NA
ATOM     28  C   UNL     1      42.855   5.825  11.254  0.00  0.00    +0.000 A 
ATOM     29  N   UNL     1      42.918   4.613  11.889  0.00  0.00    +0.000 N 
ATOM     30  C   UNL     1      43.990   4.219  12.653  0.00  0.00    +0.000 A 
ATOM     31  O   UNL     1      44.049   3.096  13.140  0.00  0.00    +0.000 OA
ATOM     32  C   UNL     1      45.029   5.224  12.797  0.00  0.00    +0.000 A 
ATOM     33  H   UNL     1      42.180   3.934  11.775  0.00  0.00    +0.000 HD
ENDBRANCH  20  23
ENDBRANCH  18  19
ENDBRANCH   5  18
TORSDOF 6
ENDMDL
MODEL 4
REMARK VINA RESULT:    -7.520      2.503      4.688
REMARK INTER + INTRA:         -11.012
REMARK INTER:                  -9.787
REMARK INTRA:                  -1.225
REMARK UNBOUND:                -0.854
REMARK  Name = 
REMARK  7 active torsions:
REMARK  status: ('A' for Active; 'I' for Inactive)
REMARK    1  A    between atoms: C_1  and  N_2
REMARK    2  A    between atoms: N_2  and  C_3
REMARK    3  A    between atoms: C_3  and  C_4
REMARK    4  A    between atoms: C_8  and  C_9
REMARK    5  A    between atoms: C_9  and  N_10
REMARK    6  A    between atoms: C_11  and  C_13
REMARK    7  A    between atoms: C_24  and  C_26
REMARK                            x       y       z     vdW  Elec       q    Type
REMARK                         _______ _______ _______ _____ _____    ______ ____
ROOT
ATOM      1  C   UNL     1      50.686   4.888  17.401  0.00  0.00    +0.000 A 
ATOM      2  C   UNL     1      51.499   3.769  17.533  0.00  0.00    +0.000 A 
ATOM      3  C   UNL     1      50.920   2.509  17.422  0.00  0.00    +0.000 A 
ATOM      4  C   UNL     1      49.552   2.397  17.184  0.00  0.00    +0.000 A 
ATOM      5  C   UNL     1      48.796   3.558  17.072  0.00  0.00    +0.000 A 
ATOM      6  N   UNL     1      49.349   4.792  17.175  0.00  0.00    +0.000 NA
ENDROOT
BRANCH   1   7
ATOM      7  C   UNL     1      51.261   6.285  17.480  0.00  0.00    +0.000 C 
BRANCH   7   9
ATOM      8  C   UNL     1      53.433   7.101  18.479  0.00  0.00    +0.000 C 
ATOM      9  N   UNL     1      52.056   6.654  18.663  0.00  0.00    +0.000 N 
ATOM     10  C   UNL     1      51.521   6.835  19.948  0.00  0.00    +0.000 C 
ATOM     11  O   UNL     1      52.173   7.362  20.853  0.00  0.00    +0.000 OA
BRANCH  10  12
ATOM     12  C   UNL     1      50.119   6.449  20.289  0.00  0.00    +0.000 A 
ATOM     13  C   UNL     1      49.762   5.212  20.819  0.00  0.00    +0.000 A 
ATOM     14  C   UNL     1      48.423   4.963  21.067  0.00  0.00    +0.000 A 
ATOM     15  N   UNL     1      47.444   5.872  20.889  0.00  0.00    +0.000 NA
ATOM     16  C   UNL     1      47.822   7.094  20.460  0.00  0.00    +0.000 A 
ATOM     17  C   UNL     1      49.127   7.424  20.141  0.00  0.00    +0.000 A 
ENDBRANCH  10  12
ENDBRANCH   7   9
ENDBRANCH   1   7
BRANCH   5  18
ATOM     18  C   UNL     1      47.316   3.488  16.786  0.00  0.00    +0.000 C 
BRANCH  18  19
ATOM     19  N   UNL     1      46.898   4.474  15.811  0.00  0.00    +0.000 N 
ATOM     20  C   UNL     1      46.901   4.226  14.466  0.00  0.00    +0.000 C 
ATOM     21  O   UNL     1      47.282   3.153  14.005  0.00  0.00    +0.000 OA
ATOM     22  H   UNL     1      46.791   5.423  16.156  0.00  0.00    +0.000 HD
BRANCH  20  23
ATOM     23  C   UNL     1      46.356   5.282  13.598  0.00  0.00    +0.000 A 
ATOM     24  C   UNL     1      47.102   6.432  13.377  0.00  0.00    +0.000 A 
ATOM     25  S   UNL     1      46.363   7.536  12.310  0.00  0.00    +0.000 S 
ATOM     26  C   UNL     1      44.993   6.539  12.143  0.00  0.00    +0.000 A 
ATOM     27  N   UNL     1      43.948   6.921  11.362  0.00  0.00    +0.000 NA
ATOM     28  C   UNL     1      42.959   6.086  11.349  0.00  0.00    +0.000 A 
ATOM     29  N   UNL     1      42.933   4.903  12.039  0.00  0.00    +0.000 N 
ATOM     30  C   UNL     1      43.986   4.452  12.798  0.00  0.00    +0.000 A 
ATOM     31  O   UNL     1      43.960   3.351  13.336  0.00  0.00    +0.000 OA
ATOM     32  C   UNL     1      45.111   5.369  12.872  0.00  0.00    +0.000 A 
ATOM     33  H   UNL     1      42.137   4.286  11.973  0.00  0.00    +0.000 HD
ENDBRANCH  20  23
ENDBRANCH  18  19
ENDBRANCH   5  18
TORSDOF 6
ENDMDL
MODEL 5
REMARK VINA RESULT:    -7.498      2.556      4.106
REMARK INTER + INTRA:         -10.981
REMARK INTER:                  -9.995
REMARK INTRA:                  -0.987
REMARK UNBOUND:                -0.854
REMARK  Name = 
REMARK  7 active torsions:
REMARK  status: ('A' for Active; 'I' for Inactive)
REMARK    1  A    between atoms: C_1  and  N_2
REMARK    2  A    between atoms: N_2  and  C_3
REMARK    3  A    between atoms: C_3  and  C_4
REMARK    4  A    between atoms: C_8  and  C_9
REMARK    5  A    between atoms: C_9  and  N_10
REMARK    6  A    between atoms: C_11  and  C_13
REMARK    7  A    between atoms: C_24  and  C_26
REMARK                            x       y       z     vdW  Elec       q    Type
REMARK                         _______ _______ _______ _____ _____    ______ ____
ROOT
ATOM      1  C   UNL     1      49.768   7.443  15.285  0.00  0.00    +0.000 A 
ATOM      2  C   UNL     1      50.791   7.833  14.431  0.00  0.00    +0.000 A 
ATOM      3  C   UNL     1      50.457   8.321  13.171  0.00  0.00    +0.000 A 
ATOM      4  C   UNL     1      49.117   8.407  12.798  0.00  0.00    +0.000 A 
ATOM      5  C   UNL     1      48.145   7.989  13.700  0.00  0.00    +0.000 A 
ATOM      6  N   UNL     1      48.457   7.515  14.931  0.00  0.00    +0.000 NA
ENDROOT
BRANCH   1   7
ATOM      7  C   UNL     1      50.065   6.934  16.678  0.00  0.00    +0.000 C 
BRANCH   7   9
ATOM      8  C   UNL     1      48.424   8.070  18.227  0.00  0.00    +0.000 C 
ATOM      9  N   UNL     1      48.960   6.843  17.647  0.00  0.00    +0.000 N 
ATOM     10  C   UNL     1      48.216   5.677  17.887  0.00  0.00    +0.000 C 
ATOM     11  O   UNL     1      47.164   5.702  18.530  0.00  0.00    +0.000 OA
BRANCH  10  12
ATOM     12  C   UNL     1      48.623   4.347  17.344  0.00  0.00    +0.000 A 
ATOM     13  C   UNL     1      49.733   3.634  17.786  0.00  0.00    +0.000 A 
ATOM     14  C   UNL     1      50.022   2.422  17.182  0.00  0.00    +0.000 A 
ATOM     15  N   UNL     1      49.253   1.853  16.233  0.00  0.00    +0.000 NA
ATOM     16  C   UNL     1      48.132   2.518  15.883  0.00  0.00    +0.000 A 
ATOM     17  C   UNL     1      47.783   3.754  16.395  0.00  0.00    +0.000 A 
ENDBRANCH  10  12
ENDBRANCH   7   9
ENDBRANCH   1   7
BRANCH   5  18
ATOM     18  C   UNL     1      46.679   8.090  13.352  0.00  0.00    +0.000 C 
BRANCH  18  19
ATOM     19  N   UNL     1      46.104   6.802  13.026  0.00  0.00    +0.000 N 
ATOM     20  C   UNL     1      45.219   6.631  11.996  0.00  0.00    +0.000 C 
ATOM     21  O   UNL     1      44.843   7.571  11.301  0.00  0.00    +0.000 OA
ATOM     22  H   UNL     1      46.232   6.069  13.716  0.00  0.00    +0.000 HD
BRANCH  20  23
ATOM     23  C   UNL     1      44.792   5.252  11.714  0.00  0.00    +0.000 A 
ATOM     24  C   UNL     1      44.108   4.538  12.690  0.00  0.00    +0.000 A 
ATOM     25  S   UNL     1      43.635   2.978  12.196  0.00  0.00    +0.000 S 
ATOM     26  C   UNL     1      44.371   3.179  10.674  0.00  0.00    +0.000 A 
ATOM     27  N   UNL     1      44.348   2.178   9.754  0.00  0.00    +0.000 NA
ATOM     28  C   UNL     1      44.971   2.451   8.653  0.00  0.00    +0.000 A 
ATOM     29  N   UNL     1      45.603   3.638   8.393  0.00  0.00    +0.000 N 
ATOM     30  C   UNL     1      45.607   4.695   9.270  0.00  0.00    +0.000 A 
ATOM     31  O   UNL     1      46.112   5.771   8.971  0.00  0.00    +0.000 OA
ATOM     32  C   UNL     1      44.948   4.429  10.537  0.00  0.00    +0.000 A 
ATOM     33  H   UNL     1      46.056   3.795   7.505  0.00  0.00    +0.000 HD
ENDBRANCH  20  23
ENDBRANCH  18  19
ENDBRANCH   5  18
TORSDOF 6
ENDMDL
MODEL 6
REMARK VINA RESULT:    -7.489      3.027      4.244
REMARK INTER + INTRA:         -10.970
REMARK INTER:                 -10.105
REMARK INTRA:                  -0.865
REMARK UNBOUND:                -0.854
REMARK  Name = 
REMARK  7 active torsions:
REMARK  status: ('A' for Active; 'I' for Inactive)
REMARK    1  A    between atoms: C_1  and  N_2
REMARK    2  A    between atoms: N_2  and  C_3
REMARK    3  A    between atoms: C_3  and  C_4
REMARK    4  A    between atoms: C_8  and  C_9
REMARK    5  A    between atoms: C_9  and  N_10
REMARK    6  A    between atoms: C_11  and  C_13
REMARK    7  A    between atoms: C_24  and  C_26
REMARK                            x       y       z     vdW  Elec       q    Type
REMARK                         _______ _______ _______ _____ _____    ______ ____
ROOT
ATOM      1  C   UNL     1      48.753   7.152  15.423  0.00  0.00    +0.000 A 
ATOM      2  C   UNL     1      49.009   8.402  15.970  0.00  0.00    +0.000 A 
ATOM      3  C   UNL     1      48.811   9.528  15.177  0.00  0.00    +0.000 A 
ATOM      4  C   UNL     1      48.364   9.379  13.866  0.00  0.00    +0.000 A 
ATOM      5  C   UNL     1      48.137   8.097  13.380  0.00  0.00    +0.000 A 
ATOM      6  N   UNL     1      48.323   6.992  14.143  0.00  0.00    +0.000 NA
ENDROOT
BRANCH   1   7
ATOM      7  C   UNL     1      48.919   5.892  16.243  0.00  0.00    +0.000 C 
BRANCH   7   9
ATOM      8  C   UNL     1      47.343   4.334  15.030  0.00  0.00    +0.000 C 
ATOM      9  N   UNL     1      47.810   4.923  16.281  0.00  0.00    +0.000 N 
ATOM     10  C   UNL     1      47.312   4.340  17.456  0.00  0.00    +0.000 C 
ATOM     11  O   UNL     1      46.547   3.373  17.425  0.00  0.00    +0.000 OA
BRANCH  10  12
ATOM     12  C   UNL     1      47.713   4.816  18.813  0.00  0.00    +0.000 A 
ATOM     13  C   UNL     1      48.711   4.224  19.581  0.00  0.00    +0.000 A 
ATOM     14  C   UNL     1      48.972   4.743  20.838  0.00  0.00    +0.000 A 
ATOM     15  N   UNL     1      48.361   5.833  21.342  0.00  0.00    +0.000 NA
ATOM     16  C   UNL     1      47.461   6.446  20.546  0.00  0.00    +0.000 A 
ATOM     17  C   UNL     1      47.100   5.978  19.296  0.00  0.00    +0.000 A 
ENDBRANCH  10  12
ENDBRANCH   7   9
ENDBRANCH   1   7
BRANCH   5  18
ATOM     18  C   UNL     1      47.625   7.886  11.975  0.00  0.00    +0.000 C 
BRANCH  18  19
ATOM     19  N   UNL     1      46.906   6.637  11.835  0.00  0.00    +0.000 N 
ATOM     20  C   UNL     1      45.541   6.568  11.858  0.00  0.00    +0.000 C 
ATOM     21  O   UNL     1      44.843   7.565  12.024  0.00  0.00    +0.000 OA
ATOM     22  H   UNL     1      47.463   5.791  11.917  0.00  0.00    +0.000 HD
BRANCH  20  23
ATOM     23  C   UNL     1      44.941   5.249  11.604  0.00  0.00    +0.000 A 
ATOM     24  C   UNL     1      44.220   4.623  12.613  0.00  0.00    +0.000 A 
ATOM     25  S   UNL     1      43.544   3.128  12.150  0.00  0.00    +0.000 S 
ATOM     26  C   UNL     1      44.233   3.238  10.596  0.00  0.00    +0.000 A 
ATOM     27  N   UNL     1      44.052   2.246   9.685  0.00  0.00    +0.000 NA
ATOM     28  C   UNL     1      44.656   2.441   8.557  0.00  0.00    +0.000 A 
ATOM     29  N   UNL     1      45.412   3.544   8.262  0.00  0.00    +0.000 N 
ATOM     30  C   UNL     1      45.579   4.595   9.132  0.00  0.00    +0.000 A 
ATOM     31  O   UNL     1      46.195   5.603   8.804  0.00  0.00    +0.000 OA
ATOM     32  C   UNL     1      44.948   4.411  10.427  0.00  0.00    +0.000 A 
ATOM     33  H   UNL     1      45.843   3.645   7.355  0.00  0.00    +0.000 HD
ENDBRANCH  20  23
ENDBRANCH  18  19
ENDBRANCH   5  18
TORSDOF 6
ENDMDL
MODEL 7
REMARK VINA RESULT:    -7.450      1.325      2.110
REMARK INTER + INTRA:         -10.917
REMARK INTER:                 -10.379
REMARK INTRA:                  -0.538
REMARK UNBOUND:                -0.854
REMARK  Name = 
REMARK  7 active torsions:
REMARK  status: ('A' for Active; 'I' for Inactive)
REMARK    1  A    between atoms: C_1  and  N_2
REMARK    2  A    between atoms: N_2  and  C_3
REMARK    3  A    between atoms: C_3  and  C_4
REMARK    4  A    between atoms: C_8  and  C_9
REMARK    5  A    between atoms: C_9  and  N_10
REMARK    6  A    between atoms: C_11  and  C_13
REMARK    7  A    between atoms: C_24  and  C_26
REMARK                            x       y       z     vdW  Elec       q    Type
REMARK                         _______ _______ _______ _____ _____    ______ ____
ROOT
ATOM      1  C   UNL     1      49.042   5.636  18.304  0.00  0.00    +0.000 A 
ATOM      2  C   UNL     1      48.910   6.584  19.310  0.00  0.00    +0.000 A 
ATOM      3  C   UNL     1      48.704   7.912  18.951  0.00  0.00    +0.000 A 
ATOM      4  C   UNL     1      48.635   8.258  17.603  0.00  0.00    +0.000 A 
ATOM      5  C   UNL     1      48.784   7.260  16.648  0.00  0.00    +0.000 A 
ATOM      6  N   UNL     1      48.982   5.962  16.985  0.00  0.00    +0.000 NA
ENDROOT
BRANCH   1   7
ATOM      7  C   UNL     1      49.236   4.171  18.631  0.00  0.00    +0.000 C 
BRANCH   7   9
ATOM      8  C   UNL     1      47.541   3.181  17.041  0.00  0.00    +0.000 C 
ATOM      9  N   UNL     1      48.884   3.168  17.611  0.00  0.00    +0.000 N 
ATOM     10  C   UNL     1      49.815   2.338  16.969  0.00  0.00    +0.000 C 
ATOM     11  O   UNL     1      49.514   1.680  15.969  0.00  0.00    +0.000 OA
BRANCH  10  12
ATOM     12  C   UNL     1      51.234   2.233  17.420  0.00  0.00    +0.000 A 
ATOM     13  C   UNL     1      51.906   1.027  17.597  0.00  0.00    +0.000 A 
ATOM     14  C   UNL     1      53.215   1.060  18.047  0.00  0.00    +0.000 A 
ATOM     15  N   UNL     1      53.906   2.197  18.263  0.00  0.00    +0.000 NA
ATOM     16  C   UNL     1      53.266   3.355  18.000  0.00  0.00    +0.000 A 
ATOM     17  C   UNL     1      51.947   3.425  17.592  0.00  0.00    +0.000 A 
ENDBRANCH  10  12
ENDBRANCH   7   9
ENDBRANCH   1   7
BRANCH   5  18
ATOM     18  C   UNL     1      48.688   7.582  15.176  0.00  0.00    +0.000 C 
BRANCH  18  19
ATOM     19  N   UNL     1      47.575   6.908  14.539  0.00  0.00    +0.000 N 
ATOM     20  C   UNL     1      47.734   6.092  13.453  0.00  0.00    +0.000 C 
ATOM     21  O   UNL     1      48.833   5.902  12.939  0.00  0.00    +0.000 OA
ATOM     22  H   UNL     1      46.649   7.224  14.811  0.00  0.00    +0.000 HD
BRANCH  20  23
ATOM     23  C   UNL     1      46.533   5.394  12.970  0.00  0.00    +0.000 A 
ATOM     24  C   UNL     1      46.460   4.011  13.080  0.00  0.00    +0.000 A 
ATOM     25  S   UNL     1      44.988   3.354  12.526  0.00  0.00    +0.000 S 
ATOM     26  C   UNL     1      44.413   4.890  12.071  0.00  0.00    +0.000 A 
ATOM     27  N   UNL     1      43.188   5.031  11.497  0.00  0.00    +0.000 NA
ATOM     28  C   UNL     1      42.888   6.247  11.171  0.00  0.00    +0.000 A 
ATOM     29  N   UNL     1      43.701   7.329  11.381  0.00  0.00    +0.000 N 
ATOM     30  C   UNL     1      44.922   7.243  12.005  0.00  0.00    +0.000 A 
ATOM     31  O   UNL     1      45.586   8.244  12.249  0.00  0.00    +0.000 OA
ATOM     32  C   UNL     1      45.322   5.893  12.362  0.00  0.00    +0.000 A 
ATOM     33  H   UNL     1      43.400   8.257  11.120  0.00  0.00    +0.000 HD
ENDBRANCH  20  23
ENDBRANCH  18  19
ENDBRANCH   5  18
TORSDOF 6
ENDMDL
MODEL 8
REMARK VINA RESULT:    -7.381      2.294      5.064
REMARK INTER + INTRA:         -10.824
REMARK INTER:                  -9.492
REMARK INTRA:                  -1.332
REMARK UNBOUND:                -0.854
REMARK  Name = 
REMARK  7 active torsions:
REMARK  status: ('A' for Active; 'I' for Inactive)
REMARK    1  A    between atoms: C_1  and  N_2
REMARK    2  A    between atoms: N_2  and  C_3
REMARK    3  A    between atoms: C_3  and  C_4
REMARK    4  A    between atoms: C_8  and  C_9
REMARK    5  A    between atoms: C_9  and  N_10
REMARK    6  A    between atoms: C_11  and  C_13
REMARK    7  A    between atoms: C_24  and  C_26
REMARK                            x       y       z     vdW  Elec       q    Type
REMARK                         _______ _______ _______ _____ _____    ______ ____
ROOT
ATOM      1  C   UNL     1      50.544   4.854  17.826  0.00  0.00    +0.000 A 
ATOM      2  C   UNL     1      51.418   3.775  17.767  0.00  0.00    +0.000 A 
ATOM      3  C   UNL     1      50.916   2.532  17.393  0.00  0.00    +0.000 A 
ATOM      4  C   UNL     1      49.563   2.398  17.090  0.00  0.00    +0.000 A 
ATOM      5  C   UNL     1      48.744   3.517  17.180  0.00  0.00    +0.000 A 
ATOM      6  N   UNL     1      49.221   4.734  17.540  0.00  0.00    +0.000 NA
ENDROOT
BRANCH   1   7
ATOM      7  C   UNL     1      51.035   6.236  18.195  0.00  0.00    +0.000 C 
BRANCH   7   9
ATOM      8  C   UNL     1      50.534   6.432  20.663  0.00  0.00    +0.000 C 
ATOM      9  N   UNL     1      50.378   6.945  19.306  0.00  0.00    +0.000 N 
ATOM     10  C   UNL     1      49.797   8.218  19.195  0.00  0.00    +0.000 C 
ATOM     11  O   UNL     1      49.465   8.866  20.191  0.00  0.00    +0.000 OA
BRANCH  10  12
ATOM     12  C   UNL     1      49.590   8.887  17.876  0.00  0.00    +0.000 A 
ATOM     13  C   UNL     1      50.469   9.821  17.333  0.00  0.00    +0.000 A 
ATOM     14  C   UNL     1      50.151  10.392  16.113  0.00  0.00    +0.000 A 
ATOM     15  N   UNL     1      49.072  10.051  15.381  0.00  0.00    +0.000 NA
ATOM     16  C   UNL     1      48.282   9.080  15.884  0.00  0.00    +0.000 A 
ATOM     17  C   UNL     1      48.490   8.482  17.113  0.00  0.00    +0.000 A 
ENDBRANCH  10  12
ENDBRANCH   7   9
ENDBRANCH   1   7
BRANCH   5  18
ATOM     18  C   UNL     1      47.277   3.427  16.835  0.00  0.00    +0.000 C 
BRANCH  18  19
ATOM     19  N   UNL     1      46.881   4.423  15.861  0.00  0.00    +0.000 N 
ATOM     20  C   UNL     1      46.884   4.178  14.515  0.00  0.00    +0.000 C 
ATOM     21  O   UNL     1      47.248   3.100  14.052  0.00  0.00    +0.000 OA
ATOM     22  H   UNL     1      46.790   5.373  16.207  0.00  0.00    +0.000 HD
BRANCH  20  23
ATOM     23  C   UNL     1      46.362   5.245  13.648  0.00  0.00    +0.000 A 
ATOM     24  C   UNL     1      47.120   6.391  13.448  0.00  0.00    +0.000 A 
ATOM     25  S   UNL     1      46.407   7.510  12.379  0.00  0.00    +0.000 S 
ATOM     26  C   UNL     1      45.032   6.526  12.182  0.00  0.00    +0.000 A 
ATOM     27  N   UNL     1      44.002   6.922  11.388  0.00  0.00    +0.000 NA
ATOM     28  C   UNL     1      43.007   6.096  11.352  0.00  0.00    +0.000 A 
ATOM     29  N   UNL     1      42.961   4.907  12.031  0.00  0.00    +0.000 N 
ATOM     30  C   UNL     1      43.998   4.442  12.803  0.00  0.00    +0.000 A 
ATOM     31  O   UNL     1      43.955   3.336  13.331  0.00  0.00    +0.000 OA
ATOM     32  C   UNL     1      45.129   5.348  12.903  0.00  0.00    +0.000 A 
ATOM     33  H   UNL     1      42.161   4.297  11.947  0.00  0.00    +0.000 HD
ENDBRANCH  20  23
ENDBRANCH  18  19
ENDBRANCH   5  18
TORSDOF 6
ENDMDL
MODEL 9
REMARK VINA RESULT:    -7.302      1.802      2.688
REMARK INTER + INTRA:         -10.717
REMARK INTER:                 -10.109
REMARK INTRA:                  -0.608
REMARK UNBOUND:                -0.854
REMARK  Name = 
REMARK  7 active torsions:
REMARK  status: ('A' for Active; 'I' for Inactive)
REMARK    1  A    between atoms: C_1  and  N_2
REMARK    2  A    between atoms: N_2  and  C_3
REMARK    3  A    between atoms: C_3  and  C_4
REMARK    4  A    between atoms: C_8  and  C_9
REMARK    5  A    between atoms: C_9  and  N_10
REMARK    6  A    between atoms: C_11  and  C_13
REMARK    7  A    between atoms: C_24  and  C_26
REMARK                            x       y       z     vdW  Elec       q    Type
REMARK                         _______ _______ _______ _____ _____    ______ ____
ROOT
ATOM      1  C   UNL     1      49.903   7.225  17.547  0.00  0.00    +0.000 A 
ATOM      2  C   UNL     1      49.018   8.185  18.019  0.00  0.00    +0.000 A 
ATOM      3  C   UNL     1      48.288   8.929  17.097  0.00  0.00    +0.000 A 
ATOM      4  C   UNL     1      48.459   8.696  15.733  0.00  0.00    +0.000 A 
ATOM      5  C   UNL     1      49.370   7.726  15.330  0.00  0.00    +0.000 A 
ATOM      6  N   UNL     1      50.084   6.993  16.219  0.00  0.00    +0.000 NA
ENDROOT
BRANCH   1   7
ATOM      7  C   UNL     1      50.702   6.363  18.499  0.00  0.00    +0.000 C 
BRANCH   7   9
ATOM      8  C   UNL     1      49.924   6.519  20.898  0.00  0.00    +0.000 C 
ATOM      9  N   UNL     1      50.012   5.762  19.653  0.00  0.00    +0.000 N 
ATOM     10  C   UNL     1      49.222   4.603  19.584  0.00  0.00    +0.000 C 
ATOM     11  O   UNL     1      48.485   4.267  20.514  0.00  0.00    +0.000 OA
BRANCH  10  12
ATOM     12  C   UNL     1      49.187   3.735  18.370  0.00  0.00    +0.000 A 
ATOM     13  C   UNL     1      48.098   3.650  17.507  0.00  0.00    +0.000 A 
ATOM     14  C   UNL     1      48.177   2.786  16.429  0.00  0.00    +0.000 A 
ATOM     15  N   UNL     1      49.274   2.067  16.121  0.00  0.00    +0.000 NA
ATOM     16  C   UNL     1      50.350   2.231  16.918  0.00  0.00    +0.000 A 
ATOM     17  C   UNL     1      50.353   3.035  18.043  0.00  0.00    +0.000 A 
ENDBRANCH  10  12
ENDBRANCH   7   9
ENDBRANCH   1   7
BRANCH   5  18
ATOM     18  C   UNL     1      49.568   7.419  13.866  0.00  0.00    +0.000 C 
BRANCH  18  19
ATOM     19  N   UNL     1      48.315   7.194  13.178  0.00  0.00    +0.000 N 
ATOM     20  C   UNL     1      47.596   6.039  13.316  0.00  0.00    +0.000 C 
ATOM     21  O   UNL     1      47.987   5.111  14.019  0.00  0.00    +0.000 OA
ATOM     22  H   UNL     1      48.091   7.850  12.435  0.00  0.00    +0.000 HD
BRANCH  20  23
ATOM     23  C   UNL     1      46.291   5.987  12.638  0.00  0.00    +0.000 A 
ATOM     24  C   UNL     1      45.743   7.156  12.127  0.00  0.00    +0.000 A 
ATOM     25  S   UNL     1      44.257   6.926  11.326  0.00  0.00    +0.000 S 
ATOM     26  C   UNL     1      44.266   5.260  11.676  0.00  0.00    +0.000 A 
ATOM     27  N   UNL     1      43.239   4.461  11.279  0.00  0.00    +0.000 NA
ATOM     28  C   UNL     1      43.357   3.223  11.638  0.00  0.00    +0.000 A 
ATOM     29  N   UNL     1      44.414   2.718  12.348  0.00  0.00    +0.000 N 
ATOM     30  C   UNL     1      45.497   3.475  12.724  0.00  0.00    +0.000 A 
ATOM     31  O   UNL     1      46.463   2.972  13.287  0.00  0.00    +0.000 OA
ATOM     32  C   UNL     1      45.400   4.882  12.373  0.00  0.00    +0.000 A 
ATOM     33  H   UNL     1      44.455   1.737  12.581  0.00  0.00    +0.000 HD
ENDBRANCH  20  23
ENDBRANCH  18  19
ENDBRANCH   5  18
TORSDOF 6
ENDMDL
