MODEL 1
REMARK VINA RESULT:    -7.853      0.000      0.000
REMARK INTER + INTRA:         -13.953
REMARK INTER:                 -12.214
REMARK INTRA:                  -1.739
REMARK UNBOUND:                -1.739
REMARK  Name = 
REMARK  10 active torsions:
REMARK  status: ('A' for Active; 'I' for Inactive)
REMARK    1  A    between atoms: N_1  and  C_2
REMARK    2  A    between atoms: C_2  and  C_3
REMARK    3  A    between atoms: C_3  and  C_4
REMARK    4  A    between atoms: C_4  and  N_5
REMARK    5  A    between atoms: C_4  and  C_27
REMARK    6  A    between atoms: N_5  and  C_6
REMARK    7  A    between atoms: C_6  and  C_7
REMARK    8  A    between atoms: C_11  and  C_12
REMARK    9  A    between atoms: C_12  and  N_13
REMARK   10  A    between atoms: C_14  and  C_16
REMARK                            x       y       z     vdW  Elec       q    Type
REMARK                         _______ _______ _______ _____ _____    ______ ____
ROOT
ATOM      1  C   UNL     1      45.564   7.437  11.732  0.00  0.00    +0.000 A 
ATOM      2  C   UNL     1      45.185   8.782  11.803  0.00  0.00    +0.000 A 
ATOM      3  C   UNL     1      46.142   9.771  12.048  0.00  0.00    +0.000 A 
ATOM      4  C   UNL     1      47.478   9.426  12.265  0.00  0.00    +0.000 A 
ATOM      5  C   UNL     1      47.876   8.087  12.230  0.00  0.00    +0.000 A 
ATOM      6  C   UNL     1      46.923   7.110  11.912  0.00  0.00    +0.000 A 
ENDROOT
BRANCH   1   7
ATOM      7  C   UNL     1      44.563   6.304  11.694  0.00  0.00    +0.000 C 
BRANCH   7   8
ATOM      8  N   UNL     1      44.263   5.746  10.377  0.00  0.00    +0.000 NA
ATOM      9  H   UNL     1      43.354   6.069  10.052  0.00  0.00    +0.000 HD
BRANCH   8  10
ATOM     10  C   UNL     1      44.273   4.265  10.363  0.00  0.00    +0.000 C 
BRANCH  10  11
ATOM     11  C   UNL     1      45.132   3.731   9.216  0.00  0.00    +0.000 A 
ATOM     12  C   UNL     1      45.357   2.360   9.004  0.00  0.00    +0.000 A 
ATOM     13  C   UNL     1      46.219   1.934   8.000  0.00  0.00    +0.000 A 
ATOM     14  C   UNL     1      46.832   2.894   7.218  0.00  0.00    +0.000 A 
ATOM     15  N   UNL     1      46.643   4.221   7.377  0.00  0.00    +0.000 NA
ATOM     16  C   UNL     1      45.813   4.607   8.376  0.00  0.00    +0.000 A 
ENDBRANCH  10  11
BRANCH  10  17
ATOM     17  C   UNL     1      44.645   3.593  11.715  0.00  0.00    +0.000 C 
BRANCH  17  18
ATOM     18  C   UNL     1      43.533   2.866  12.469  0.00  0.00    +0.000 C 
BRANCH  18  19
ATOM     19  N   UNL     1      42.964   1.760  11.713  0.00  0.00    +0.000 NA
ATOM     20  H   UNL     1      42.139   2.092  11.211  0.00  0.00    +0.000 HD
ATOM     21  H   UNL     1      42.621   1.044  12.354  0.00  0.00    +0.000 HD
ENDBRANCH  18  19
ENDBRANCH  17  18
ENDBRANCH  10  17
ENDBRANCH   8  10
ENDBRANCH   7   8
ENDBRANCH   1   7
BRANCH   5  22
ATOM     22  C   UNL     1      49.281   7.682  12.590  0.00  0.00    +0.000 C 
BRANCH  22  23
ATOM     23  N   UNL     1      49.327   6.825  13.742  0.00  0.00    +0.000 N 
ATOM     24  C   UNL     1      49.281   7.358  15.007  0.00  0.00    +0.000 C 
ATOM     25  O   UNL     1      49.137   8.562  15.201  0.00  0.00    +0.000 OA
ATOM     26  H   UNL     1      49.667   5.879  13.602  0.00  0.00    +0.000 HD
BRANCH  24  27
ATOM     27  C   UNL     1      49.350   6.407  16.122  0.00  0.00    +0.000 A 
ATOM     28  C   UNL     1      50.331   6.560  17.095  0.00  0.00    +0.000 A 
ATOM     29  S   UNL     1      50.240   5.407  18.347  0.00  0.00    +0.000 S 
ATOM     30  C   UNL     1      48.919   4.629  17.606  0.00  0.00    +0.000 A 
ATOM     31  N   UNL     1      48.354   3.526  18.167  0.00  0.00    +0.000 NA
ATOM     32  C   UNL     1      47.378   3.024  17.489  0.00  0.00    +0.000 A 
ATOM     33  N   UNL     1      46.909   3.525  16.299  0.00  0.00    +0.000 N 
ATOM     34  C   UNL     1      47.440   4.645  15.704  0.00  0.00    +0.000 A 
ATOM     35  O   UNL     1      46.988   5.074  14.647  0.00  0.00    +0.000 OA
ATOM     36  C   UNL     1      48.545   5.249  16.428  0.00  0.00    +0.000 A 
ATOM     37  H   UNL     1      46.141   3.086  15.820  0.00  0.00    +0.000 HD
ENDBRANCH  24  27
ENDBRANCH  22  23
ENDBRANCH   5  22
TORSDOF 10
ENDMDL
MODEL 2
REMARK VINA RESULT:    -7.676      2.554      3.222
REMARK INTER + INTRA:         -13.678
REMARK INTER:                 -12.456
REMARK INTRA:                  -1.222
REMARK UNBOUND:                -1.739
REMARK  Name = 
REMARK  10 active torsions:
REMARK  status: ('A' for Active; 'I' for Inactive)
REMARK    1  A    between atoms: N_1  and  C_2
REMARK    2  A    between atoms: C_2  and  C_3
REMARK    3  A    between atoms: C_3  and  C_4
REMARK    4  A    between atoms: C_4  and  N_5
REMARK    5  A    between atoms: C_4  and  C_27
REMARK    6  A    between atoms: N_5  and  C_6
REMARK    7  A    between atoms: C_6  and  C_7
REMARK    8  A    between atoms: C_11  and  C_12
REMARK    9  A    between atoms: C_12  and  N_13
REMARK   10  A    between atoms: C_14  and  C_16
REMARK                            x       y       z     vdW  Elec       q    Type
REMARK                         _______ _______ _______ _____ _____    ______ ____
ROOT
ATOM      1  C   UNL     1      47.432   6.773  12.392  0.00  0.00    +0.000 A 
ATOM      2  C   UNL     1      48.493   7.393  11.723  0.00  0.00    +0.000 A 
ATOM      3  C   UNL     1      49.649   7.757  12.421  0.00  0.00    +0.000 A 
ATOM      4  C   UNL     1      49.741   7.544  13.799  0.00  0.00    +0.000 A 
ATOM      5  C   UNL     1      48.681   6.955  14.494  0.00  0.00    +0.000 A 
ATOM      6  C   UNL     1      47.558   6.528  13.774  0.00  0.00    +0.000 A 
ENDROOT
BRANCH   1   7
ATOM      7  C   UNL     1      46.077   6.556  11.756  0.00  0.00    +0.000 C 
BRANCH   7   8
ATOM      8  N   UNL     1      45.615   5.173  11.668  0.00  0.00    +0.000 NA
ATOM      9  H   UNL     1      46.398   4.546  11.498  0.00  0.00    +0.000 HD
BRANCH   8  10
ATOM     10  C   UNL     1      44.605   4.970  10.604  0.00  0.00    +0.000 C 
BRANCH  10  11
ATOM     11  C   UNL     1      45.148   4.069   9.494  0.00  0.00    +0.000 A 
ATOM     12  C   UNL     1      45.096   2.667   9.553  0.00  0.00    +0.000 A 
ATOM     13  C   UNL     1      45.685   1.896   8.557  0.00  0.00    +0.000 A 
ATOM     14  C   UNL     1      46.307   2.550   7.511  0.00  0.00    +0.000 A 
ATOM     15  N   UNL     1      46.378   3.893   7.405  0.00  0.00    +0.000 NA
ATOM     16  C   UNL     1      45.812   4.618   8.400  0.00  0.00    +0.000 A 
ENDBRANCH  10  11
BRANCH  10  17
ATOM     17  C   UNL     1      43.211   4.490  11.098  0.00  0.00    +0.000 C 
BRANCH  17  18
ATOM     18  C   UNL     1      42.393   5.459  11.948  0.00  0.00    +0.000 C 
BRANCH  18  19
ATOM     19  N   UNL     1      42.827   5.502  13.337  0.00  0.00    +0.000 NA
ATOM     20  H   UNL     1      43.797   5.822  13.372  0.00  0.00    +0.000 HD
ATOM     21  H   UNL     1      42.839   4.559  13.724  0.00  0.00    +0.000 HD
ENDBRANCH  18  19
ENDBRANCH  17  18
ENDBRANCH  10  17
ENDBRANCH   8  10
ENDBRANCH   7   8
ENDBRANCH   1   7
BRANCH   5  22
ATOM     22  C   UNL     1      48.706   6.836  15.995  0.00  0.00    +0.000 C 
BRANCH  22  23
ATOM     23  N   UNL     1      49.849   6.108  16.470  0.00  0.00    +0.000 N 
ATOM     24  C   UNL     1      49.717   5.189  17.482  0.00  0.00    +0.000 C 
ATOM     25  O   UNL     1      48.626   4.912  17.972  0.00  0.00    +0.000 OA
ATOM     26  H   UNL     1      50.765   6.481  16.239  0.00  0.00    +0.000 HD
BRANCH  24  27
ATOM     27  C   UNL     1      50.942   4.505  17.911  0.00  0.00    +0.000 A 
ATOM     28  C   UNL     1      51.930   5.219  18.578  0.00  0.00    +0.000 A 
ATOM     29  S   UNL     1      53.262   4.267  19.054  0.00  0.00    +0.000 S 
ATOM     30  C   UNL     1      52.589   2.876  18.339  0.00  0.00    +0.000 A 
ATOM     31  N   UNL     1      53.249   1.686  18.372  0.00  0.00    +0.000 NA
ATOM     32  C   UNL     1      52.637   0.721  17.772  0.00  0.00    +0.000 A 
ATOM     33  N   UNL     1      51.422   0.833  17.142  0.00  0.00    +0.000 N 
ATOM     34  C   UNL     1      50.715   2.012  17.096  0.00  0.00    +0.000 A 
ATOM     35  O   UNL     1      49.625   2.074  16.536  0.00  0.00    +0.000 OA
ATOM     36  C   UNL     1      51.361   3.132  17.758  0.00  0.00    +0.000 A 
ATOM     37  H   UNL     1      50.998   0.040  16.692  0.00  0.00    +0.000 HD
ENDBRANCH  24  27
ENDBRANCH  22  23
ENDBRANCH   5  22
TORSDOF 10
ENDMDL
MODEL 3
REMARK VINA RESULT:    -6.840      3.401      9.194
REMARK INTER + INTRA:         -12.378
REMARK INTER:                 -10.870
REMARK INTRA:                  -1.508
REMARK UNBOUND:                -1.739
REMARK  Name = 
REMARK  10 active torsions:
REMARK  status: ('A' for Active; 'I' for Inactive)
REMARK    1  A    between atoms: N_1  and  C_2
REMARK    2  A    between atoms: C_2  and  C_3
REMARK    3  A    between atoms: C_3  and  C_4
REMARK    4  A    between atoms: C_4  and  N_5
REMARK    5  A    between atoms: C_4  and  C_27
REMARK    6  A    between atoms: N_5  and  C_6
REMARK    7  A    between atoms: C_6  and  C_7
REMARK    8  A    between atoms: C_11  and  C_12
REMARK    9  A    between atoms: C_12  and  N_13
REMARK   10  A    between atoms: C_14  and  C_16
REMARK                            x       y       z     vdW  Elec       q    Type
REMARK                         _______ _______ _______ _____ _____    ______ ____
ROOT
ATOM      1  C   UNL     1      50.899   4.141  17.965  0.00  0.00    +0.000 A 
ATOM      2  C   UNL     1      51.527   2.924  17.679  0.00  0.00    +0.000 A 
ATOM      3  C   UNL     1      50.807   1.883  17.085  0.00  0.00    +0.000 A 
ATOM      4  C   UNL     1      49.445   2.030  16.810  0.00  0.00    +0.000 A 
ATOM      5  C   UNL     1      48.789   3.226  17.115  0.00  0.00    +0.000 A 
ATOM      6  C   UNL     1      49.536   4.287  17.643  0.00  0.00    +0.000 A 
ENDROOT
BRANCH   1   7
ATOM      7  C   UNL     1      51.549   5.221  18.802  0.00  0.00    +0.000 C 
BRANCH   7   8
ATOM      8  N   UNL     1      50.866   6.512  18.839  0.00  0.00    +0.000 NA
ATOM      9  H   UNL     1      51.490   7.254  18.530  0.00  0.00    +0.000 HD
BRANCH   8  10
ATOM     10  C   UNL     1      50.352   6.854  20.186  0.00  0.00    +0.000 C 
BRANCH  10  11
ATOM     11  C   UNL     1      49.134   7.773  20.094  0.00  0.00    +0.000 A 
ATOM     12  C   UNL     1      48.296   7.821  18.967  0.00  0.00    +0.000 A 
ATOM     13  C   UNL     1      47.254   8.739  18.901  0.00  0.00    +0.000 A 
ATOM     14  C   UNL     1      47.066   9.587  19.975  0.00  0.00    +0.000 A 
ATOM     15  N   UNL     1      47.838   9.576  21.082  0.00  0.00    +0.000 NA
ATOM     16  C   UNL     1      48.858   8.683  21.110  0.00  0.00    +0.000 A 
ENDBRANCH  10  11
BRANCH  10  17
ATOM     17  C   UNL     1      50.083   5.639  21.118  0.00  0.00    +0.000 C 
BRANCH  17  18
ATOM     18  C   UNL     1      48.639   5.162  21.254  0.00  0.00    +0.000 C 
BRANCH  18  19
ATOM     19  N   UNL     1      48.445   3.798  20.787  0.00  0.00    +0.000 NA
ATOM     20  H   UNL     1      48.271   3.813  19.781  0.00  0.00    +0.000 HD
ATOM     21  H   UNL     1      47.599   3.407  21.202  0.00  0.00    +0.000 HD
ENDBRANCH  18  19
ENDBRANCH  17  18
ENDBRANCH  10  17
ENDBRANCH   8  10
ENDBRANCH   7   8
ENDBRANCH   1   7
BRANCH   5  22
ATOM     22  C   UNL     1      47.298   3.361  16.948  0.00  0.00    +0.000 C 
BRANCH  22  23
ATOM     23  N   UNL     1      46.942   4.382  16.003  0.00  0.00    +0.000 N 
ATOM     24  C   UNL     1      47.006   4.134  14.654  0.00  0.00    +0.000 C 
ATOM     25  O   UNL     1      47.304   3.029  14.209  0.00  0.00    +0.000 OA
ATOM     26  H   UNL     1      46.916   5.339  16.343  0.00  0.00    +0.000 HD
BRANCH  24  27
ATOM     27  C   UNL     1      46.639   5.242  13.765  0.00  0.00    +0.000 A 
ATOM     28  C   UNL     1      47.528   6.292  13.573  0.00  0.00    +0.000 A 
ATOM     29  S   UNL     1      46.973   7.469  12.471  0.00  0.00    +0.000 S 
ATOM     30  C   UNL     1      45.500   6.643  12.251  0.00  0.00    +0.000 A 
ATOM     31  N   UNL     1      44.540   7.137  11.425  0.00  0.00    +0.000 NA
ATOM     32  C   UNL     1      43.466   6.424  11.369  0.00  0.00    +0.000 A 
ATOM     33  N   UNL     1      43.262   5.257  12.064  0.00  0.00    +0.000 N 
ATOM     34  C   UNL     1      44.210   4.715  12.899  0.00  0.00    +0.000 A 
ATOM     35  O   UNL     1      44.000   3.662  13.495  0.00  0.00    +0.000 OA
ATOM     36  C   UNL     1      45.440   5.480  12.998  0.00  0.00    +0.000 A 
ATOM     37  H   UNL     1      42.400   4.747  11.976  0.00  0.00    +0.000 HD
ENDBRANCH  24  27
ENDBRANCH  22  23
ENDBRANCH   5  22
TORSDOF 10
ENDMDL
MODEL 4
REMARK VINA RESULT:    -6.739      2.754      7.816
REMARK INTER + INTRA:         -12.220
REMARK INTER:                 -10.202
REMARK INTRA:                  -2.018
REMARK UNBOUND:                -1.739
REMARK  Name = 
REMARK  10 active torsions:
REMARK  status: ('A' for Active; 'I' for Inactive)
REMARK    1  A    between atoms: N_1  and  C_2
REMARK    2  A    between atoms: C_2  and  C_3
REMARK    3  A    between atoms: C_3  and  C_4
REMARK    4  A    between atoms: C_4  and  N_5
REMARK    5  A    between atoms: C_4  and  C_27
REMARK    6  A    between atoms: N_5  and  C_6
REMARK    7  A    between atoms: C_6  and  C_7
REMARK    8  A    between atoms: C_11  and  C_12
REMARK    9  A    between atoms: C_12  and  N_13
REMARK   10  A    between atoms: C_14  and  C_16
REMARK                            x       y       z     vdW  Elec       q    Type
REMARK                         _______ _______ _______ _____ _____    ______ ____
ROOT
ATOM      1  C   UNL     1      49.607   7.950  14.959  0.00  0.00    +0.000 A 
ATOM      2  C   UNL     1      50.918   8.036  14.477  0.00  0.00    +0.000 A 
ATOM      3  C   UNL     1      51.155   8.294  13.124  0.00  0.00    +0.000 A 
ATOM      4  C   UNL     1      50.089   8.427  12.231  0.00  0.00    +0.000 A 
ATOM      5  C   UNL     1      48.771   8.314  12.682  0.00  0.00    +0.000 A 
ATOM      6  C   UNL     1      48.543   8.127  14.052  0.00  0.00    +0.000 A 
ENDROOT
BRANCH   1   7
ATOM      7  C   UNL     1      49.276   7.456  16.350  0.00  0.00    +0.000 C 
BRANCH   7   8
ATOM      8  N   UNL     1      48.100   6.597  16.471  0.00  0.00    +0.000 NA
ATOM      9  H   UNL     1      47.394   7.040  17.056  0.00  0.00    +0.000 HD
BRANCH   8  10
ATOM     10  C   UNL     1      48.416   5.264  17.034  0.00  0.00    +0.000 C 
BRANCH  10  11
ATOM     11  C   UNL     1      48.241   5.253  18.553  0.00  0.00    +0.000 A 
ATOM     12  C   UNL     1      47.335   6.090  19.225  0.00  0.00    +0.000 A 
ATOM     13  C   UNL     1      47.282   6.102  20.614  0.00  0.00    +0.000 A 
ATOM     14  C   UNL     1      48.134   5.263  21.305  0.00  0.00    +0.000 A 
ATOM     15  N   UNL     1      49.017   4.436  20.707  0.00  0.00    +0.000 NA
ATOM     16  C   UNL     1      49.060   4.460  19.352  0.00  0.00    +0.000 A 
ENDBRANCH  10  11
BRANCH  10  17
ATOM     17  C   UNL     1      47.675   4.071  16.366  0.00  0.00    +0.000 C 
BRANCH  17  18
ATOM     18  C   UNL     1      46.879   4.360  15.096  0.00  0.00    +0.000 C 
BRANCH  18  19
ATOM     19  N   UNL     1      47.713   4.812  13.993  0.00  0.00    +0.000 NA
ATOM     20  H   UNL     1      47.690   5.833  13.956  0.00  0.00    +0.000 HD
ATOM     21  H   UNL     1      47.314   4.500  13.107  0.00  0.00    +0.000 HD
ENDBRANCH  18  19
ENDBRANCH  17  18
ENDBRANCH  10  17
ENDBRANCH   8  10
ENDBRANCH   7   8
ENDBRANCH   1   7
BRANCH   5  22
ATOM     22  C   UNL     1      47.614   8.323  11.718  0.00  0.00    +0.000 C 
BRANCH  22  23
ATOM     23  N   UNL     1      46.932   7.060  11.669  0.00  0.00    +0.000 N 
ATOM     24  C   UNL     1      45.559   7.012  11.653  0.00  0.00    +0.000 C 
ATOM     25  O   UNL     1      44.872   8.029  11.617  0.00  0.00    +0.000 OA
ATOM     26  H   UNL     1      47.465   6.234  11.921  0.00  0.00    +0.000 HD
BRANCH  24  27
ATOM     27  C   UNL     1      44.950   5.678  11.618  0.00  0.00    +0.000 A 
ATOM     28  C   UNL     1      44.273   5.202  12.734  0.00  0.00    +0.000 A 
ATOM     29  S   UNL     1      43.580   3.661  12.510  0.00  0.00    +0.000 S 
ATOM     30  C   UNL     1      44.205   3.551  10.931  0.00  0.00    +0.000 A 
ATOM     31  N   UNL     1      43.988   2.444  10.170  0.00  0.00    +0.000 NA
ATOM     32  C   UNL     1      44.538   2.483   9.003  0.00  0.00    +0.000 A 
ATOM     33  N   UNL     1      45.286   3.531   8.522  0.00  0.00    +0.000 N 
ATOM     34  C   UNL     1      45.519   4.673   9.251  0.00  0.00    +0.000 A 
ATOM     35  O   UNL     1      46.180   5.596   8.787  0.00  0.00    +0.000 OA
ATOM     36  C   UNL     1      44.921   4.679  10.575  0.00  0.00    +0.000 A 
ATOM     37  H   UNL     1      45.688   3.499   7.601  0.00  0.00    +0.000 HD
ENDBRANCH  24  27
ENDBRANCH  22  23
ENDBRANCH   5  22
TORSDOF 10
ENDMDL
MODEL 5
REMARK VINA RESULT:    -6.731      3.063      7.676
REMARK INTER + INTRA:         -12.208
REMARK INTER:                 -10.885
REMARK INTRA:                  -1.323
REMARK UNBOUND:                -1.739
REMARK  Name = 
REMARK  10 active torsions:
REMARK  status: ('A' for Active; 'I' for Inactive)
REMARK    1  A    between atoms: N_1  and  C_2
REMARK    2  A    between atoms: C_2  and  C_3
REMARK    3  A    between atoms: C_3  and  C_4
REMARK    4  A    between atoms: C_4  and  N_5
REMARK    5  A    between atoms: C_4  and  C_27
REMARK    6  A    between atoms: N_5  and  C_6
REMARK    7  A    between atoms: C_6  and  C_7
REMARK    8  A    between atoms: C_11  and  C_12
REMARK    9  A    between atoms: C_12  and  N_13
REMARK   10  A    between atoms: C_14  and  C_16
REMARK                            x       y       z     vdW  Elec       q    Type
REMARK                         _______ _______ _______ _____ _____    ______ ____
ROOT
ATOM      1  C   UNL     1      49.409   7.004  18.607  0.00  0.00    +0.000 A 
ATOM      2  C   UNL     1      48.775   8.012  19.341  0.00  0.00    +0.000 A 
ATOM      3  C   UNL     1      48.099   9.044  18.682  0.00  0.00    +0.000 A 
ATOM      4  C   UNL     1      48.084   9.103  17.286  0.00  0.00    +0.000 A 
ATOM      5  C   UNL     1      48.736   8.124  16.532  0.00  0.00    +0.000 A 
ATOM      6  C   UNL     1      49.348   7.056  17.200  0.00  0.00    +0.000 A 
ENDROOT
BRANCH   1   7
ATOM      7  C   UNL     1      50.339   5.992  19.238  0.00  0.00    +0.000 C 
BRANCH   7   8
ATOM      8  N   UNL     1      49.848   4.617  19.311  0.00  0.00    +0.000 NA
ATOM      9  H   UNL     1      50.412   4.072  19.961  0.00  0.00    +0.000 HD
BRANCH   8  10
ATOM     10  C   UNL     1      49.848   3.935  17.996  0.00  0.00    +0.000 C 
BRANCH  10  11
ATOM     11  C   UNL     1      51.069   3.027  17.847  0.00  0.00    +0.000 A 
ATOM     12  C   UNL     1      50.982   1.696  17.407  0.00  0.00    +0.000 A 
ATOM     13  C   UNL     1      52.112   0.887  17.375  0.00  0.00    +0.000 A 
ATOM     14  C   UNL     1      53.315   1.436  17.776  0.00  0.00    +0.000 A 
ATOM     15  N   UNL     1      53.453   2.709  18.200  0.00  0.00    +0.000 NA
ATOM     16  C   UNL     1      52.329   3.468  18.239  0.00  0.00    +0.000 A 
ENDBRANCH  10  11
BRANCH  10  17
ATOM     17  C   UNL     1      48.532   3.188  17.639  0.00  0.00    +0.000 C 
BRANCH  17  18
ATOM     18  C   UNL     1      47.354   4.029  17.154  0.00  0.00    +0.000 C 
BRANCH  18  19
ATOM     19  N   UNL     1      46.699   4.762  18.226  0.00  0.00    +0.000 NA
ATOM     20  H   UNL     1      46.247   5.590  17.835  0.00  0.00    +0.000 HD
ATOM     21  H   UNL     1      47.397   5.117  18.879  0.00  0.00    +0.000 HD
ENDBRANCH  18  19
ENDBRANCH  17  18
ENDBRANCH  10  17
ENDBRANCH   8  10
ENDBRANCH   7   8
ENDBRANCH   1   7
BRANCH   5  22
ATOM     22  C   UNL     1      48.843   8.238  15.034  0.00  0.00    +0.000 C 
BRANCH  22  23
ATOM     23  N   UNL     1      47.658   7.782  14.362  0.00  0.00    +0.000 N 
ATOM     24  C   UNL     1      47.734   6.791  13.414  0.00  0.00    +0.000 C 
ATOM     25  O   UNL     1      48.790   6.221  13.151  0.00  0.00    +0.000 OA
ATOM     26  H   UNL     1      46.841   8.383  14.403  0.00  0.00    +0.000 HD
BRANCH  24  27
ATOM     27  C   UNL     1      46.475   6.401  12.770  0.00  0.00    +0.000 A 
ATOM     28  C   UNL     1      45.663   7.375  12.202  0.00  0.00    +0.000 A 
ATOM     29  S   UNL     1      44.267   6.751  11.449  0.00  0.00    +0.000 S 
ATOM     30  C   UNL     1      44.671   5.160  11.901  0.00  0.00    +0.000 A 
ATOM     31  N   UNL     1      43.862   4.116  11.576  0.00  0.00    +0.000 NA
ATOM     32  C   UNL     1      44.275   2.970  12.001  0.00  0.00    +0.000 A 
ATOM     33  N   UNL     1      45.427   2.768  12.721  0.00  0.00    +0.000 N 
ATOM     34  C   UNL     1      46.280   3.791  13.059  0.00  0.00    +0.000 A 
ATOM     35  O   UNL     1      47.309   3.575  13.692  0.00  0.00    +0.000 OA
ATOM     36  C   UNL     1      45.860   5.106  12.605  0.00  0.00    +0.000 A 
ATOM     37  H   UNL     1      45.694   1.846  13.022  0.00  0.00    +0.000 HD
ENDBRANCH  24  27
ENDBRANCH  22  23
ENDBRANCH   5  22
TORSDOF 10
ENDMDL
MODEL 6
REMARK VINA RESULT:    -6.572      3.472      9.185
REMARK INTER + INTRA:         -11.961
REMARK INTER:                  -9.972
REMARK INTRA:                  -1.989
REMARK UNBOUND:                -1.739
REMARK  Name = 
REMARK  10 active torsions:
REMARK  status: ('A' for Active; 'I' for Inactive)
REMARK    1  A    between atoms: N_1  and  C_2
REMARK    2  A    between atoms: C_2  and  C_3
REMARK    3  A    between atoms: C_3  and  C_4
REMARK    4  A    between atoms: C_4  and  N_5
REMARK    5  A    between atoms: C_4  and  C_27
REMARK    6  A    between atoms: N_5  and  C_6
REMARK    7  A    between atoms: C_6  and  C_7
REMARK    8  A    between atoms: C_11  and  C_12
REMARK    9  A    between atoms: C_12  and  N_13
REMARK   10  A    between atoms: C_14  and  C_16
REMARK                            x       y       z     vdW  Elec       q    Type
REMARK                         _______ _______ _______ _____ _____    ______ ____
ROOT
ATOM      1  C   UNL     1      50.859   4.158  17.987  0.00  0.00    +0.000 A 
ATOM      2  C   UNL     1      51.489   2.935  17.731  0.00  0.00    +0.000 A 
ATOM      3  C   UNL     1      50.784   1.895  17.118  0.00  0.00    +0.000 A 
ATOM      4  C   UNL     1      49.435   2.049  16.792  0.00  0.00    +0.000 A 
ATOM      5  C   UNL     1      48.775   3.251  17.065  0.00  0.00    +0.000 A 
ATOM      6  C   UNL     1      49.509   4.311  17.613  0.00  0.00    +0.000 A 
ENDROOT
BRANCH   1   7
ATOM      7  C   UNL     1      51.484   5.239  18.840  0.00  0.00    +0.000 C 
BRANCH   7   8
ATOM      8  N   UNL     1      50.794   6.527  18.864  0.00  0.00    +0.000 NA
ATOM      9  H   UNL     1      51.413   7.269  18.545  0.00  0.00    +0.000 HD
BRANCH   8  10
ATOM     10  C   UNL     1      50.282   6.881  20.208  0.00  0.00    +0.000 C 
BRANCH  10  11
ATOM     11  C   UNL     1      49.076   7.816  20.110  0.00  0.00    +0.000 A 
ATOM     12  C   UNL     1      48.270   7.906  18.963  0.00  0.00    +0.000 A 
ATOM     13  C   UNL     1      47.240   8.837  18.895  0.00  0.00    +0.000 A 
ATOM     14  C   UNL     1      47.031   9.656  19.988  0.00  0.00    +0.000 A 
ATOM     15  N   UNL     1      47.773   9.605  21.114  0.00  0.00    +0.000 NA
ATOM     16  C   UNL     1      48.782   8.700  21.144  0.00  0.00    +0.000 A 
ENDBRANCH  10  11
BRANCH  10  17
ATOM     17  C   UNL     1      49.993   5.674  21.145  0.00  0.00    +0.000 C 
BRANCH  17  18
ATOM     18  C   UNL     1      48.557   5.161  21.211  0.00  0.00    +0.000 C 
BRANCH  18  19
ATOM     19  N   UNL     1      48.425   3.781  20.769  0.00  0.00    +0.000 NA
ATOM     20  H   UNL     1      48.094   3.771  19.803  0.00  0.00    +0.000 HD
ATOM     21  H   UNL     1      47.698   3.313  21.310  0.00  0.00    +0.000 HD
ENDBRANCH  18  19
ENDBRANCH  17  18
ENDBRANCH  10  17
ENDBRANCH   8  10
ENDBRANCH   7   8
ENDBRANCH   1   7
BRANCH   5  22
ATOM     22  C   UNL     1      47.293   3.394  16.842  0.00  0.00    +0.000 C 
BRANCH  22  23
ATOM     23  N   UNL     1      46.977   4.433  15.903  0.00  0.00    +0.000 N 
ATOM     24  C   UNL     1      47.003   4.183  14.553  0.00  0.00    +0.000 C 
ATOM     25  O   UNL     1      47.233   3.063  14.103  0.00  0.00    +0.000 OA
ATOM     26  H   UNL     1      47.009   5.390  16.242  0.00  0.00    +0.000 HD
BRANCH  24  27
ATOM     27  C   UNL     1      46.682   5.309  13.670  0.00  0.00    +0.000 A 
ATOM     28  C   UNL     1      45.555   5.248  12.861  0.00  0.00    +0.000 A 
ATOM     29  S   UNL     1      45.296   6.658  11.937  0.00  0.00    +0.000 S 
ATOM     30  C   UNL     1      46.711   7.381  12.548  0.00  0.00    +0.000 A 
ATOM     31  N   UNL     1      47.094   8.620  12.138  0.00  0.00    +0.000 NA
ATOM     32  C   UNL     1      48.197   9.037  12.662  0.00  0.00    +0.000 A 
ATOM     33  N   UNL     1      48.957   8.329  13.561  0.00  0.00    +0.000 N 
ATOM     34  C   UNL     1      48.601   7.080  14.012  0.00  0.00    +0.000 A 
ATOM     35  O   UNL     1      49.295   6.480  14.826  0.00  0.00    +0.000 OA
ATOM     36  C   UNL     1      47.364   6.563  13.452  0.00  0.00    +0.000 A 
ATOM     37  H   UNL     1      49.809   8.712  13.933  0.00  0.00    +0.000 HD
ENDBRANCH  24  27
ENDBRANCH  22  23
ENDBRANCH   5  22
TORSDOF 10
ENDMDL
MODEL 7
REMARK VINA RESULT:    -6.557      1.814      2.134
REMARK INTER + INTRA:         -11.937
REMARK INTER:                 -10.470
REMARK INTRA:                  -1.467
REMARK UNBOUND:                -1.739
REMARK  Name = 
REMARK  10 active torsions:
REMARK  status: ('A' for Active; 'I' for Inactive)
REMARK    1  A    between atoms: N_1  and  C_2
REMARK    2  A    between atoms: C_2  and  C_3
REMARK    3  A    between atoms: C_3  and  C_4
REMARK    4  A    between atoms: C_4  and  N_5
REMARK    5  A    between atoms: C_4  and  C_27
REMARK    6  A    between atoms: N_5  and  C_6
REMARK    7  A    between atoms: C_6  and  C_7
REMARK    8  A    between atoms: C_11  and  C_12
REMARK    9  A    between atoms: C_12  and  N_13
REMARK   10  A    between atoms: C_14  and  C_16
REMARK                            x       y       z     vdW  Elec       q    Type
REMARK                         _______ _______ _______ _____ _____    ______ ____
ROOT
ATOM      1  C   UNL     1      45.758   7.347  11.761  0.00  0.00    +0.000 A 
ATOM      2  C   UNL     1      45.461   8.711  11.861  0.00  0.00    +0.000 A 
ATOM      3  C   UNL     1      46.323   9.570  12.548  0.00  0.00    +0.000 A 
ATOM      4  C   UNL     1      47.467   9.073  13.176  0.00  0.00    +0.000 A 
ATOM      5  C   UNL     1      47.769   7.709  13.117  0.00  0.00    +0.000 A 
ATOM      6  C   UNL     1      46.938   6.869  12.365  0.00  0.00    +0.000 A 
ENDROOT
BRANCH   1   7
ATOM      7  C   UNL     1      44.771   6.330  11.233  0.00  0.00    +0.000 C 
BRANCH   7   8
ATOM      8  N   UNL     1      45.263   4.961  11.093  0.00  0.00    +0.000 NA
ATOM      9  H   UNL     1      46.216   4.959  10.737  0.00  0.00    +0.000 HD
BRANCH   8  10
ATOM     10  C   UNL     1      44.420   4.135  10.197  0.00  0.00    +0.000 C 
BRANCH  10  11
ATOM     11  C   UNL     1      45.271   3.416   9.150  0.00  0.00    +0.000 A 
ATOM     12  C   UNL     1      45.863   4.076   8.061  0.00  0.00    +0.000 A 
ATOM     13  C   UNL     1      46.552   3.359   7.090  0.00  0.00    +0.000 A 
ATOM     14  C   UNL     1      46.643   1.988   7.236  0.00  0.00    +0.000 A 
ATOM     15  N   UNL     1      46.098   1.308   8.265  0.00  0.00    +0.000 NA
ATOM     16  C   UNL     1      45.415   2.032   9.187  0.00  0.00    +0.000 A 
ENDBRANCH  10  11
BRANCH  10  17
ATOM     17  C   UNL     1      43.452   3.155  10.918  0.00  0.00    +0.000 C 
BRANCH  17  18
ATOM     18  C   UNL     1      43.750   2.816  12.376  0.00  0.00    +0.000 C 
BRANCH  18  19
ATOM     19  N   UNL     1      43.402   3.893  13.292  0.00  0.00    +0.000 NA
ATOM     20  H   UNL     1      43.507   4.786  12.809  0.00  0.00    +0.000 HD
ATOM     21  H   UNL     1      44.071   3.921  14.062  0.00  0.00    +0.000 HD
ENDBRANCH  18  19
ENDBRANCH  17  18
ENDBRANCH  10  17
ENDBRANCH   8  10
ENDBRANCH   7   8
ENDBRANCH   1   7
BRANCH   5  22
ATOM     22  C   UNL     1      48.923   7.133  13.894  0.00  0.00    +0.000 C 
BRANCH  22  23
ATOM     23  N   UNL     1      48.596   6.908  15.274  0.00  0.00    +0.000 N 
ATOM     24  C   UNL     1      49.050   7.767  16.245  0.00  0.00    +0.000 C 
ATOM     25  O   UNL     1      49.690   8.779  15.971  0.00  0.00    +0.000 OA
ATOM     26  H   UNL     1      48.273   5.980  15.530  0.00  0.00    +0.000 HD
BRANCH  24  27
ATOM     27  C   UNL     1      48.680   7.449  17.629  0.00  0.00    +0.000 A 
ATOM     28  C   UNL     1      48.112   8.431  18.431  0.00  0.00    +0.000 A 
ATOM     29  S   UNL     1      47.692   7.884  19.990  0.00  0.00    +0.000 S 
ATOM     30  C   UNL     1      48.303   6.328  19.666  0.00  0.00    +0.000 A 
ATOM     31  N   UNL     1      48.270   5.354  20.615  0.00  0.00    +0.000 NA
ATOM     32  C   UNL     1      48.788   4.232  20.245  0.00  0.00    +0.000 A 
ATOM     33  N   UNL     1      49.336   3.990  19.009  0.00  0.00    +0.000 N 
ATOM     34  C   UNL     1      49.379   4.940  18.017  0.00  0.00    +0.000 A 
ATOM     35  O   UNL     1      49.864   4.687  16.919  0.00  0.00    +0.000 OA
ATOM     36  C   UNL     1      48.808   6.225  18.383  0.00  0.00    +0.000 A 
ATOM     37  H   UNL     1      49.723   3.090  18.782  0.00  0.00    +0.000 HD
ENDBRANCH  24  27
ENDBRANCH  22  23
ENDBRANCH   5  22
TORSDOF 10
ENDMDL
MODEL 8
REMARK VINA RESULT:    -6.468      1.803      2.633
REMARK INTER + INTRA:         -11.799
REMARK INTER:                  -9.911
REMARK INTRA:                  -1.888
REMARK UNBOUND:                -1.739
REMARK  Name = 
REMARK  10 active torsions:
REMARK  status: ('A' for Active; 'I' for Inactive)
REMARK    1  A    between atoms: N_1  and  C_2
REMARK    2  A    between atoms: C_2  and  C_3
REMARK    3  A    between atoms: C_3  and  C_4
REMARK    4  A    between atoms: C_4  and  N_5
REMARK    5  A    between atoms: C_4  and  C_27
REMARK    6  A    between atoms: N_5  and  C_6
REMARK    7  A    between atoms: C_6  and  C_7
REMARK    8  A    between atoms: C_11  and  C_12
REMARK    9  A    between atoms: C_12  and  N_13
REMARK   10  A    between atoms: C_14  and  C_16
REMARK                            x       y       z     vdW  Elec       q    Type
REMARK                         _______ _______ _______ _____ _____    ______ ____
ROOT
ATOM      1  C   UNL     1      46.331   8.945  12.193  0.00  0.00    +0.000 A 
ATOM      2  C   UNL     1      45.908  10.210  11.769  0.00  0.00    +0.000 A 
ATOM      3  C   UNL     1      46.841  11.152  11.325  0.00  0.00    +0.000 A 
ATOM      4  C   UNL     1      48.207  10.857  11.338  0.00  0.00    +0.000 A 
ATOM      5  C   UNL     1      48.656   9.611  11.785  0.00  0.00    +0.000 A 
ATOM      6  C   UNL     1      47.708   8.650  12.160  0.00  0.00    +0.000 A 
ENDROOT
BRANCH   1   7
ATOM      7  C   UNL     1      45.414   7.965  12.890  0.00  0.00    +0.000 C 
BRANCH   7   8
ATOM      8  N   UNL     1      44.572   7.139  12.028  0.00  0.00    +0.000 NA
ATOM      9  H   UNL     1      43.603   7.448  12.075  0.00  0.00    +0.000 HD
BRANCH   8  10
ATOM     10  C   UNL     1      44.628   5.700  12.376  0.00  0.00    +0.000 C 
BRANCH  10  11
ATOM     11  C   UNL     1      44.747   4.834  11.121  0.00  0.00    +0.000 A 
ATOM     12  C   UNL     1      45.491   5.219   9.994  0.00  0.00    +0.000 A 
ATOM     13  C   UNL     1      45.491   4.435   8.847  0.00  0.00    +0.000 A 
ATOM     14  C   UNL     1      44.751   3.269   8.856  0.00  0.00    +0.000 A 
ATOM     15  N   UNL     1      44.025   2.851   9.914  0.00  0.00    +0.000 NA
ATOM     16  C   UNL     1      44.029   3.647  11.012  0.00  0.00    +0.000 A 
ENDBRANCH  10  11
BRANCH  10  17
ATOM     17  C   UNL     1      45.699   5.318  13.437  0.00  0.00    +0.000 C 
BRANCH  17  18
ATOM     18  C   UNL     1      46.409   3.976  13.269  0.00  0.00    +0.000 C 
BRANCH  18  19
ATOM     19  N   UNL     1      47.165   3.582  14.448  0.00  0.00    +0.000 NA
ATOM     20  H   UNL     1      46.651   2.853  14.944  0.00  0.00    +0.000 HD
ATOM     21  H   UNL     1      47.222   4.365  15.100  0.00  0.00    +0.000 HD
ENDBRANCH  18  19
ENDBRANCH  17  18
ENDBRANCH  10  17
ENDBRANCH   8  10
ENDBRANCH   7   8
ENDBRANCH   1   7
BRANCH   5  22
ATOM     22  C   UNL     1      50.126   9.320  11.930  0.00  0.00    +0.000 C 
BRANCH  22  23
ATOM     23  N   UNL     1      50.396   8.365  12.968  0.00  0.00    +0.000 N 
ATOM     24  C   UNL     1      50.917   8.774  14.171  0.00  0.00    +0.000 C 
ATOM     25  O   UNL     1      51.111   9.959  14.427  0.00  0.00    +0.000 OA
ATOM     26  H   UNL     1      50.455   7.388  12.696  0.00  0.00    +0.000 HD
BRANCH  24  27
ATOM     27  C   UNL     1      51.175   7.726  15.165  0.00  0.00    +0.000 A 
ATOM     28  C   UNL     1      52.478   7.476  15.577  0.00  0.00    +0.000 A 
ATOM     29  S   UNL     1      52.600   6.267  16.773  0.00  0.00    +0.000 S 
ATOM     30  C   UNL     1      50.919   5.997  16.745  0.00  0.00    +0.000 A 
ATOM     31  N   UNL     1      50.351   5.051  17.540  0.00  0.00    +0.000 NA
ATOM     32  C   UNL     1      49.073   4.935  17.401  0.00  0.00    +0.000 A 
ATOM     33  N   UNL     1      48.306   5.680  16.539  0.00  0.00    +0.000 N 
ATOM     34  C   UNL     1      48.837   6.655  15.728  0.00  0.00    +0.000 A 
ATOM     35  O   UNL     1      48.121   7.313  14.979  0.00  0.00    +0.000 OA
ATOM     36  C   UNL     1      50.274   6.827  15.845  0.00  0.00    +0.000 A 
ATOM     37  H   UNL     1      47.312   5.541  16.479  0.00  0.00    +0.000 HD
ENDBRANCH  24  27
ENDBRANCH  22  23
ENDBRANCH   5  22
TORSDOF 10
ENDMDL
MODEL 9
REMARK VINA RESULT:    -6.435      3.091      7.645
REMARK INTER + INTRA:         -11.748
REMARK INTER:                  -9.394
REMARK INTRA:                  -2.354
REMARK UNBOUND:                -1.739
REMARK  Name = 
REMARK  10 active torsions:
REMARK  status: ('A' for Active; 'I' for Inactive)
REMARK    1  A    between atoms: N_1  and  C_2
REMARK    2  A    between atoms: C_2  and  C_3
REMARK    3  A    between atoms: C_3  and  C_4
REMARK    4  A    between atoms: C_4  and  N_5
REMARK    5  A    between atoms: C_4  and  C_27
REMARK    6  A    between atoms: N_5  and  C_6
REMARK    7  A    between atoms: C_6  and  C_7
REMARK    8  A    between atoms: C_11  and  C_12
REMARK    9  A    between atoms: C_12  and  N_13
REMARK   10  A    between atoms: C_14  and  C_16
REMARK                            x       y       z     vdW  Elec       q    Type
REMARK                         _______ _______ _______ _____ _____    ______ ____
ROOT
ATOM      1  C   UNL     1      51.000   7.365  16.041  0.00  0.00    +0.000 A 
ATOM      2  C   UNL     1      52.063   7.924  15.323  0.00  0.00    +0.000 A 
ATOM      3  C   UNL     1      51.854   9.048  14.518  0.00  0.00    +0.000 A 
ATOM      4  C   UNL     1      50.578   9.601  14.391  0.00  0.00    +0.000 A 
ATOM      5  C   UNL     1      49.495   9.042  15.075  0.00  0.00    +0.000 A 
ATOM      6  C   UNL     1      49.728   7.960  15.934  0.00  0.00    +0.000 A 
ENDROOT
BRANCH   1   7
ATOM      7  C   UNL     1      51.100   6.030  16.747  0.00  0.00    +0.000 C 
BRANCH   7   8
ATOM      8  N   UNL     1      49.923   5.168  16.673  0.00  0.00    +0.000 NA
ATOM      9  H   UNL     1      49.088   5.720  16.487  0.00  0.00    +0.000 HD
BRANCH   8  10
ATOM     10  C   UNL     1      49.706   4.383  17.910  0.00  0.00    +0.000 C 
BRANCH  10  11
ATOM     11  C   UNL     1      48.926   5.192  18.947  0.00  0.00    +0.000 A 
ATOM     12  C   UNL     1      47.994   6.185  18.599  0.00  0.00    +0.000 A 
ATOM     13  C   UNL     1      47.380   6.952  19.582  0.00  0.00    +0.000 A 
ATOM     14  C   UNL     1      47.705   6.700  20.901  0.00  0.00    +0.000 A 
ATOM     15  N   UNL     1      48.587   5.755  21.287  0.00  0.00    +0.000 NA
ATOM     16  C   UNL     1      49.185   5.036  20.305  0.00  0.00    +0.000 A 
ENDBRANCH  10  11
BRANCH  10  17
ATOM     17  C   UNL     1      49.082   2.974  17.699  0.00  0.00    +0.000 C 
BRANCH  17  18
ATOM     18  C   UNL     1      47.783   2.893  16.901  0.00  0.00    +0.000 C 
BRANCH  18  19
ATOM     19  N   UNL     1      46.600   2.831  17.746  0.00  0.00    +0.000 NA
ATOM     20  H   UNL     1      46.626   1.969  18.292  0.00  0.00    +0.000 HD
ATOM     21  H   UNL     1      45.764   2.758  17.165  0.00  0.00    +0.000 HD
ENDBRANCH  18  19
ENDBRANCH  17  18
ENDBRANCH  10  17
ENDBRANCH   8  10
ENDBRANCH   7   8
ENDBRANCH   1   7
BRANCH   5  22
ATOM     22  C   UNL     1      48.091   9.540  14.850  0.00  0.00    +0.000 C 
BRANCH  22  23
ATOM     23  N   UNL     1      47.218   8.514  14.352  0.00  0.00    +0.000 N 
ATOM     24  C   UNL     1      46.980   8.397  13.004  0.00  0.00    +0.000 C 
ATOM     25  O   UNL     1      47.542   9.112  12.180  0.00  0.00    +0.000 OA
ATOM     26  H   UNL     1      46.588   8.077  15.018  0.00  0.00    +0.000 HD
BRANCH  24  27
ATOM     27  C   UNL     1      46.063   7.330  12.590  0.00  0.00    +0.000 A 
ATOM     28  C   UNL     1      44.920   7.649  11.867  0.00  0.00    +0.000 A 
ATOM     29  S   UNL     1      43.991   6.292  11.419  0.00  0.00    +0.000 S 
ATOM     30  C   UNL     1      45.056   5.232  12.220  0.00  0.00    +0.000 A 
ATOM     31  N   UNL     1      44.823   3.892  12.240  0.00  0.00    +0.000 NA
ATOM     32  C   UNL     1      45.696   3.210  12.902  0.00  0.00    +0.000 A 
ATOM     33  N   UNL     1      46.784   3.743  13.548  0.00  0.00    +0.000 N 
ATOM     34  C   UNL     1      47.064   5.089  13.543  0.00  0.00    +0.000 A 
ATOM     35  O   UNL     1      48.053   5.531  14.119  0.00  0.00    +0.000 OA
ATOM     36  C   UNL     1      46.111   5.904  12.810  0.00  0.00    +0.000 A 
ATOM     37  H   UNL     1      47.429   3.155  14.047  0.00  0.00    +0.000 HD
ENDBRANCH  24  27
ENDBRANCH  22  23
ENDBRANCH   5  22
TORSDOF 10
ENDMDL
