MODEL 1
REMARK VINA RESULT:    -6.423      0.000      0.000
REMARK INTER + INTRA:          -8.547
REMARK INTER:                  -8.113
REMARK INTRA:                  -0.434
REMARK UNBOUND:                -0.434
REMARK  Name = 
REMARK  5 active torsions:
REMARK  status: ('A' for Active; 'I' for Inactive)
REMARK    1  A    between atoms: N_1  and  C_2
REMARK    2  A    between atoms: C_2  and  C_3
REMARK    3  A    between atoms: C_7  and  C_8
REMARK    4  A    between atoms: C_9  and  C_10
REMARK    5  A    between atoms: C_14  and  C_15
REMARK                            x       y       z     vdW  Elec       q    Type
REMARK                         _______ _______ _______ _____ _____    ______ ____
ROOT
ATOM      1  C   UNL     1      45.496   5.315   9.545  0.00  0.00    +0.000 C 
ATOM      2  C   UNL     1      45.489   5.511  10.876  0.00  0.00    +0.000 C 
ENDROOT
BRANCH   1   7
ATOM      3  C   UNL     1      46.572   2.752   7.005  0.00  0.00    +0.000 A 
ATOM      4  C   UNL     1      46.119   1.567   7.600  0.00  0.00    +0.000 A 
ATOM      5  C   UNL     1      45.418   1.602   8.803  0.00  0.00    +0.000 A 
ATOM      6  C   UNL     1      45.175   2.821   9.439  0.00  0.00    +0.000 A 
ATOM      7  C   UNL     1      45.614   4.020   8.865  0.00  0.00    +0.000 A 
ATOM      8  C   UNL     1      46.303   3.972   7.644  0.00  0.00    +0.000 A 
BRANCH   3   9
ATOM      9  C   UNL     1      47.392   2.717   5.742  0.00  0.00    +0.000 C 
BRANCH   9  10
ATOM     10  N   UNL     1      48.545   1.833   5.866  0.00  0.00    +0.000 NA
ATOM     11  H   UNL     1      49.046   1.819   4.979  0.00  0.00    +0.000 HD
ATOM     12  H   UNL     1      48.209   0.884   6.022  0.00  0.00    +0.000 HD
ENDBRANCH   9  10
ENDBRANCH   3   9
ENDBRANCH   1   7
BRANCH   2  13
ATOM     13  C   UNL     1      45.423   6.848  11.479  0.00  0.00    +0.000 A 
ATOM     14  C   UNL     1      46.255   7.192  12.536  0.00  0.00    +0.000 A 
ATOM     15  C   UNL     1      46.166   8.475  13.069  0.00  0.00    +0.000 A 
ATOM     16  C   UNL     1      45.257   9.380  12.531  0.00  0.00    +0.000 A 
ATOM     17  C   UNL     1      44.452   8.978  11.465  0.00  0.00    +0.000 A 
ATOM     18  N   UNL     1      44.535   7.722  10.945  0.00  0.00    +0.000 NA
BRANCH  17  19
ATOM     19  C   UNL     1      43.452   9.948  10.851  0.00  0.00    +0.000 C 
ATOM     20  F   UNL     1      43.817  10.382   9.606  0.00  0.00    +0.000 F 
ATOM     21  F   UNL     1      42.209   9.409  10.694  0.00  0.00    +0.000 F 
ATOM     22  F   UNL     1      43.282  11.081  11.592  0.00  0.00    +0.000 F 
ENDBRANCH  17  19
ENDBRANCH   2  13
TORSDOF 5
ENDMDL
MODEL 2
REMARK VINA RESULT:    -6.175      4.320      6.933
REMARK INTER + INTRA:          -8.234
REMARK INTER:                  -7.791
REMARK INTRA:                  -0.443
REMARK UNBOUND:                -0.434
REMARK  Name = 
REMARK  5 active torsions:
REMARK  status: ('A' for Active; 'I' for Inactive)
REMARK    1  A    between atoms: N_1  and  C_2
REMARK    2  A    between atoms: C_2  and  C_3
REMARK    3  A    between atoms: C_7  and  C_8
REMARK    4  A    between atoms: C_9  and  C_10
REMARK    5  A    between atoms: C_14  and  C_15
REMARK                            x       y       z     vdW  Elec       q    Type
REMARK                         _______ _______ _______ _____ _____    ______ ____
ROOT
ATOM      1  C   UNL     1      47.004   6.549  11.912  0.00  0.00    +0.000 C 
ATOM      2  C   UNL     1      45.679   6.474  11.695  0.00  0.00    +0.000 C 
ENDROOT
BRANCH   1   7
ATOM      3  C   UNL     1      49.971   8.838  11.535  0.00  0.00    +0.000 A 
ATOM      4  C   UNL     1      49.378  10.092  11.737  0.00  0.00    +0.000 A 
ATOM      5  C   UNL     1      48.024  10.194  12.047  0.00  0.00    +0.000 A 
ATOM      6  C   UNL     1      47.237   9.045  12.141  0.00  0.00    +0.000 A 
ATOM      7  C   UNL     1      47.804   7.780  11.947  0.00  0.00    +0.000 A 
ATOM      8  C   UNL     1      49.173   7.690  11.653  0.00  0.00    +0.000 A 
BRANCH   3   9
ATOM      9  C   UNL     1      51.417   8.724  11.129  0.00  0.00    +0.000 C 
BRANCH   9  10
ATOM     10  N   UNL     1      51.819   7.337  10.932  0.00  0.00    +0.000 NA
ATOM     11  H   UNL     1      52.655   7.155  11.485  0.00  0.00    +0.000 HD
ATOM     12  H   UNL     1      52.087   7.213   9.957  0.00  0.00    +0.000 HD
ENDBRANCH   9  10
ENDBRANCH   3   9
ENDBRANCH   1   7
BRANCH   2  13
ATOM     13  C   UNL     1      44.960   5.195  11.620  0.00  0.00    +0.000 A 
ATOM     14  C   UNL     1      44.097   4.806  12.635  0.00  0.00    +0.000 A 
ATOM     15  C   UNL     1      43.429   3.591  12.517  0.00  0.00    +0.000 A 
ATOM     16  C   UNL     1      43.633   2.801  11.390  0.00  0.00    +0.000 A 
ATOM     17  C   UNL     1      44.508   3.249  10.400  0.00  0.00    +0.000 A 
ATOM     18  N   UNL     1      45.166   4.436  10.516  0.00  0.00    +0.000 NA
BRANCH  17  19
ATOM     19  C   UNL     1      44.747   2.411   9.152  0.00  0.00    +0.000 C 
ATOM     20  F   UNL     1      46.060   2.070   8.975  0.00  0.00    +0.000 F 
ATOM     21  F   UNL     1      44.067   1.229   9.161  0.00  0.00    +0.000 F 
ATOM     22  F   UNL     1      44.382   3.048   8.002  0.00  0.00    +0.000 F 
ENDBRANCH  17  19
ENDBRANCH   2  13
TORSDOF 5
ENDMDL
MODEL 3
REMARK VINA RESULT:    -6.139      6.324      7.744
REMARK INTER + INTRA:          -8.187
REMARK INTER:                  -7.702
REMARK INTRA:                  -0.485
REMARK UNBOUND:                -0.434
REMARK  Name = 
REMARK  5 active torsions:
REMARK  status: ('A' for Active; 'I' for Inactive)
REMARK    1  A    between atoms: N_1  and  C_2
REMARK    2  A    between atoms: C_2  and  C_3
REMARK    3  A    between atoms: C_7  and  C_8
REMARK    4  A    between atoms: C_9  and  C_10
REMARK    5  A    between atoms: C_14  and  C_15
REMARK                            x       y       z     vdW  Elec       q    Type
REMARK                         _______ _______ _______ _____ _____    ______ ____
ROOT
ATOM      1  C   UNL     1      47.170   5.019  14.149  0.00  0.00    +0.000 C 
ATOM      2  C   UNL     1      46.937   4.193  15.185  0.00  0.00    +0.000 C 
ENDROOT
BRANCH   1   7
ATOM      3  C   UNL     1      44.575   4.153  11.561  0.00  0.00    +0.000 A 
ATOM      4  C   UNL     1      44.618   5.287  10.738  0.00  0.00    +0.000 A 
ATOM      5  C   UNL     1      45.526   6.312  10.991  0.00  0.00    +0.000 A 
ATOM      6  C   UNL     1      46.392   6.228  12.084  0.00  0.00    +0.000 A 
ATOM      7  C   UNL     1      46.372   5.107  12.920  0.00  0.00    +0.000 A 
ATOM      8  C   UNL     1      45.465   4.073  12.642  0.00  0.00    +0.000 A 
BRANCH   3   9
ATOM      9  C   UNL     1      43.548   3.074  11.336  0.00  0.00    +0.000 C 
BRANCH   9  10
ATOM     10  N   UNL     1      43.498   2.130  12.446  0.00  0.00    +0.000 NA
ATOM     11  H   UNL     1      43.675   2.632  13.314  0.00  0.00    +0.000 HD
ATOM     12  H   UNL     1      44.262   1.464  12.338  0.00  0.00    +0.000 HD
ENDBRANCH   9  10
ENDBRANCH   3   9
ENDBRANCH   1   7
BRANCH   2  13
ATOM     13  C   UNL     1      47.818   4.127  16.358  0.00  0.00    +0.000 A 
ATOM     14  C   UNL     1      47.460   3.382  17.474  0.00  0.00    +0.000 A 
ATOM     15  C   UNL     1      48.331   3.338  18.558  0.00  0.00    +0.000 A 
ATOM     16  C   UNL     1      49.536   4.032  18.499  0.00  0.00    +0.000 A 
ATOM     17  C   UNL     1      49.844   4.758  17.348  0.00  0.00    +0.000 A 
ATOM     18  N   UNL     1      48.990   4.804  16.288  0.00  0.00    +0.000 NA
BRANCH  17  19
ATOM     19  C   UNL     1      51.156   5.521  17.252  0.00  0.00    +0.000 C 
ATOM     20  F   UNL     1      52.252   4.704  17.200  0.00  0.00    +0.000 F 
ATOM     21  F   UNL     1      51.240   6.306  16.139  0.00  0.00    +0.000 F 
ATOM     22  F   UNL     1      51.374   6.348  18.315  0.00  0.00    +0.000 F 
ENDBRANCH  17  19
ENDBRANCH   2  13
TORSDOF 5
ENDMDL
MODEL 4
REMARK VINA RESULT:    -6.082      5.897      7.088
REMARK INTER + INTRA:          -8.116
REMARK INTER:                  -7.669
REMARK INTRA:                  -0.446
REMARK UNBOUND:                -0.434
REMARK  Name = 
REMARK  5 active torsions:
REMARK  status: ('A' for Active; 'I' for Inactive)
REMARK    1  A    between atoms: N_1  and  C_2
REMARK    2  A    between atoms: C_2  and  C_3
REMARK    3  A    between atoms: C_7  and  C_8
REMARK    4  A    between atoms: C_9  and  C_10
REMARK    5  A    between atoms: C_14  and  C_15
REMARK                            x       y       z     vdW  Elec       q    Type
REMARK                         _______ _______ _______ _____ _____    ______ ____
ROOT
ATOM      1  C   UNL     1      46.045   5.023  13.818  0.00  0.00    +0.000 C 
ATOM      2  C   UNL     1      47.157   5.771  13.932  0.00  0.00    +0.000 C 
ENDROOT
BRANCH   1   7
ATOM      3  C   UNL     1      44.534   4.710  10.383  0.00  0.00    +0.000 A 
ATOM      4  C   UNL     1      43.189   5.002  10.647  0.00  0.00    +0.000 A 
ATOM      5  C   UNL     1      42.778   5.352  11.931  0.00  0.00    +0.000 A 
ATOM      6  C   UNL     1      43.703   5.396  12.976  0.00  0.00    +0.000 A 
ATOM      7  C   UNL     1      45.053   5.112  12.740  0.00  0.00    +0.000 A 
ATOM      8  C   UNL     1      45.456   4.779  11.438  0.00  0.00    +0.000 A 
BRANCH   3   9
ATOM      9  C   UNL     1      44.972   4.262   9.014  0.00  0.00    +0.000 C 
BRANCH   9  10
ATOM     10  N   UNL     1      45.953   5.170   8.432  0.00  0.00    +0.000 NA
ATOM     11  H   UNL     1      46.652   5.395   9.137  0.00  0.00    +0.000 HD
ATOM     12  H   UNL     1      45.486   6.045   8.200  0.00  0.00    +0.000 HD
ENDBRANCH   9  10
ENDBRANCH   3   9
ENDBRANCH   1   7
BRANCH   2  13
ATOM     13  C   UNL     1      48.073   5.658  15.074  0.00  0.00    +0.000 A 
ATOM     14  C   UNL     1      49.022   6.641  15.323  0.00  0.00    +0.000 A 
ATOM     15  C   UNL     1      49.862   6.498  16.424  0.00  0.00    +0.000 A 
ATOM     16  C   UNL     1      49.730   5.386  17.249  0.00  0.00    +0.000 A 
ATOM     17  C   UNL     1      48.753   4.435  16.951  0.00  0.00    +0.000 A 
ATOM     18  N   UNL     1      47.934   4.572  15.872  0.00  0.00    +0.000 NA
BRANCH  17  19
ATOM     19  C   UNL     1      48.580   3.211  17.838  0.00  0.00    +0.000 C 
ATOM     20  F   UNL     1      49.599   2.307  17.716  0.00  0.00    +0.000 F 
ATOM     21  F   UNL     1      48.526   3.514  19.167  0.00  0.00    +0.000 F 
ATOM     22  F   UNL     1      47.442   2.509  17.565  0.00  0.00    +0.000 F 
ENDBRANCH  17  19
ENDBRANCH   2  13
TORSDOF 5
ENDMDL
MODEL 5
REMARK VINA RESULT:    -6.073      5.688      7.914
REMARK INTER + INTRA:          -8.105
REMARK INTER:                  -7.645
REMARK INTRA:                  -0.460
REMARK UNBOUND:                -0.434
REMARK  Name = 
REMARK  5 active torsions:
REMARK  status: ('A' for Active; 'I' for Inactive)
REMARK    1  A    between atoms: N_1  and  C_2
REMARK    2  A    between atoms: C_2  and  C_3
REMARK    3  A    between atoms: C_7  and  C_8
REMARK    4  A    between atoms: C_9  and  C_10
REMARK    5  A    between atoms: C_14  and  C_15
REMARK                            x       y       z     vdW  Elec       q    Type
REMARK                         _______ _______ _______ _____ _____    ______ ____
ROOT
ATOM      1  C   UNL     1      46.988   4.313  15.344  0.00  0.00    +0.000 C 
ATOM      2  C   UNL     1      47.255   5.217  14.384  0.00  0.00    +0.000 C 
ENDROOT
BRANCH   1   7
ATOM      3  C   UNL     1      49.704   3.329  17.759  0.00  0.00    +0.000 A 
ATOM      4  C   UNL     1      49.307   4.016  18.915  0.00  0.00    +0.000 A 
ATOM      5  C   UNL     1      48.129   4.759  18.928  0.00  0.00    +0.000 A 
ATOM      6  C   UNL     1      47.339   4.842  17.779  0.00  0.00    +0.000 A 
ATOM      7  C   UNL     1      47.710   4.164  16.613  0.00  0.00    +0.000 A 
ATOM      8  C   UNL     1      48.890   3.404  16.619  0.00  0.00    +0.000 A 
BRANCH   3   9
ATOM      9  C   UNL     1      51.012   2.583  17.715  0.00  0.00    +0.000 C 
BRANCH   9  10
ATOM     10  N   UNL     1      50.896   1.323  16.990  0.00  0.00    +0.000 NA
ATOM     11  H   UNL     1      51.729   0.764  17.168  0.00  0.00    +0.000 HD
ATOM     12  H   UNL     1      50.892   1.525  15.991  0.00  0.00    +0.000 HD
ENDBRANCH   9  10
ENDBRANCH   3   9
ENDBRANCH   1   7
BRANCH   2  13
ATOM     13  C   UNL     1      46.517   5.265  13.115  0.00  0.00    +0.000 A 
ATOM     14  C   UNL     1      46.835   6.205  12.144  0.00  0.00    +0.000 A 
ATOM     15  C   UNL     1      46.117   6.207  10.952  0.00  0.00    +0.000 A 
ATOM     16  C   UNL     1      45.108   5.268  10.757  0.00  0.00    +0.000 A 
ATOM     17  C   UNL     1      44.839   4.344  11.767  0.00  0.00    +0.000 A 
ATOM     18  N   UNL     1      45.538   4.345  12.935  0.00  0.00    +0.000 NA
BRANCH  17  19
ATOM     19  C   UNL     1      43.746   3.302  11.581  0.00  0.00    +0.000 C 
ATOM     20  F   UNL     1      42.507   3.849  11.385  0.00  0.00    +0.000 F 
ATOM     21  F   UNL     1      43.955   2.492  10.504  0.00  0.00    +0.000 F 
ATOM     22  F   UNL     1      43.608   2.474  12.656  0.00  0.00    +0.000 F 
ENDBRANCH  17  19
ENDBRANCH   2  13
TORSDOF 5
ENDMDL
MODEL 6
REMARK VINA RESULT:    -6.047      6.093      7.557
REMARK INTER + INTRA:          -8.072
REMARK INTER:                  -7.612
REMARK INTRA:                  -0.460
REMARK UNBOUND:                -0.434
REMARK  Name = 
REMARK  5 active torsions:
REMARK  status: ('A' for Active; 'I' for Inactive)
REMARK    1  A    between atoms: N_1  and  C_2
REMARK    2  A    between atoms: C_2  and  C_3
REMARK    3  A    between atoms: C_7  and  C_8
REMARK    4  A    between atoms: C_9  and  C_10
REMARK    5  A    between atoms: C_14  and  C_15
REMARK                            x       y       z     vdW  Elec       q    Type
REMARK                         _______ _______ _______ _____ _____    ______ ____
ROOT
ATOM      1  C   UNL     1      47.091   4.973  14.307  0.00  0.00    +0.000 C 
ATOM      2  C   UNL     1      46.940   4.009  15.234  0.00  0.00    +0.000 C 
ENDROOT
BRANCH   1   7
ATOM      3  C   UNL     1      44.743   4.059  11.509  0.00  0.00    +0.000 A 
ATOM      4  C   UNL     1      44.922   5.140  10.635  0.00  0.00    +0.000 A 
ATOM      5  C   UNL     1      45.844   6.143  10.928  0.00  0.00    +0.000 A 
ATOM      6  C   UNL     1      46.587   6.090  12.109  0.00  0.00    +0.000 A 
ATOM      7  C   UNL     1      46.430   5.020  12.998  0.00  0.00    +0.000 A 
ATOM      8  C   UNL     1      45.512   4.007  12.681  0.00  0.00    +0.000 A 
BRANCH   3   9
ATOM      9  C   UNL     1      43.699   3.009  11.233  0.00  0.00    +0.000 C 
BRANCH   9  10
ATOM     10  N   UNL     1      43.469   2.153  12.391  0.00  0.00    +0.000 NA
ATOM     11  H   UNL     1      44.052   2.477  13.161  0.00  0.00    +0.000 HD
ATOM     12  H   UNL     1      43.789   1.212  12.165  0.00  0.00    +0.000 HD
ENDBRANCH   9  10
ENDBRANCH   3   9
ENDBRANCH   1   7
BRANCH   2  13
ATOM     13  C   UNL     1      47.683   4.007  16.501  0.00  0.00    +0.000 A 
ATOM     14  C   UNL     1      48.608   3.010  16.781  0.00  0.00    +0.000 A 
ATOM     15  C   UNL     1      49.297   3.054  17.989  0.00  0.00    +0.000 A 
ATOM     16  C   UNL     1      49.050   4.092  18.882  0.00  0.00    +0.000 A 
ATOM     17  C   UNL     1      48.113   5.069  18.543  0.00  0.00    +0.000 A 
ATOM     18  N   UNL     1      47.436   5.024  17.363  0.00  0.00    +0.000 NA
BRANCH  17  19
ATOM     19  C   UNL     1      47.827   6.220  19.496  0.00  0.00    +0.000 C 
ATOM     20  F   UNL     1      46.862   5.927  20.420  0.00  0.00    +0.000 F 
ATOM     21  F   UNL     1      48.917   6.599  20.223  0.00  0.00    +0.000 F 
ATOM     22  F   UNL     1      47.387   7.344  18.860  0.00  0.00    +0.000 F 
ENDBRANCH  17  19
ENDBRANCH   2  13
TORSDOF 5
ENDMDL
MODEL 7
REMARK VINA RESULT:    -5.994      5.594      8.455
REMARK INTER + INTRA:          -8.004
REMARK INTER:                  -7.563
REMARK INTRA:                  -0.442
REMARK UNBOUND:                -0.434
REMARK  Name = 
REMARK  5 active torsions:
REMARK  status: ('A' for Active; 'I' for Inactive)
REMARK    1  A    between atoms: N_1  and  C_2
REMARK    2  A    between atoms: C_2  and  C_3
REMARK    3  A    between atoms: C_7  and  C_8
REMARK    4  A    between atoms: C_9  and  C_10
REMARK    5  A    between atoms: C_14  and  C_15
REMARK                            x       y       z     vdW  Elec       q    Type
REMARK                         _______ _______ _______ _____ _____    ______ ____
ROOT
ATOM      1  C   UNL     1      47.009   4.286  15.293  0.00  0.00    +0.000 C 
ATOM      2  C   UNL     1      47.191   5.242  14.363  0.00  0.00    +0.000 C 
ENDROOT
BRANCH   1   7
ATOM      3  C   UNL     1      48.082   5.076  18.814  0.00  0.00    +0.000 A 
ATOM      4  C   UNL     1      48.847   3.945  19.130  0.00  0.00    +0.000 A 
ATOM      5  C   UNL     1      49.059   2.946  18.182  0.00  0.00    +0.000 A 
ATOM      6  C   UNL     1      48.493   3.055  16.910  0.00  0.00    +0.000 A 
ATOM      7  C   UNL     1      47.727   4.175  16.568  0.00  0.00    +0.000 A 
ATOM      8  C   UNL     1      47.537   5.182  17.526  0.00  0.00    +0.000 A 
BRANCH   3   9
ATOM      9  C   UNL     1      47.789   6.124  19.856  0.00  0.00    +0.000 C 
BRANCH   9  10
ATOM     10  N   UNL     1      46.989   5.594  20.953  0.00  0.00    +0.000 NA
ATOM     11  H   UNL     1      47.197   4.603  21.063  0.00  0.00    +0.000 HD
ATOM     12  H   UNL     1      46.005   5.654  20.693  0.00  0.00    +0.000 HD
ENDBRANCH   9  10
ENDBRANCH   3   9
ENDBRANCH   1   7
BRANCH   2  13
ATOM     13  C   UNL     1      46.469   5.251  13.085  0.00  0.00    +0.000 A 
ATOM     14  C   UNL     1      46.802   6.158  12.088  0.00  0.00    +0.000 A 
ATOM     15  C   UNL     1      46.098   6.122  10.887  0.00  0.00    +0.000 A 
ATOM     16  C   UNL     1      45.089   5.182  10.711  0.00  0.00    +0.000 A 
ATOM     17  C   UNL     1      44.804   4.292  11.747  0.00  0.00    +0.000 A 
ATOM     18  N   UNL     1      45.489   4.329  12.923  0.00  0.00    +0.000 NA
BRANCH  17  19
ATOM     19  C   UNL     1      43.710   3.248  11.582  0.00  0.00    +0.000 C 
ATOM     20  F   UNL     1      43.904   2.429  10.504  0.00  0.00    +0.000 F 
ATOM     21  F   UNL     1      43.600   2.411  12.653  0.00  0.00    +0.000 F 
ATOM     22  F   UNL     1      42.472   3.794  11.401  0.00  0.00    +0.000 F 
ENDBRANCH  17  19
ENDBRANCH   2  13
TORSDOF 5
ENDMDL
MODEL 8
REMARK VINA RESULT:    -5.977      4.005      7.398
REMARK INTER + INTRA:          -7.983
REMARK INTER:                  -7.527
REMARK INTRA:                  -0.456
REMARK UNBOUND:                -0.434
REMARK  Name = 
REMARK  5 active torsions:
REMARK  status: ('A' for Active; 'I' for Inactive)
REMARK    1  A    between atoms: N_1  and  C_2
REMARK    2  A    between atoms: C_2  and  C_3
REMARK    3  A    between atoms: C_7  and  C_8
REMARK    4  A    between atoms: C_9  and  C_10
REMARK    5  A    between atoms: C_14  and  C_15
REMARK                            x       y       z     vdW  Elec       q    Type
REMARK                         _______ _______ _______ _____ _____    ______ ____
ROOT
ATOM      1  C   UNL     1      47.015   6.741  11.789  0.00  0.00    +0.000 C 
ATOM      2  C   UNL     1      45.718   6.628  11.450  0.00  0.00    +0.000 C 
ENDROOT
BRANCH   1   7
ATOM      3  C   UNL     1      47.876  10.399  12.023  0.00  0.00    +0.000 A 
ATOM      4  C   UNL     1      49.273  10.361  11.914  0.00  0.00    +0.000 A 
ATOM      5  C   UNL     1      49.935   9.152  11.713  0.00  0.00    +0.000 A 
ATOM      6  C   UNL     1      49.211   7.960  11.636  0.00  0.00    +0.000 A 
ATOM      7  C   UNL     1      47.816   7.970  11.739  0.00  0.00    +0.000 A 
ATOM      8  C   UNL     1      47.160   9.196  11.924  0.00  0.00    +0.000 A 
BRANCH   3   9
ATOM      9  C   UNL     1      47.160  11.692  12.313  0.00  0.00    +0.000 C 
BRANCH   9  10
ATOM     10  N   UNL     1      45.712  11.544  12.224  0.00  0.00    +0.000 NA
ATOM     11  H   UNL     1      45.483  10.552  12.208  0.00  0.00    +0.000 HD
ATOM     12  H   UNL     1      45.402  11.926  11.332  0.00  0.00    +0.000 HD
ENDBRANCH   9  10
ENDBRANCH   3   9
ENDBRANCH   1   7
BRANCH   2  13
ATOM     13  C   UNL     1      45.002   5.346  11.475  0.00  0.00    +0.000 A 
ATOM     14  C   UNL     1      44.169   5.020  12.537  0.00  0.00    +0.000 A 
ATOM     15  C   UNL     1      43.502   3.799  12.515  0.00  0.00    +0.000 A 
ATOM     16  C   UNL     1      43.676   2.941  11.433  0.00  0.00    +0.000 A 
ATOM     17  C   UNL     1      44.521   3.327  10.392  0.00  0.00    +0.000 A 
ATOM     18  N   UNL     1      45.178   4.520  10.416  0.00  0.00    +0.000 NA
BRANCH  17  19
ATOM     19  C   UNL     1      44.726   2.414   9.193  0.00  0.00    +0.000 C 
ATOM     20  F   UNL     1      46.030   2.038   9.018  0.00  0.00    +0.000 F 
ATOM     21  F   UNL     1      44.025   1.247   9.280  0.00  0.00    +0.000 F 
ATOM     22  F   UNL     1      44.356   2.989   8.012  0.00  0.00    +0.000 F 
ENDBRANCH  17  19
ENDBRANCH   2  13
TORSDOF 5
ENDMDL
MODEL 9
REMARK VINA RESULT:    -5.917      5.248      7.959
REMARK INTER + INTRA:          -7.908
REMARK INTER:                  -7.446
REMARK INTRA:                  -0.461
REMARK UNBOUND:                -0.434
REMARK  Name = 
REMARK  5 active torsions:
REMARK  status: ('A' for Active; 'I' for Inactive)
REMARK    1  A    between atoms: N_1  and  C_2
REMARK    2  A    between atoms: C_2  and  C_3
REMARK    3  A    between atoms: C_7  and  C_8
REMARK    4  A    between atoms: C_9  and  C_10
REMARK    5  A    between atoms: C_14  and  C_15
REMARK                            x       y       z     vdW  Elec       q    Type
REMARK                         _______ _______ _______ _____ _____    ______ ____
ROOT
ATOM      1  C   UNL     1      46.832   5.426  14.018  0.00  0.00    +0.000 C 
ATOM      2  C   UNL     1      46.106   4.382  13.578  0.00  0.00    +0.000 C 
ENDROOT
BRANCH   1   7
ATOM      3  C   UNL     1      48.525   4.223  17.159  0.00  0.00    +0.000 A 
ATOM      4  C   UNL     1      49.527   5.190  17.320  0.00  0.00    +0.000 A 
ATOM      5  C   UNL     1      49.623   6.264  16.437  0.00  0.00    +0.000 A 
ATOM      6  C   UNL     1      48.730   6.376  15.370  0.00  0.00    +0.000 A 
ATOM      7  C   UNL     1      47.719   5.427  15.188  0.00  0.00    +0.000 A 
ATOM      8  C   UNL     1      47.622   4.360  16.094  0.00  0.00    +0.000 A 
BRANCH   3   9
ATOM      9  C   UNL     1      48.459   3.022  18.066  0.00  0.00    +0.000 C 
BRANCH   9  10
ATOM     10  N   UNL     1      48.477   3.401  19.474  0.00  0.00    +0.000 NA
ATOM     11  H   UNL     1      48.367   4.411  19.544  0.00  0.00    +0.000 HD
ATOM     12  H   UNL     1      49.397   3.185  19.855  0.00  0.00    +0.000 HD
ENDBRANCH   9  10
ENDBRANCH   3   9
ENDBRANCH   1   7
BRANCH   2  13
ATOM     13  C   UNL     1      45.197   4.479  12.428  0.00  0.00    +0.000 A 
ATOM     14  C   UNL     1      44.240   5.483  12.363  0.00  0.00    +0.000 A 
ATOM     15  C   UNL     1      43.408   5.544  11.249  0.00  0.00    +0.000 A 
ATOM     16  C   UNL     1      43.556   4.609  10.229  0.00  0.00    +0.000 A 
ATOM     17  C   UNL     1      44.540   3.627  10.349  0.00  0.00    +0.000 A 
ATOM     18  N   UNL     1      45.352   3.565  11.440  0.00  0.00    +0.000 NA
BRANCH  17  19
ATOM     19  C   UNL     1      44.730   2.595   9.248  0.00  0.00    +0.000 C 
ATOM     20  F   UNL     1      46.000   2.090   9.195  0.00  0.00    +0.000 F 
ATOM     21  F   UNL     1      43.917   1.508   9.384  0.00  0.00    +0.000 F 
ATOM     22  F   UNL     1      44.489   3.093   8.000  0.00  0.00    +0.000 F 
ENDBRANCH  17  19
ENDBRANCH   2  13
TORSDOF 5
ENDMDL
