MODEL 1
REMARK VINA RESULT:    -8.084      0.000      0.000
REMARK INTER + INTRA:         -12.273
REMARK INTER:                 -10.920
REMARK INTRA:                  -1.353
REMARK UNBOUND:                -1.353
REMARK  Name = 
REMARK  7 active torsions:
REMARK  status: ('A' for Active; 'I' for Inactive)
REMARK    1  A    between atoms: C_1  and  S_2
REMARK    2  A    between atoms: S_2  and  C_5
REMARK    3  A    between atoms: C_8  and  N_9
REMARK    4  A    between atoms: N_9  and  C_10
REMARK    5  A    between atoms: C_10  and  C_11
REMARK    6  A    between atoms: C_15  and  C_16
REMARK    7  A    between atoms: C_24  and  C_25
REMARK                            x       y       z     vdW  Elec       q    Type
REMARK                         _______ _______ _______ _____ _____    ______ ____
ROOT
ATOM      1  N   UNL     1      44.320   6.902  12.579  0.00  0.00    +0.000 N 
ATOM      2  H   UNL     1      43.906   6.926  13.505  0.00  0.00    +0.000 HD
ENDROOT
BRANCH   1   6
ATOM      3  C   UNL     1      48.376   7.765  12.553  0.00  0.00    +0.000 A 
ATOM      4  C   UNL     1      47.398   8.646  12.155  0.00  0.00    +0.000 A 
ATOM      5  N   UNL     1      46.072   8.331  12.175  0.00  0.00    +0.000 NA
ATOM      6  C   UNL     1      45.686   7.085  12.558  0.00  0.00    +0.000 A 
ATOM      7  C   UNL     1      46.658   6.125  12.889  0.00  0.00    +0.000 A 
ATOM      8  C   UNL     1      48.009   6.477  12.894  0.00  0.00    +0.000 A 
BRANCH   3  10
ATOM      9  C   UNL     1      50.004  10.004  12.568  0.00  0.00    +0.000 C 
ATOM     10  S   UNL     1      50.069   8.230  12.633  0.00  0.00    +0.000 S 
ATOM     11  O   UNL     1      50.712   7.746  11.427  0.00  0.00    +0.000 OA
ATOM     12  O   UNL     1      50.553   7.852  13.943  0.00  0.00    +0.000 OA
ENDBRANCH   3  10
BRANCH   7  13
ATOM     13  C   UNL     1      46.368   4.782  13.267  0.00  0.00    +0.000 C 
ATOM     14  N   UNL     1      46.148   3.678  13.556  0.00  0.00    +0.000 NA
ENDBRANCH   7  13
ENDBRANCH   1   6
BRANCH   1  15
ATOM     15  C   UNL     1      43.514   6.534  11.435  0.00  0.00    +0.000 C 
BRANCH  15  16
ATOM     16  C   UNL     1      43.605   5.083  11.053  0.00  0.00    +0.000 A 
ATOM     17  C   UNL     1      43.011   4.081  11.824  0.00  0.00    +0.000 A 
ATOM     18  C   UNL     1      43.236   2.759  11.478  0.00  0.00    +0.000 A 
ATOM     19  N   UNL     1      44.015   2.376  10.445  0.00  0.00    +0.000 NA
ATOM     20  C   UNL     1      44.616   3.349   9.714  0.00  0.00    +0.000 A 
ATOM     21  C   UNL     1      44.419   4.700   9.987  0.00  0.00    +0.000 A 
BRANCH  20  22
ATOM     22  C   UNL     1      45.490   2.899   8.620  0.00  0.00    +0.000 A 
ATOM     23  C   UNL     1      45.947   3.791   7.627  0.00  0.00    +0.000 A 
ATOM     24  C   UNL     1      46.740   3.355   6.564  0.00  0.00    +0.000 A 
ATOM     25  C   UNL     1      47.102   2.016   6.479  0.00  0.00    +0.000 A 
ATOM     26  C   UNL     1      46.676   1.130   7.460  0.00  0.00    +0.000 A 
ATOM     27  F   UNL     1      47.025  -0.161   7.377  0.00  0.00    +0.000 F 
ATOM     28  C   UNL     1      45.886   1.556   8.522  0.00  0.00    +0.000 A 
ENDBRANCH  20  22
ENDBRANCH  15  16
ENDBRANCH   1  15
TORSDOF 6
ENDMDL
MODEL 2
REMARK VINA RESULT:    -7.780      4.284      7.434
REMARK INTER + INTRA:         -11.862
REMARK INTER:                 -11.262
REMARK INTRA:                  -0.600
REMARK UNBOUND:                -1.353
REMARK  Name = 
REMARK  7 active torsions:
REMARK  status: ('A' for Active; 'I' for Inactive)
REMARK    1  A    between atoms: C_1  and  S_2
REMARK    2  A    between atoms: S_2  and  C_5
REMARK    3  A    between atoms: C_8  and  N_9
REMARK    4  A    between atoms: N_9  and  C_10
REMARK    5  A    between atoms: C_10  and  C_11
REMARK    6  A    between atoms: C_15  and  C_16
REMARK    7  A    between atoms: C_24  and  C_25
REMARK                            x       y       z     vdW  Elec       q    Type
REMARK                         _______ _______ _______ _____ _____    ______ ____
ROOT
ATOM      1  N   UNL     1      44.640   5.666  10.222  0.00  0.00    +0.000 N 
ATOM      2  H   UNL     1      44.415   6.503   9.695  0.00  0.00    +0.000 HD
ENDROOT
BRANCH   1   6
ATOM      3  C   UNL     1      46.352   2.718   7.861  0.00  0.00    +0.000 A 
ATOM      4  C   UNL     1      46.549   4.066   7.674  0.00  0.00    +0.000 A 
ATOM      5  N   UNL     1      45.971   5.012   8.468  0.00  0.00    +0.000 NA
ATOM      6  C   UNL     1      45.126   4.625   9.461  0.00  0.00    +0.000 A 
ATOM      7  C   UNL     1      44.827   3.261   9.631  0.00  0.00    +0.000 A 
ATOM      8  C   UNL     1      45.455   2.307   8.829  0.00  0.00    +0.000 A 
BRANCH   3  10
ATOM      9  C   UNL     1      46.582   1.793   5.261  0.00  0.00    +0.000 C 
ATOM     10  S   UNL     1      47.201   1.514   6.903  0.00  0.00    +0.000 S 
ATOM     11  O   UNL     1      46.756   0.208   7.349  0.00  0.00    +0.000 OA
ATOM     12  O   UNL     1      48.603   1.871   6.915  0.00  0.00    +0.000 OA
ENDBRANCH   3  10
BRANCH   7  13
ATOM     13  C   UNL     1      43.930   2.750  10.612  0.00  0.00    +0.000 C 
ATOM     14  N   UNL     1      43.179   2.351  11.405  0.00  0.00    +0.000 NA
ENDBRANCH   7  13
ENDBRANCH   1   6
BRANCH   1  15
ATOM     15  C   UNL     1      44.594   5.687  11.668  0.00  0.00    +0.000 C 
BRANCH  15  16
ATOM     16  C   UNL     1      45.910   5.993  12.327  0.00  0.00    +0.000 A 
ATOM     17  C   UNL     1      46.944   6.633  11.640  0.00  0.00    +0.000 A 
ATOM     18  C   UNL     1      48.168   6.777  12.270  0.00  0.00    +0.000 A 
ATOM     19  N   UNL     1      48.432   6.317  13.511  0.00  0.00    +0.000 NA
ATOM     20  C   UNL     1      47.436   5.669  14.167  0.00  0.00    +0.000 A 
ATOM     21  C   UNL     1      46.172   5.507  13.607  0.00  0.00    +0.000 A 
BRANCH  20  22
ATOM     22  C   UNL     1      47.765   5.143  15.501  0.00  0.00    +0.000 A 
ATOM     23  C   UNL     1      48.739   5.757  16.317  0.00  0.00    +0.000 A 
ATOM     24  C   UNL     1      49.083   5.232  17.564  0.00  0.00    +0.000 A 
ATOM     25  C   UNL     1      48.451   4.084  18.024  0.00  0.00    +0.000 A 
ATOM     26  C   UNL     1      47.476   3.479  17.241  0.00  0.00    +0.000 A 
ATOM     27  F   UNL     1      46.867   2.372  17.687  0.00  0.00    +0.000 F 
ATOM     28  C   UNL     1      47.127   3.996  15.998  0.00  0.00    +0.000 A 
ENDBRANCH  20  22
ENDBRANCH  15  16
ENDBRANCH   1  15
TORSDOF 6
ENDMDL
MODEL 3
REMARK VINA RESULT:    -7.642      2.728      3.519
REMARK INTER + INTRA:         -11.675
REMARK INTER:                 -10.648
REMARK INTRA:                  -1.028
REMARK UNBOUND:                -1.353
REMARK  Name = 
REMARK  7 active torsions:
REMARK  status: ('A' for Active; 'I' for Inactive)
REMARK    1  A    between atoms: C_1  and  S_2
REMARK    2  A    between atoms: S_2  and  C_5
REMARK    3  A    between atoms: C_8  and  N_9
REMARK    4  A    between atoms: N_9  and  C_10
REMARK    5  A    between atoms: C_10  and  C_11
REMARK    6  A    between atoms: C_15  and  C_16
REMARK    7  A    between atoms: C_24  and  C_25
REMARK                            x       y       z     vdW  Elec       q    Type
REMARK                         _______ _______ _______ _____ _____    ______ ____
ROOT
ATOM      1  N   UNL     1      47.334   6.579  12.456  0.00  0.00    +0.000 N 
ATOM      2  H   UNL     1      48.151   6.663  11.861  0.00  0.00    +0.000 HD
ENDROOT
BRANCH   1   6
ATOM      3  C   UNL     1      48.144   5.353  16.333  0.00  0.00    +0.000 A 
ATOM      4  C   UNL     1      48.628   6.513  15.775  0.00  0.00    +0.000 A 
ATOM      5  N   UNL     1      48.343   6.888  14.495  0.00  0.00    +0.000 NA
ATOM      6  C   UNL     1      47.590   6.071  13.711  0.00  0.00    +0.000 A 
ATOM      7  C   UNL     1      47.149   4.835  14.213  0.00  0.00    +0.000 A 
ATOM      8  C   UNL     1      47.423   4.484  15.536  0.00  0.00    +0.000 A 
BRANCH   3  10
ATOM      9  C   UNL     1      48.348   3.172  18.028  0.00  0.00    +0.000 C 
ATOM     10  S   UNL     1      48.424   4.947  18.020  0.00  0.00    +0.000 S 
ATOM     11  O   UNL     1      47.305   5.462  18.784  0.00  0.00    +0.000 OA
ATOM     12  O   UNL     1      49.784   5.335  18.332  0.00  0.00    +0.000 OA
ENDBRANCH   3  10
BRANCH   7  13
ATOM     13  C   UNL     1      46.388   3.888  13.468  0.00  0.00    +0.000 C 
ATOM     14  N   UNL     1      45.787   3.114  12.842  0.00  0.00    +0.000 NA
ENDBRANCH   7  13
ENDBRANCH   1   6
BRANCH   1  15
ATOM     15  C   UNL     1      46.065   7.124  12.024  0.00  0.00    +0.000 C 
BRANCH  15  16
ATOM     16  C   UNL     1      45.240   6.188  11.186  0.00  0.00    +0.000 A 
ATOM     17  C   UNL     1      43.886   5.967  11.447  0.00  0.00    +0.000 A 
ATOM     18  C   UNL     1      43.218   5.003  10.711  0.00  0.00    +0.000 A 
ATOM     19  N   UNL     1      43.805   4.245   9.761  0.00  0.00    +0.000 NA
ATOM     20  C   UNL     1      45.128   4.439   9.527  0.00  0.00    +0.000 A 
ATOM     21  C   UNL     1      45.860   5.406  10.212  0.00  0.00    +0.000 A 
BRANCH  20  22
ATOM     22  C   UNL     1      45.748   3.571   8.515  0.00  0.00    +0.000 A 
ATOM     23  C   UNL     1      46.280   4.095   7.319  0.00  0.00    +0.000 A 
ATOM     24  C   UNL     1      46.828   3.266   6.338  0.00  0.00    +0.000 A 
ATOM     25  C   UNL     1      46.864   1.892   6.541  0.00  0.00    +0.000 A 
ATOM     26  C   UNL     1      46.362   1.362   7.723  0.00  0.00    +0.000 A 
ATOM     27  F   UNL     1      46.397   0.037   7.917  0.00  0.00    +0.000 F 
ATOM     28  C   UNL     1      45.815   2.182   8.704  0.00  0.00    +0.000 A 
ENDBRANCH  20  22
ENDBRANCH  15  16
ENDBRANCH   1  15
TORSDOF 6
ENDMDL
MODEL 4
REMARK VINA RESULT:    -7.570      1.188      2.145
REMARK INTER + INTRA:         -11.578
REMARK INTER:                 -10.626
REMARK INTRA:                  -0.953
REMARK UNBOUND:                -1.353
REMARK  Name = 
REMARK  7 active torsions:
REMARK  status: ('A' for Active; 'I' for Inactive)
REMARK    1  A    between atoms: C_1  and  S_2
REMARK    2  A    between atoms: S_2  and  C_5
REMARK    3  A    between atoms: C_8  and  N_9
REMARK    4  A    between atoms: N_9  and  C_10
REMARK    5  A    between atoms: C_10  and  C_11
REMARK    6  A    between atoms: C_15  and  C_16
REMARK    7  A    between atoms: C_24  and  C_25
REMARK                            x       y       z     vdW  Elec       q    Type
REMARK                         _______ _______ _______ _____ _____    ______ ____
ROOT
ATOM      1  N   UNL     1      44.567   6.858  12.570  0.00  0.00    +0.000 N 
ATOM      2  H   UNL     1      44.284   6.582  13.504  0.00  0.00    +0.000 HD
ENDROOT
BRANCH   1   6
ATOM      3  C   UNL     1      48.496   8.142  12.239  0.00  0.00    +0.000 A 
ATOM      4  C   UNL     1      48.130   6.850  12.534  0.00  0.00    +0.000 A 
ATOM      5  N   UNL     1      46.828   6.459  12.636  0.00  0.00    +0.000 NA
ATOM      6  C   UNL     1      45.839   7.381  12.489  0.00  0.00    +0.000 A 
ATOM      7  C   UNL     1      46.171   8.731  12.273  0.00  0.00    +0.000 A 
ATOM      8  C   UNL     1      47.509   9.104  12.139  0.00  0.00    +0.000 A 
BRANCH   3  10
ATOM      9  C   UNL     1      50.904   8.335  13.592  0.00  0.00    +0.000 C 
ATOM     10  S   UNL     1      50.175   8.598  11.993  0.00  0.00    +0.000 S 
ATOM     11  O   UNL     1      50.204  10.018  11.700  0.00  0.00    +0.000 OA
ATOM     12  O   UNL     1      50.750   7.634  11.079  0.00  0.00    +0.000 OA
ENDBRANCH   3  10
BRANCH   7  13
ATOM     13  C   UNL     1      45.219   9.782  12.142  0.00  0.00    +0.000 C 
ATOM     14  N   UNL     1      44.451  10.651  12.059  0.00  0.00    +0.000 NA
ENDBRANCH   7  13
ENDBRANCH   1   6
BRANCH   1  15
ATOM     15  C   UNL     1      43.725   6.544  11.435  0.00  0.00    +0.000 C 
BRANCH  15  16
ATOM     16  C   UNL     1      43.744   5.096  11.030  0.00  0.00    +0.000 A 
ATOM     17  C   UNL     1      43.100   4.114  11.785  0.00  0.00    +0.000 A 
ATOM     18  C   UNL     1      43.258   2.788  11.419  0.00  0.00    +0.000 A 
ATOM     19  N   UNL     1      44.018   2.382  10.380  0.00  0.00    +0.000 NA
ATOM     20  C   UNL     1      44.668   3.335   9.665  0.00  0.00    +0.000 A 
ATOM     21  C   UNL     1      44.538   4.690   9.959  0.00  0.00    +0.000 A 
BRANCH  20  22
ATOM     22  C   UNL     1      45.520   2.859   8.564  0.00  0.00    +0.000 A 
ATOM     23  C   UNL     1      45.943   3.723   7.533  0.00  0.00    +0.000 A 
ATOM     24  C   UNL     1      46.715   3.261   6.464  0.00  0.00    +0.000 A 
ATOM     25  C   UNL     1      47.087   1.924   6.413  0.00  0.00    +0.000 A 
ATOM     26  C   UNL     1      46.695   1.065   7.432  0.00  0.00    +0.000 A 
ATOM     27  F   UNL     1      47.056  -0.224   7.381  0.00  0.00    +0.000 F 
ATOM     28  C   UNL     1      45.927   1.518   8.499  0.00  0.00    +0.000 A 
ENDBRANCH  20  22
ENDBRANCH  15  16
ENDBRANCH   1  15
TORSDOF 6
ENDMDL
MODEL 5
REMARK VINA RESULT:    -7.525      3.911      7.117
REMARK INTER + INTRA:         -11.517
REMARK INTER:                 -10.733
REMARK INTRA:                  -0.783
REMARK UNBOUND:                -1.353
REMARK  Name = 
REMARK  7 active torsions:
REMARK  status: ('A' for Active; 'I' for Inactive)
REMARK    1  A    between atoms: C_1  and  S_2
REMARK    2  A    between atoms: S_2  and  C_5
REMARK    3  A    between atoms: C_8  and  N_9
REMARK    4  A    between atoms: N_9  and  C_10
REMARK    5  A    between atoms: C_10  and  C_11
REMARK    6  A    between atoms: C_15  and  C_16
REMARK    7  A    between atoms: C_24  and  C_25
REMARK                            x       y       z     vdW  Elec       q    Type
REMARK                         _______ _______ _______ _____ _____    ______ ____
ROOT
ATOM      1  N   UNL     1      44.534   5.642  10.145  0.00  0.00    +0.000 N 
ATOM      2  H   UNL     1      44.380   6.490   9.609  0.00  0.00    +0.000 HD
ENDROOT
BRANCH   1   6
ATOM      3  C   UNL     1      46.342   2.672   7.886  0.00  0.00    +0.000 A 
ATOM      4  C   UNL     1      46.508   4.019   7.662  0.00  0.00    +0.000 A 
ATOM      5  N   UNL     1      45.898   4.972   8.423  0.00  0.00    +0.000 NA
ATOM      6  C   UNL     1      45.053   4.592   9.419  0.00  0.00    +0.000 A 
ATOM      7  C   UNL     1      44.787   3.227   9.625  0.00  0.00    +0.000 A 
ATOM      8  C   UNL     1      45.446   2.267   8.856  0.00  0.00    +0.000 A 
BRANCH   3  10
ATOM      9  C   UNL     1      46.633   1.691   5.313  0.00  0.00    +0.000 C 
ATOM     10  S   UNL     1      47.230   1.463   6.970  0.00  0.00    +0.000 S 
ATOM     11  O   UNL     1      46.804   0.159   7.441  0.00  0.00    +0.000 OA
ATOM     12  O   UNL     1      48.625   1.848   6.997  0.00  0.00    +0.000 OA
ENDBRANCH   3  10
BRANCH   7  13
ATOM     13  C   UNL     1      43.892   2.722  10.612  0.00  0.00    +0.000 C 
ATOM     14  N   UNL     1      43.145   2.302  11.397  0.00  0.00    +0.000 NA
ENDBRANCH   7  13
ENDBRANCH   1   6
BRANCH   1  15
ATOM     15  C   UNL     1      44.363   5.654  11.582  0.00  0.00    +0.000 C 
BRANCH  15  16
ATOM     16  C   UNL     1      45.642   5.522  12.360  0.00  0.00    +0.000 A 
ATOM     17  C   UNL     1      45.801   4.554  13.354  0.00  0.00    +0.000 A 
ATOM     18  C   UNL     1      46.960   4.567  14.112  0.00  0.00    +0.000 A 
ATOM     19  N   UNL     1      47.946   5.476  13.959  0.00  0.00    +0.000 NA
ATOM     20  C   UNL     1      47.779   6.434  13.013  0.00  0.00    +0.000 A 
ATOM     21  C   UNL     1      46.650   6.471  12.197  0.00  0.00    +0.000 A 
BRANCH  20  22
ATOM     22  C   UNL     1      48.851   7.434  12.897  0.00  0.00    +0.000 A 
ATOM     23  C   UNL     1      49.878   7.529  13.859  0.00  0.00    +0.000 A 
ATOM     24  C   UNL     1      50.871   8.507  13.773  0.00  0.00    +0.000 A 
ATOM     25  C   UNL     1      50.859   9.407  12.714  0.00  0.00    +0.000 A 
ATOM     26  C   UNL     1      49.865   9.314  11.748  0.00  0.00    +0.000 A 
ATOM     27  F   UNL     1      49.856  10.181  10.728  0.00  0.00    +0.000 F 
ATOM     28  C   UNL     1      48.874   8.342  11.827  0.00  0.00    +0.000 A 
ENDBRANCH  20  22
ENDBRANCH  15  16
ENDBRANCH   1  15
TORSDOF 6
ENDMDL
MODEL 6
REMARK VINA RESULT:    -7.501      2.887      3.902
REMARK INTER + INTRA:         -11.485
REMARK INTER:                 -10.738
REMARK INTRA:                  -0.747
REMARK UNBOUND:                -1.353
REMARK  Name = 
REMARK  7 active torsions:
REMARK  status: ('A' for Active; 'I' for Inactive)
REMARK    1  A    between atoms: C_1  and  S_2
REMARK    2  A    between atoms: S_2  and  C_5
REMARK    3  A    between atoms: C_8  and  N_9
REMARK    4  A    between atoms: N_9  and  C_10
REMARK    5  A    between atoms: C_10  and  C_11
REMARK    6  A    between atoms: C_15  and  C_16
REMARK    7  A    between atoms: C_24  and  C_25
REMARK                            x       y       z     vdW  Elec       q    Type
REMARK                         _______ _______ _______ _____ _____    ______ ____
ROOT
ATOM      1  N   UNL     1      47.251   6.803  12.325  0.00  0.00    +0.000 N 
ATOM      2  H   UNL     1      48.122   7.040  11.862  0.00  0.00    +0.000 HD
ENDROOT
BRANCH   1   6
ATOM      3  C   UNL     1      47.635   4.615  15.826  0.00  0.00    +0.000 A 
ATOM      4  C   UNL     1      46.824   4.253  14.776  0.00  0.00    +0.000 A 
ATOM      5  N   UNL     1      46.720   4.995  13.637  0.00  0.00    +0.000 NA
ATOM      6  C   UNL     1      47.402   6.168  13.538  0.00  0.00    +0.000 A 
ATOM      7  C   UNL     1      48.174   6.619  14.623  0.00  0.00    +0.000 A 
ATOM      8  C   UNL     1      48.294   5.828  15.767  0.00  0.00    +0.000 A 
BRANCH   3  10
ATOM      9  C   UNL     1      48.998   2.356  16.666  0.00  0.00    +0.000 C 
ATOM     10  S   UNL     1      47.847   3.584  17.234  0.00  0.00    +0.000 S 
ATOM     11  O   UNL     1      46.576   2.940  17.499  0.00  0.00    +0.000 OA
ATOM     12  O   UNL     1      48.509   4.378  18.247  0.00  0.00    +0.000 OA
ENDBRANCH   3  10
BRANCH   7  13
ATOM     13  C   UNL     1      48.898   7.846  14.641  0.00  0.00    +0.000 C 
ATOM     14  N   UNL     1      49.465   8.861  14.659  0.00  0.00    +0.000 NA
ENDBRANCH   7  13
ENDBRANCH   1   6
BRANCH   1  15
ATOM     15  C   UNL     1      45.993   7.274  11.785  0.00  0.00    +0.000 C 
BRANCH  15  16
ATOM     16  C   UNL     1      45.204   6.227  11.049  0.00  0.00    +0.000 A 
ATOM     17  C   UNL     1      43.886   5.922  11.395  0.00  0.00    +0.000 A 
ATOM     18  C   UNL     1      43.260   4.867  10.753  0.00  0.00    +0.000 A 
ATOM     19  N   UNL     1      43.857   4.097   9.818  0.00  0.00    +0.000 NA
ATOM     20  C   UNL     1      45.147   4.375   9.503  0.00  0.00    +0.000 A 
ATOM     21  C   UNL     1      45.834   5.435  10.090  0.00  0.00    +0.000 A 
BRANCH  20  22
ATOM     22  C   UNL     1      45.783   3.494   8.512  0.00  0.00    +0.000 A 
ATOM     23  C   UNL     1      46.365   4.008   7.334  0.00  0.00    +0.000 A 
ATOM     24  C   UNL     1      46.928   3.168   6.371  0.00  0.00    +0.000 A 
ATOM     25  C   UNL     1      46.930   1.794   6.575  0.00  0.00    +0.000 A 
ATOM     26  C   UNL     1      46.378   1.274   7.739  0.00  0.00    +0.000 A 
ATOM     27  F   UNL     1      46.381  -0.051   7.934  0.00  0.00    +0.000 F 
ATOM     28  C   UNL     1      45.816   2.104   8.702  0.00  0.00    +0.000 A 
ENDBRANCH  20  22
ENDBRANCH  15  16
ENDBRANCH   1  15
TORSDOF 6
ENDMDL
MODEL 7
REMARK VINA RESULT:    -7.033      2.564      3.043
REMARK INTER + INTRA:         -10.852
REMARK INTER:                 -10.151
REMARK INTRA:                  -0.701
REMARK UNBOUND:                -1.353
REMARK  Name = 
REMARK  7 active torsions:
REMARK  status: ('A' for Active; 'I' for Inactive)
REMARK    1  A    between atoms: C_1  and  S_2
REMARK    2  A    between atoms: S_2  and  C_5
REMARK    3  A    between atoms: C_8  and  N_9
REMARK    4  A    between atoms: N_9  and  C_10
REMARK    5  A    between atoms: C_10  and  C_11
REMARK    6  A    between atoms: C_15  and  C_16
REMARK    7  A    between atoms: C_24  and  C_25
REMARK                            x       y       z     vdW  Elec       q    Type
REMARK                         _______ _______ _______ _____ _____    ______ ____
ROOT
ATOM      1  N   UNL     1      46.533   4.451  14.021  0.00  0.00    +0.000 N 
ATOM      2  H   UNL     1      46.745   3.471  13.862  0.00  0.00    +0.000 HD
ENDROOT
BRANCH   1   6
ATOM      3  C   UNL     1      49.281   6.711  16.149  0.00  0.00    +0.000 A 
ATOM      4  C   UNL     1      49.024   6.874  14.808  0.00  0.00    +0.000 A 
ATOM      5  N   UNL     1      48.113   6.113  14.136  0.00  0.00    +0.000 NA
ATOM      6  C   UNL     1      47.458   5.118  14.793  0.00  0.00    +0.000 A 
ATOM      7  C   UNL     1      47.755   4.860  16.143  0.00  0.00    +0.000 A 
ATOM      8  C   UNL     1      48.666   5.672  16.821  0.00  0.00    +0.000 A 
BRANCH   3  10
ATOM      9  C   UNL     1      50.058   7.374  18.723  0.00  0.00    +0.000 C 
ATOM     10  S   UNL     1      50.370   7.780  17.022  0.00  0.00    +0.000 S 
ATOM     11  O   UNL     1      49.929   9.141  16.783  0.00  0.00    +0.000 OA
ATOM     12  O   UNL     1      51.719   7.364  16.706  0.00  0.00    +0.000 OA
ENDBRANCH   3  10
BRANCH   7  13
ATOM     13  C   UNL     1      47.158   3.823  16.915  0.00  0.00    +0.000 C 
ATOM     14  N   UNL     1      46.645   2.984  17.535  0.00  0.00    +0.000 NA
ENDBRANCH   7  13
ENDBRANCH   1   6
BRANCH   1  15
ATOM     15  C   UNL     1      45.428   5.074  13.324  0.00  0.00    +0.000 C 
BRANCH  15  16
ATOM     16  C   UNL     1      44.807   4.218  12.255  0.00  0.00    +0.000 A 
ATOM     17  C   UNL     1      43.643   3.482  12.488  0.00  0.00    +0.000 A 
ATOM     18  C   UNL     1      43.194   2.624  11.498  0.00  0.00    +0.000 A 
ATOM     19  N   UNL     1      43.826   2.442  10.320  0.00  0.00    +0.000 NA
ATOM     20  C   UNL     1      44.972   3.135  10.106  0.00  0.00    +0.000 A 
ATOM     21  C   UNL     1      45.474   4.033  11.045  0.00  0.00    +0.000 A 
BRANCH  20  22
ATOM     22  C   UNL     1      45.660   2.885   8.830  0.00  0.00    +0.000 A 
ATOM     23  C   UNL     1      45.944   3.930   7.927  0.00  0.00    +0.000 A 
ATOM     24  C   UNL     1      46.556   3.686   6.696  0.00  0.00    +0.000 A 
ATOM     25  C   UNL     1      46.907   2.387   6.349  0.00  0.00    +0.000 A 
ATOM     26  C   UNL     1      46.652   1.349   7.236  0.00  0.00    +0.000 A 
ATOM     27  F   UNL     1      46.992   0.098   6.900  0.00  0.00    +0.000 F 
ATOM     28  C   UNL     1      46.043   1.585   8.463  0.00  0.00    +0.000 A 
ENDBRANCH  20  22
ENDBRANCH  15  16
ENDBRANCH   1  15
TORSDOF 6
ENDMDL
MODEL 8
REMARK VINA RESULT:    -6.590      3.036      4.144
REMARK INTER + INTRA:         -10.254
REMARK INTER:                  -9.475
REMARK INTRA:                  -0.779
REMARK UNBOUND:                -1.353
REMARK  Name = 
REMARK  7 active torsions:
REMARK  status: ('A' for Active; 'I' for Inactive)
REMARK    1  A    between atoms: C_1  and  S_2
REMARK    2  A    between atoms: S_2  and  C_5
REMARK    3  A    between atoms: C_8  and  N_9
REMARK    4  A    between atoms: N_9  and  C_10
REMARK    5  A    between atoms: C_10  and  C_11
REMARK    6  A    between atoms: C_15  and  C_16
REMARK    7  A    between atoms: C_24  and  C_25
REMARK                            x       y       z     vdW  Elec       q    Type
REMARK                         _______ _______ _______ _____ _____    ______ ____
ROOT
ATOM      1  N   UNL     1      47.370   6.515  12.786  0.00  0.00    +0.000 N 
ATOM      2  H   UNL     1      48.051   6.318  12.061  0.00  0.00    +0.000 HD
ENDROOT
BRANCH   1   6
ATOM      3  C   UNL     1      48.645   5.424  16.577  0.00  0.00    +0.000 A 
ATOM      4  C   UNL     1      47.793   4.671  15.804  0.00  0.00    +0.000 A 
ATOM      5  N   UNL     1      47.391   5.058  14.560  0.00  0.00    +0.000 NA
ATOM      6  C   UNL     1      47.804   6.257  14.067  0.00  0.00    +0.000 A 
ATOM      7  C   UNL     1      48.605   7.098  14.859  0.00  0.00    +0.000 A 
ATOM      8  C   UNL     1      49.032   6.668  16.117  0.00  0.00    +0.000 A 
BRANCH   3  10
ATOM      9  C   UNL     1      50.133   3.374  17.696  0.00  0.00    +0.000 C 
ATOM     10  S   UNL     1      49.245   4.851  18.127  0.00  0.00    +0.000 S 
ATOM     11  O   UNL     1      48.096   4.482  18.930  0.00  0.00    +0.000 OA
ATOM     12  O   UNL     1      50.206   5.825  18.598  0.00  0.00    +0.000 OA
ENDBRANCH   3  10
BRANCH   7  13
ATOM     13  C   UNL     1      49.062   8.386  14.458  0.00  0.00    +0.000 C 
ATOM     14  N   UNL     1      49.423   9.434  14.106  0.00  0.00    +0.000 NA
ENDBRANCH   7  13
ENDBRANCH   1   6
BRANCH   1  15
ATOM     15  C   UNL     1      46.125   7.173  12.448  0.00  0.00    +0.000 C 
BRANCH  15  16
ATOM     16  C   UNL     1      45.204   6.355  11.587  0.00  0.00    +0.000 A 
ATOM     17  C   UNL     1      43.825   6.327  11.806  0.00  0.00    +0.000 A 
ATOM     18  C   UNL     1      43.052   5.460  11.052  0.00  0.00    +0.000 A 
ATOM     19  N   UNL     1      43.557   4.621  10.123  0.00  0.00    +0.000 NA
ATOM     20  C   UNL     1      44.900   4.627   9.931  0.00  0.00    +0.000 A 
ATOM     21  C   UNL     1      45.739   5.487  10.636  0.00  0.00    +0.000 A 
BRANCH  20  22
ATOM     22  C   UNL     1      45.424   3.672   8.942  0.00  0.00    +0.000 A 
ATOM     23  C   UNL     1      45.446   2.285   9.195  0.00  0.00    +0.000 A 
ATOM     24  C   UNL     1      45.984   1.383   8.275  0.00  0.00    +0.000 A 
ATOM     25  C   UNL     1      46.505   1.854   7.075  0.00  0.00    +0.000 A 
ATOM     26  C   UNL     1      46.473   3.216   6.804  0.00  0.00    +0.000 A 
ATOM     27  F   UNL     1      46.974   3.667   5.647  0.00  0.00    +0.000 F 
ATOM     28  C   UNL     1      45.937   4.119   7.715  0.00  0.00    +0.000 A 
ENDBRANCH  20  22
ENDBRANCH  15  16
ENDBRANCH   1  15
TORSDOF 6
ENDMDL
MODEL 9
REMARK VINA RESULT:    -6.518      3.964      5.339
REMARK INTER + INTRA:         -10.157
REMARK INTER:                  -9.436
REMARK INTRA:                  -0.721
REMARK UNBOUND:                -1.353
REMARK  Name = 
REMARK  7 active torsions:
REMARK  status: ('A' for Active; 'I' for Inactive)
REMARK    1  A    between atoms: C_1  and  S_2
REMARK    2  A    between atoms: S_2  and  C_5
REMARK    3  A    between atoms: C_8  and  N_9
REMARK    4  A    between atoms: N_9  and  C_10
REMARK    5  A    between atoms: C_10  and  C_11
REMARK    6  A    between atoms: C_15  and  C_16
REMARK    7  A    between atoms: C_24  and  C_25
REMARK                            x       y       z     vdW  Elec       q    Type
REMARK                         _______ _______ _______ _____ _____    ______ ____
ROOT
ATOM      1  N   UNL     1      47.936   6.465  15.163  0.00  0.00    +0.000 N 
ATOM      2  H   UNL     1      46.997   6.123  15.337  0.00  0.00    +0.000 HD
ENDROOT
BRANCH   1   6
ATOM      3  C   UNL     1      50.999   5.089  17.595  0.00  0.00    +0.000 A 
ATOM      4  C   UNL     1      51.136   6.116  16.690  0.00  0.00    +0.000 A 
ATOM      5  N   UNL     1      50.108   6.545  15.903  0.00  0.00    +0.000 NA
ATOM      6  C   UNL     1      48.905   5.913  15.971  0.00  0.00    +0.000 A 
ATOM      7  C   UNL     1      48.748   4.802  16.819  0.00  0.00    +0.000 A 
ATOM      8  C   UNL     1      49.803   4.400  17.640  0.00  0.00    +0.000 A 
BRANCH   3  10
ATOM      9  C   UNL     1      52.567   2.918  18.298  0.00  0.00    +0.000 C 
ATOM     10  S   UNL     1      52.301   4.631  18.683  0.00  0.00    +0.000 S 
ATOM     11  O   UNL     1      51.793   4.729  20.038  0.00  0.00    +0.000 OA
ATOM     12  O   UNL     1      53.478   5.366  18.272  0.00  0.00    +0.000 OA
ENDBRANCH   3  10
BRANCH   7  13
ATOM     13  C   UNL     1      47.547   4.046  16.939  0.00  0.00    +0.000 C 
ATOM     14  N   UNL     1      46.559   3.445  17.059  0.00  0.00    +0.000 NA
ENDBRANCH   7  13
ENDBRANCH   1   6
BRANCH   1  15
ATOM     15  C   UNL     1      48.192   7.331  14.032  0.00  0.00    +0.000 C 
BRANCH  15  16
ATOM     16  C   UNL     1      47.067   7.403  13.038  0.00  0.00    +0.000 A 
ATOM     17  C   UNL     1      46.219   8.511  12.967  0.00  0.00    +0.000 A 
ATOM     18  C   UNL     1      45.132   8.459  12.111  0.00  0.00    +0.000 A 
ATOM     19  N   UNL     1      44.829   7.388  11.347  0.00  0.00    +0.000 NA
ATOM     20  C   UNL     1      45.636   6.301  11.438  0.00  0.00    +0.000 A 
ATOM     21  C   UNL     1      46.761   6.288  12.259  0.00  0.00    +0.000 A 
BRANCH  20  22
ATOM     22  C   UNL     1      45.258   5.135  10.625  0.00  0.00    +0.000 A 
ATOM     23  C   UNL     1      44.514   4.067  11.168  0.00  0.00    +0.000 A 
ATOM     24  C   UNL     1      44.193   2.940  10.409  0.00  0.00    +0.000 A 
ATOM     25  C   UNL     1      44.604   2.865   9.083  0.00  0.00    +0.000 A 
ATOM     26  C   UNL     1      45.320   3.918   8.528  0.00  0.00    +0.000 A 
ATOM     27  F   UNL     1      45.714   3.843   7.250  0.00  0.00    +0.000 F 
ATOM     28  C   UNL     1      45.642   5.043   9.278  0.00  0.00    +0.000 A 
ENDBRANCH  20  22
ENDBRANCH  15  16
ENDBRANCH   1  15
TORSDOF 6
ENDMDL
