MODEL 1
REMARK VINA RESULT:    -8.015      0.000      0.000
REMARK INTER + INTRA:         -13.097
REMARK INTER:                 -11.998
REMARK INTRA:                  -1.098
REMARK UNBOUND:                -1.098
REMARK  Name = 
REMARK  10 active torsions:
REMARK  status: ('A' for Active; 'I' for Inactive)
REMARK    1  A    between atoms: C_1  and  C_2
REMARK    2  A    between atoms: C_2  and  C_3
REMARK    3  A    between atoms: C_3  and  O_4
REMARK    4  A    between atoms: C_3  and  C_5
REMARK    5  A    between atoms: C_3  and  C_16
REMARK    6  A    between atoms: C_5  and  O_6
REMARK    7  A    between atoms: O_6  and  C_7
REMARK    8  A    between atoms: C_10  and  C_11
REMARK    9  A    between atoms: C_20  and  O_21
REMARK   10  A    between atoms: O_21  and  C_22
REMARK                            x       y       z     vdW  Elec       q    Type
REMARK                         _______ _______ _______ _____ _____    ______ ____
ROOT
ATOM      1  C   UNL     1      43.544   5.066  11.897  0.00  0.00    +0.000 C 
ENDROOT
BRANCH   1   2
ATOM      2  C   UNL     1      44.795   5.808  12.385  0.00  0.00    +0.000 A 
ATOM      3  C   UNL     1      44.891   7.202  12.208  0.00  0.00    +0.000 A 
ATOM      4  C   UNL     1      46.025   7.906  12.607  0.00  0.00    +0.000 A 
ATOM      5  C   UNL     1      47.078   7.237  13.221  0.00  0.00    +0.000 A 
ATOM      6  C   UNL     1      46.980   5.871  13.479  0.00  0.00    +0.000 A 
ATOM      7  C   UNL     1      45.862   5.155  13.032  0.00  0.00    +0.000 A 
BRANCH   6   8
ATOM      8  O   UNL     1      47.969   5.158  14.118  0.00  0.00    +0.000 OA
BRANCH   8   9
ATOM      9  C   UNL     1      47.702   4.497  15.267  0.00  0.00    +0.000 A 
ATOM     10  C   UNL     1      47.405   4.989  16.554  0.00  0.00    +0.000 A 
ATOM     11  C   UNL     1      47.370   3.865  17.345  0.00  0.00    +0.000 A 
ATOM     12  N   UNL     1      47.558   2.807  16.502  0.00  0.00    +0.000 N 
ATOM     13  N   UNL     1      47.744   3.165  15.220  0.00  0.00    +0.000 NA
ATOM     14  H   UNL     1      47.588   1.820  16.734  0.00  0.00    +0.000 HD
ENDBRANCH   8   9
ENDBRANCH   6   8
ENDBRANCH   1   2
BRANCH   1  16
ATOM     15  C   UNL     1      43.431   2.468  12.202  0.00  0.00    +0.000 C 
ATOM     16  C   UNL     1      43.229   3.852  12.803  0.00  0.00    +0.000 C 
ENDBRANCH   1  16
BRANCH   1  17
ATOM     17  O   UNL     1      42.411   5.953  12.071  0.00  0.00    +0.000 OA
ATOM     18  H   UNL     1      42.562   6.412  12.918  0.00  0.00    +0.000 HD
ENDBRANCH   1  17
BRANCH   1  19
ATOM     19  C   UNL     1      43.578   4.687  10.394  0.00  0.00    +0.000 C 
BRANCH  19  20
ATOM     20  O   UNL     1      44.815   5.175   9.828  0.00  0.00    +0.000 OA
BRANCH  20  21
ATOM     21  C   UNL     1      45.433   4.255   9.009  0.00  0.00    +0.000 A 
ATOM     22  C   UNL     1      45.222   2.913   9.294  0.00  0.00    +0.000 A 
ATOM     23  C   UNL     1      45.842   1.955   8.487  0.00  0.00    +0.000 A 
ATOM     24  C   UNL     1      46.646   2.377   7.427  0.00  0.00    +0.000 A 
ATOM     25  C   UNL     1      46.800   3.743   7.229  0.00  0.00    +0.000 A 
ATOM     26  N   UNL     1      46.207   4.691   7.995  0.00  0.00    +0.000 NA
BRANCH  24  27
ATOM     27  C   UNL     1      47.367   1.453   6.525  0.00  0.00    +0.000 C 
ATOM     28  N   UNL     1      48.456   1.939   5.857  0.00  0.00    +0.000 N 
ATOM     29  O   UNL     1      47.019   0.286   6.401  0.00  0.00    +0.000 OA
ATOM     30  H   UNL     1      48.904   2.812   6.095  0.00  0.00    +0.000 HD
ATOM     31  H   UNL     1      48.990   1.268   5.320  0.00  0.00    +0.000 HD
ENDBRANCH  24  27
ENDBRANCH  20  21
ENDBRANCH  19  20
ENDBRANCH   1  19
TORSDOF 9
ENDMDL
MODEL 2
REMARK VINA RESULT:    -7.308      1.894      8.164
REMARK INTER + INTRA:         -12.037
REMARK INTER:                 -11.197
REMARK INTRA:                  -0.841
REMARK UNBOUND:                -1.098
REMARK  Name = 
REMARK  10 active torsions:
REMARK  status: ('A' for Active; 'I' for Inactive)
REMARK    1  A    between atoms: C_1  and  C_2
REMARK    2  A    between atoms: C_2  and  C_3
REMARK    3  A    between atoms: C_3  and  O_4
REMARK    4  A    between atoms: C_3  and  C_5
REMARK    5  A    between atoms: C_3  and  C_16
REMARK    6  A    between atoms: C_5  and  O_6
REMARK    7  A    between atoms: O_6  and  C_7
REMARK    8  A    between atoms: C_10  and  C_11
REMARK    9  A    between atoms: C_20  and  O_21
REMARK   10  A    between atoms: O_21  and  C_22
REMARK                            x       y       z     vdW  Elec       q    Type
REMARK                         _______ _______ _______ _____ _____    ______ ____
ROOT
ATOM      1  C   UNL     1      45.819   6.002  12.622  0.00  0.00    +0.000 C 
ENDROOT
BRANCH   1   2
ATOM      2  C   UNL     1      45.155   4.925  11.755  0.00  0.00    +0.000 A 
ATOM      3  C   UNL     1      44.345   3.944  12.360  0.00  0.00    +0.000 A 
ATOM      4  C   UNL     1      43.753   2.930  11.611  0.00  0.00    +0.000 A 
ATOM      5  C   UNL     1      43.932   2.889  10.232  0.00  0.00    +0.000 A 
ATOM      6  C   UNL     1      44.664   3.889   9.596  0.00  0.00    +0.000 A 
ATOM      7  C   UNL     1      45.301   4.880  10.355  0.00  0.00    +0.000 A 
BRANCH   6   8
ATOM      8  O   UNL     1      44.846   3.929   8.232  0.00  0.00    +0.000 OA
BRANCH   8   9
ATOM      9  C   UNL     1      45.918   3.330   7.667  0.00  0.00    +0.000 A 
ATOM     10  C   UNL     1      46.394   2.009   7.788  0.00  0.00    +0.000 A 
ATOM     11  C   UNL     1      47.588   2.017   7.108  0.00  0.00    +0.000 A 
ATOM     12  N   UNL     1      47.708   3.268   6.573  0.00  0.00    +0.000 N 
ATOM     13  N   UNL     1      46.688   4.087   6.884  0.00  0.00    +0.000 NA
ATOM     14  H   UNL     1      48.463   3.636   6.004  0.00  0.00    +0.000 HD
ENDBRANCH   8   9
ENDBRANCH   6   8
ENDBRANCH   1   2
BRANCH   1  16
ATOM     15  C   UNL     1      47.368   8.010  11.974  0.00  0.00    +0.000 C 
ATOM     16  C   UNL     1      46.025   7.310  11.823  0.00  0.00    +0.000 C 
ENDBRANCH   1  16
BRANCH   1  17
ATOM     17  O   UNL     1      44.883   6.360  13.671  0.00  0.00    +0.000 OA
ATOM     18  H   UNL     1      45.283   6.041  14.501  0.00  0.00    +0.000 HD
ENDBRANCH   1  17
BRANCH   1  19
ATOM     19  C   UNL     1      47.115   5.534  13.332  0.00  0.00    +0.000 C 
BRANCH  19  20
ATOM     20  O   UNL     1      46.811   4.351  14.104  0.00  0.00    +0.000 OA
BRANCH  20  21
ATOM     21  C   UNL     1      47.261   4.425  15.405  0.00  0.00    +0.000 A 
ATOM     22  C   UNL     1      48.121   5.469  15.716  0.00  0.00    +0.000 A 
ATOM     23  C   UNL     1      48.603   5.566  17.025  0.00  0.00    +0.000 A 
ATOM     24  C   UNL     1      48.205   4.617  17.968  0.00  0.00    +0.000 A 
ATOM     25  C   UNL     1      47.348   3.606  17.554  0.00  0.00    +0.000 A 
ATOM     26  N   UNL     1      46.864   3.492  16.293  0.00  0.00    +0.000 NA
BRANCH  24  27
ATOM     27  C   UNL     1      48.670   4.611  19.372  0.00  0.00    +0.000 C 
ATOM     28  N   UNL     1      48.476   3.469  20.098  0.00  0.00    +0.000 N 
ATOM     29  O   UNL     1      49.233   5.582  19.860  0.00  0.00    +0.000 OA
ATOM     30  H   UNL     1      48.225   2.586  19.681  0.00  0.00    +0.000 HD
ATOM     31  H   UNL     1      48.885   3.451  21.024  0.00  0.00    +0.000 HD
ENDBRANCH  24  27
ENDBRANCH  20  21
ENDBRANCH  19  20
ENDBRANCH   1  19
TORSDOF 9
ENDMDL
MODEL 3
REMARK VINA RESULT:    -7.080      2.232      2.456
REMARK INTER + INTRA:         -11.697
REMARK INTER:                 -10.576
REMARK INTRA:                  -1.121
REMARK UNBOUND:                -1.098
REMARK  Name = 
REMARK  10 active torsions:
REMARK  status: ('A' for Active; 'I' for Inactive)
REMARK    1  A    between atoms: C_1  and  C_2
REMARK    2  A    between atoms: C_2  and  C_3
REMARK    3  A    between atoms: C_3  and  O_4
REMARK    4  A    between atoms: C_3  and  C_5
REMARK    5  A    between atoms: C_3  and  C_16
REMARK    6  A    between atoms: C_5  and  O_6
REMARK    7  A    between atoms: O_6  and  C_7
REMARK    8  A    between atoms: C_10  and  C_11
REMARK    9  A    between atoms: C_20  and  O_21
REMARK   10  A    between atoms: O_21  and  C_22
REMARK                            x       y       z     vdW  Elec       q    Type
REMARK                         _______ _______ _______ _____ _____    ______ ____
ROOT
ATOM      1  C   UNL     1      44.013   5.367  11.529  0.00  0.00    +0.000 C 
ENDROOT
BRANCH   1   2
ATOM      2  C   UNL     1      45.056   6.462  11.784  0.00  0.00    +0.000 A 
ATOM      3  C   UNL     1      44.665   7.816  11.770  0.00  0.00    +0.000 A 
ATOM      4  C   UNL     1      45.589   8.839  11.963  0.00  0.00    +0.000 A 
ATOM      5  C   UNL     1      46.924   8.533  12.205  0.00  0.00    +0.000 A 
ATOM      6  C   UNL     1      47.328   7.203  12.301  0.00  0.00    +0.000 A 
ATOM      7  C   UNL     1      46.408   6.175  12.057  0.00  0.00    +0.000 A 
BRANCH   6   8
ATOM      8  O   UNL     1      48.625   6.833  12.578  0.00  0.00    +0.000 OA
BRANCH   8   9
ATOM      9  C   UNL     1      49.137   7.012  13.816  0.00  0.00    +0.000 A 
ATOM     10  C   UNL     1      48.697   6.527  15.064  0.00  0.00    +0.000 A 
ATOM     11  C   UNL     1      49.518   7.146  15.976  0.00  0.00    +0.000 A 
ATOM     12  N   UNL     1      50.415   7.869  15.243  0.00  0.00    +0.000 N 
ATOM     13  N   UNL     1      50.216   7.788  13.916  0.00  0.00    +0.000 NA
ATOM     14  H   UNL     1      51.174   8.452  15.580  0.00  0.00    +0.000 HD
ENDBRANCH   8   9
ENDBRANCH   6   8
ENDBRANCH   1   2
BRANCH   1  16
ATOM     15  C   UNL     1      43.043   4.222  13.674  0.00  0.00    +0.000 C 
ATOM     16  C   UNL     1      42.946   5.343  12.650  0.00  0.00    +0.000 C 
ENDBRANCH   1  16
BRANCH   1  17
ATOM     17  O   UNL     1      43.276   5.732  10.334  0.00  0.00    +0.000 OA
ATOM     18  H   UNL     1      43.945   5.835   9.633  0.00  0.00    +0.000 HD
ENDBRANCH   1  17
BRANCH   1  19
ATOM     19  C   UNL     1      44.617   3.965  11.261  0.00  0.00    +0.000 C 
BRANCH  19  20
ATOM     20  O   UNL     1      43.986   3.415  10.083  0.00  0.00    +0.000 OA
BRANCH  20  21
ATOM     21  C   UNL     1      44.888   3.075   9.097  0.00  0.00    +0.000 A 
ATOM     22  C   UNL     1      45.266   4.076   8.215  0.00  0.00    +0.000 A 
ATOM     23  C   UNL     1      46.172   3.761   7.198  0.00  0.00    +0.000 A 
ATOM     24  C   UNL     1      46.664   2.457   7.106  0.00  0.00    +0.000 A 
ATOM     25  C   UNL     1      46.217   1.526   8.034  0.00  0.00    +0.000 A 
ATOM     26  N   UNL     1      45.342   1.808   9.031  0.00  0.00    +0.000 NA
BRANCH  24  27
ATOM     27  C   UNL     1      47.607   2.009   6.060  0.00  0.00    +0.000 C 
ATOM     28  N   UNL     1      48.918   2.373   6.191  0.00  0.00    +0.000 N 
ATOM     29  O   UNL     1      47.235   1.314   5.123  0.00  0.00    +0.000 OA
ATOM     30  H   UNL     1      49.304   2.748   7.045  0.00  0.00    +0.000 HD
ATOM     31  H   UNL     1      49.564   1.978   5.518  0.00  0.00    +0.000 HD
ENDBRANCH  24  27
ENDBRANCH  20  21
ENDBRANCH  19  20
ENDBRANCH   1  19
TORSDOF 9
ENDMDL
MODEL 4
REMARK VINA RESULT:    -6.964      2.619      7.890
REMARK INTER + INTRA:         -11.523
REMARK INTER:                 -10.507
REMARK INTRA:                  -1.017
REMARK UNBOUND:                -1.098
REMARK  Name = 
REMARK  10 active torsions:
REMARK  status: ('A' for Active; 'I' for Inactive)
REMARK    1  A    between atoms: C_1  and  C_2
REMARK    2  A    between atoms: C_2  and  C_3
REMARK    3  A    between atoms: C_3  and  O_4
REMARK    4  A    between atoms: C_3  and  C_5
REMARK    5  A    between atoms: C_3  and  C_16
REMARK    6  A    between atoms: C_5  and  O_6
REMARK    7  A    between atoms: O_6  and  C_7
REMARK    8  A    between atoms: C_10  and  C_11
REMARK    9  A    between atoms: C_20  and  O_21
REMARK   10  A    between atoms: O_21  and  C_22
REMARK                            x       y       z     vdW  Elec       q    Type
REMARK                         _______ _______ _______ _____ _____    ______ ____
ROOT
ATOM      1  C   UNL     1      46.581   4.848  13.515  0.00  0.00    +0.000 C 
ENDROOT
BRANCH   1   2
ATOM      2  C   UNL     1      45.288   4.670  12.710  0.00  0.00    +0.000 A 
ATOM      3  C   UNL     1      44.162   5.459  13.015  0.00  0.00    +0.000 A 
ATOM      4  C   UNL     1      42.960   5.302  12.329  0.00  0.00    +0.000 A 
ATOM      5  C   UNL     1      42.863   4.372  11.300  0.00  0.00    +0.000 A 
ATOM      6  C   UNL     1      43.981   3.630  10.924  0.00  0.00    +0.000 A 
ATOM      7  C   UNL     1      45.175   3.752  11.646  0.00  0.00    +0.000 A 
BRANCH   6   8
ATOM      8  O   UNL     1      43.963   2.723   9.889  0.00  0.00    +0.000 OA
BRANCH   8   9
ATOM      9  C   UNL     1      44.944   2.726   8.960  0.00  0.00    +0.000 A 
ATOM     10  C   UNL     1      45.335   3.729   8.049  0.00  0.00    +0.000 A 
ATOM     11  C   UNL     1      46.285   3.120   7.264  0.00  0.00    +0.000 A 
ATOM     12  N   UNL     1      46.457   1.869   7.784  0.00  0.00    +0.000 N 
ATOM     13  N   UNL     1      45.662   1.609   8.837  0.00  0.00    +0.000 NA
ATOM     14  H   UNL     1      47.083   1.138   7.464  0.00  0.00    +0.000 HD
ENDBRANCH   8   9
ENDBRANCH   6   8
ENDBRANCH   1   2
BRANCH   1  16
ATOM     15  C   UNL     1      47.263   7.178  12.535  0.00  0.00    +0.000 C 
ATOM     16  C   UNL     1      47.606   5.709  12.738  0.00  0.00    +0.000 C 
ENDBRANCH   1  16
BRANCH   1  17
ATOM     17  O   UNL     1      46.262   5.635  14.690  0.00  0.00    +0.000 OA
ATOM     18  H   UNL     1      46.441   5.055  15.453  0.00  0.00    +0.000 HD
ENDBRANCH   1  17
BRANCH   1  19
ATOM     19  C   UNL     1      47.196   3.521  14.029  0.00  0.00    +0.000 C 
BRANCH  19  20
ATOM     20  O   UNL     1      47.042   3.474  15.466  0.00  0.00    +0.000 OA
BRANCH  20  21
ATOM     21  C   UNL     1      48.236   3.286  16.129  0.00  0.00    +0.000 A 
ATOM     22  C   UNL     1      48.700   4.340  16.903  0.00  0.00    +0.000 A 
ATOM     23  C   UNL     1      49.913   4.184  17.582  0.00  0.00    +0.000 A 
ATOM     24  C   UNL     1      50.610   2.981  17.460  0.00  0.00    +0.000 A 
ATOM     25  C   UNL     1      50.064   1.990  16.655  0.00  0.00    +0.000 A 
ATOM     26  N   UNL     1      48.889   2.115  15.990  0.00  0.00    +0.000 NA
BRANCH  24  27
ATOM     27  C   UNL     1      51.909   2.716  18.114  0.00  0.00    +0.000 C 
ATOM     28  N   UNL     1      52.260   3.510  19.170  0.00  0.00    +0.000 N 
ATOM     29  O   UNL     1      52.634   1.803  17.743  0.00  0.00    +0.000 OA
ATOM     30  H   UNL     1      51.608   4.118  19.643  0.00  0.00    +0.000 HD
ATOM     31  H   UNL     1      53.106   3.254  19.663  0.00  0.00    +0.000 HD
ENDBRANCH  24  27
ENDBRANCH  20  21
ENDBRANCH  19  20
ENDBRANCH   1  19
TORSDOF 9
ENDMDL
MODEL 5
REMARK VINA RESULT:    -6.762      2.810      7.471
REMARK INTER + INTRA:         -11.221
REMARK INTER:                 -10.121
REMARK INTRA:                  -1.100
REMARK UNBOUND:                -1.098
REMARK  Name = 
REMARK  10 active torsions:
REMARK  status: ('A' for Active; 'I' for Inactive)
REMARK    1  A    between atoms: C_1  and  C_2
REMARK    2  A    between atoms: C_2  and  C_3
REMARK    3  A    between atoms: C_3  and  O_4
REMARK    4  A    between atoms: C_3  and  C_5
REMARK    5  A    between atoms: C_3  and  C_16
REMARK    6  A    between atoms: C_5  and  O_6
REMARK    7  A    between atoms: O_6  and  C_7
REMARK    8  A    between atoms: C_10  and  C_11
REMARK    9  A    between atoms: C_20  and  O_21
REMARK   10  A    between atoms: O_21  and  C_22
REMARK                            x       y       z     vdW  Elec       q    Type
REMARK                         _______ _______ _______ _____ _____    ______ ____
ROOT
ATOM      1  C   UNL     1      45.034   6.269  12.436  0.00  0.00    +0.000 C 
ENDROOT
BRANCH   1   2
ATOM      2  C   UNL     1      44.716   5.066  11.539  0.00  0.00    +0.000 A 
ATOM      3  C   UNL     1      44.107   3.924  12.094  0.00  0.00    +0.000 A 
ATOM      4  C   UNL     1      43.834   2.799  11.319  0.00  0.00    +0.000 A 
ATOM      5  C   UNL     1      44.137   2.800   9.962  0.00  0.00    +0.000 A 
ATOM      6  C   UNL     1      44.670   3.943   9.368  0.00  0.00    +0.000 A 
ATOM      7  C   UNL     1      44.990   5.055  10.157  0.00  0.00    +0.000 A 
BRANCH   6   8
ATOM      8  O   UNL     1      44.955   4.023   8.023  0.00  0.00    +0.000 OA
BRANCH   8   9
ATOM      9  C   UNL     1      46.012   3.356   7.508  0.00  0.00    +0.000 A 
ATOM     10  C   UNL     1      46.432   2.025   7.700  0.00  0.00    +0.000 A 
ATOM     11  C   UNL     1      47.638   1.953   7.044  0.00  0.00    +0.000 A 
ATOM     12  N   UNL     1      47.817   3.172   6.454  0.00  0.00    +0.000 N 
ATOM     13  N   UNL     1      46.825   4.044   6.705  0.00  0.00    +0.000 NA
ATOM     14  H   UNL     1      48.596   3.483   5.883  0.00  0.00    +0.000 HD
ENDBRANCH   8   9
ENDBRANCH   6   8
ENDBRANCH   1   2
BRANCH   1  16
ATOM     15  C   UNL     1      45.484   8.847  12.353  0.00  0.00    +0.000 C 
ATOM     16  C   UNL     1      45.084   7.578  11.613  0.00  0.00    +0.000 C 
ENDBRANCH   1  16
BRANCH   1  17
ATOM     17  O   UNL     1      43.914   6.451  13.339  0.00  0.00    +0.000 OA
ATOM     18  H   UNL     1      44.129   7.238  13.871  0.00  0.00    +0.000 HD
ENDBRANCH   1  17
BRANCH   1  19
ATOM     19  C   UNL     1      46.289   6.083  13.326  0.00  0.00    +0.000 C 
BRANCH  19  20
ATOM     20  O   UNL     1      47.435   5.893  12.464  0.00  0.00    +0.000 OA
BRANCH  20  21
ATOM     21  C   UNL     1      48.495   6.711  12.790  0.00  0.00    +0.000 A 
ATOM     22  C   UNL     1      48.998   7.524  11.784  0.00  0.00    +0.000 A 
ATOM     23  C   UNL     1      50.079   8.358  12.080  0.00  0.00    +0.000 A 
ATOM     24  C   UNL     1      50.613   8.347  13.370  0.00  0.00    +0.000 A 
ATOM     25  C   UNL     1      50.043   7.492  14.303  0.00  0.00    +0.000 A 
ATOM     26  N   UNL     1      48.992   6.676  14.042  0.00  0.00    +0.000 NA
BRANCH  24  27
ATOM     27  C   UNL     1      51.769   9.171  13.786  0.00  0.00    +0.000 C 
ATOM     28  N   UNL     1      51.919   9.423  15.121  0.00  0.00    +0.000 N 
ATOM     29  O   UNL     1      52.578   9.590  12.969  0.00  0.00    +0.000 OA
ATOM     30  H   UNL     1      51.413   8.922  15.837  0.00  0.00    +0.000 HD
ATOM     31  H   UNL     1      52.765   9.906  15.395  0.00  0.00    +0.000 HD
ENDBRANCH  24  27
ENDBRANCH  20  21
ENDBRANCH  19  20
ENDBRANCH   1  19
TORSDOF 9
ENDMDL
MODEL 6
REMARK VINA RESULT:    -6.638      3.102      7.169
REMARK INTER + INTRA:         -11.034
REMARK INTER:                  -9.839
REMARK INTRA:                  -1.196
REMARK UNBOUND:                -1.098
REMARK  Name = 
REMARK  10 active torsions:
REMARK  status: ('A' for Active; 'I' for Inactive)
REMARK    1  A    between atoms: C_1  and  C_2
REMARK    2  A    between atoms: C_2  and  C_3
REMARK    3  A    between atoms: C_3  and  O_4
REMARK    4  A    between atoms: C_3  and  C_5
REMARK    5  A    between atoms: C_3  and  C_16
REMARK    6  A    between atoms: C_5  and  O_6
REMARK    7  A    between atoms: O_6  and  C_7
REMARK    8  A    between atoms: C_10  and  C_11
REMARK    9  A    between atoms: C_20  and  O_21
REMARK   10  A    between atoms: O_21  and  C_22
REMARK                            x       y       z     vdW  Elec       q    Type
REMARK                         _______ _______ _______ _____ _____    ______ ____
ROOT
ATOM      1  C   UNL     1      46.756   4.588  13.865  0.00  0.00    +0.000 C 
ENDROOT
BRANCH   1   2
ATOM      2  C   UNL     1      45.477   4.447  13.032  0.00  0.00    +0.000 A 
ATOM      3  C   UNL     1      44.364   5.262  13.317  0.00  0.00    +0.000 A 
ATOM      4  C   UNL     1      43.174   5.139  12.604  0.00  0.00    +0.000 A 
ATOM      5  C   UNL     1      43.077   4.217  11.568  0.00  0.00    +0.000 A 
ATOM      6  C   UNL     1      44.184   3.450  11.212  0.00  0.00    +0.000 A 
ATOM      7  C   UNL     1      45.365   3.538  11.961  0.00  0.00    +0.000 A 
BRANCH   6   8
ATOM      8  O   UNL     1      44.166   2.549  10.171  0.00  0.00    +0.000 OA
BRANCH   8   9
ATOM      9  C   UNL     1      45.010   2.695   9.126  0.00  0.00    +0.000 A 
ATOM     10  C   UNL     1      45.223   3.796   8.272  0.00  0.00    +0.000 A 
ATOM     11  C   UNL     1      46.087   3.319   7.314  0.00  0.00    +0.000 A 
ATOM     12  N   UNL     1      46.390   2.040   7.686  0.00  0.00    +0.000 N 
ATOM     13  N   UNL     1      45.760   1.639   8.804  0.00  0.00    +0.000 NA
ATOM     14  H   UNL     1      47.002   1.380   7.218  0.00  0.00    +0.000 HD
ENDBRANCH   8   9
ENDBRANCH   6   8
ENDBRANCH   1   2
BRANCH   1  16
ATOM     15  C   UNL     1      47.693   4.243  16.285  0.00  0.00    +0.000 C 
ATOM     16  C   UNL     1      46.490   4.261  15.354  0.00  0.00    +0.000 C 
ENDBRANCH   1  16
BRANCH   1  17
ATOM     17  O   UNL     1      47.681   3.560  13.428  0.00  0.00    +0.000 OA
ATOM     18  H   UNL     1      48.361   4.022  12.904  0.00  0.00    +0.000 HD
ENDBRANCH   1  17
BRANCH   1  19
ATOM     19  C   UNL     1      47.487   5.943  13.681  0.00  0.00    +0.000 C 
BRANCH  19  20
ATOM     20  O   UNL     1      47.417   6.312  12.285  0.00  0.00    +0.000 OA
BRANCH  20  21
ATOM     21  C   UNL     1      47.239   7.666  12.095  0.00  0.00    +0.000 A 
ATOM     22  C   UNL     1      48.382   8.435  11.926  0.00  0.00    +0.000 A 
ATOM     23  C   UNL     1      48.235   9.813  11.740  0.00  0.00    +0.000 A 
ATOM     24  C   UNL     1      46.953  10.365  11.729  0.00  0.00    +0.000 A 
ATOM     25  C   UNL     1      45.874   9.511  11.915  0.00  0.00    +0.000 A 
ATOM     26  N   UNL     1      45.990   8.172  12.093  0.00  0.00    +0.000 NA
BRANCH  24  27
ATOM     27  C   UNL     1      46.684  11.809  11.563  0.00  0.00    +0.000 C 
ATOM     28  N   UNL     1      45.688  12.359  12.322  0.00  0.00    +0.000 N 
ATOM     29  O   UNL     1      47.345  12.496  10.796  0.00  0.00    +0.000 OA
ATOM     30  H   UNL     1      45.275  11.890  13.114  0.00  0.00    +0.000 HD
ATOM     31  H   UNL     1      45.582  13.364  12.265  0.00  0.00    +0.000 HD
ENDBRANCH  24  27
ENDBRANCH  20  21
ENDBRANCH  19  20
ENDBRANCH   1  19
TORSDOF 9
ENDMDL
MODEL 7
REMARK VINA RESULT:    -6.565      3.046      5.219
REMARK INTER + INTRA:         -10.926
REMARK INTER:                  -9.678
REMARK INTRA:                  -1.248
REMARK UNBOUND:                -1.098
REMARK  Name = 
REMARK  10 active torsions:
REMARK  status: ('A' for Active; 'I' for Inactive)
REMARK    1  A    between atoms: C_1  and  C_2
REMARK    2  A    between atoms: C_2  and  C_3
REMARK    3  A    between atoms: C_3  and  O_4
REMARK    4  A    between atoms: C_3  and  C_5
REMARK    5  A    between atoms: C_3  and  C_16
REMARK    6  A    between atoms: C_5  and  O_6
REMARK    7  A    between atoms: O_6  and  C_7
REMARK    8  A    between atoms: C_10  and  C_11
REMARK    9  A    between atoms: C_20  and  O_21
REMARK   10  A    between atoms: O_21  and  C_22
REMARK                            x       y       z     vdW  Elec       q    Type
REMARK                         _______ _______ _______ _____ _____    ______ ____
ROOT
ATOM      1  C   UNL     1      48.953   7.400  13.442  0.00  0.00    +0.000 C 
ENDROOT
BRANCH   1   2
ATOM      2  C   UNL     1      48.791   7.137  14.945  0.00  0.00    +0.000 A 
ATOM      3  C   UNL     1      48.941   8.198  15.859  0.00  0.00    +0.000 A 
ATOM      4  C   UNL     1      48.835   7.991  17.232  0.00  0.00    +0.000 A 
ATOM      5  C   UNL     1      48.546   6.723  17.724  0.00  0.00    +0.000 A 
ATOM      6  C   UNL     1      48.317   5.669  16.842  0.00  0.00    +0.000 A 
ATOM      7  C   UNL     1      48.473   5.866  15.463  0.00  0.00    +0.000 A 
BRANCH   6   8
ATOM      8  O   UNL     1      47.988   4.400  17.262  0.00  0.00    +0.000 OA
BRANCH   8   9
ATOM      9  C   UNL     1      48.867   3.384  17.119  0.00  0.00    +0.000 A 
ATOM     10  C   UNL     1      50.128   3.178  17.714  0.00  0.00    +0.000 A 
ATOM     11  C   UNL     1      50.618   2.057  17.087  0.00  0.00    +0.000 A 
ATOM     12  N   UNL     1      49.626   1.631  16.250  0.00  0.00    +0.000 N 
ATOM     13  N   UNL     1      48.534   2.415  16.265  0.00  0.00    +0.000 NA
ATOM     14  H   UNL     1      49.632   0.828  15.630  0.00  0.00    +0.000 HD
ENDBRANCH   8   9
ENDBRANCH   6   8
ENDBRANCH   1   2
BRANCH   1  16
ATOM     15  C   UNL     1      50.231   9.052  11.864  0.00  0.00    +0.000 C 
ATOM     16  C   UNL     1      50.212   8.253  13.159  0.00  0.00    +0.000 C 
ENDBRANCH   1  16
BRANCH   1  17
ATOM     17  O   UNL     1      49.225   6.127  12.801  0.00  0.00    +0.000 OA
ATOM     18  H   UNL     1      50.194   6.029  12.812  0.00  0.00    +0.000 HD
ENDBRANCH   1  17
BRANCH   1  19
ATOM     19  C   UNL     1      47.686   7.973  12.758  0.00  0.00    +0.000 C 
BRANCH  19  20
ATOM     20  O   UNL     1      46.523   7.443  13.434  0.00  0.00    +0.000 OA
BRANCH  20  21
ATOM     21  C   UNL     1      45.948   6.384  12.765  0.00  0.00    +0.000 A 
ATOM     22  C   UNL     1      45.931   6.447  11.379  0.00  0.00    +0.000 A 
ATOM     23  C   UNL     1      45.346   5.393  10.671  0.00  0.00    +0.000 A 
ATOM     24  C   UNL     1      44.803   4.319  11.378  0.00  0.00    +0.000 A 
ATOM     25  C   UNL     1      44.863   4.355  12.765  0.00  0.00    +0.000 A 
ATOM     26  N   UNL     1      45.428   5.363  13.474  0.00  0.00    +0.000 NA
BRANCH  24  27
ATOM     27  C   UNL     1      44.141   3.164  10.734  0.00  0.00    +0.000 C 
ATOM     28  N   UNL     1      43.436   2.310  11.536  0.00  0.00    +0.000 N 
ATOM     29  O   UNL     1      44.198   2.992   9.524  0.00  0.00    +0.000 OA
ATOM     30  H   UNL     1      43.180   2.531  12.487  0.00  0.00    +0.000 HD
ATOM     31  H   UNL     1      42.913   1.582  11.066  0.00  0.00    +0.000 HD
ENDBRANCH  24  27
ENDBRANCH  20  21
ENDBRANCH  19  20
ENDBRANCH   1  19
TORSDOF 9
ENDMDL
MODEL 8
REMARK VINA RESULT:    -6.362      2.464      8.482
REMARK INTER + INTRA:         -10.621
REMARK INTER:                  -9.522
REMARK INTRA:                  -1.099
REMARK UNBOUND:                -1.098
REMARK  Name = 
REMARK  10 active torsions:
REMARK  status: ('A' for Active; 'I' for Inactive)
REMARK    1  A    between atoms: C_1  and  C_2
REMARK    2  A    between atoms: C_2  and  C_3
REMARK    3  A    between atoms: C_3  and  O_4
REMARK    4  A    between atoms: C_3  and  C_5
REMARK    5  A    between atoms: C_3  and  C_16
REMARK    6  A    between atoms: C_5  and  O_6
REMARK    7  A    between atoms: O_6  and  C_7
REMARK    8  A    between atoms: C_10  and  C_11
REMARK    9  A    between atoms: C_20  and  O_21
REMARK   10  A    between atoms: O_21  and  C_22
REMARK                            x       y       z     vdW  Elec       q    Type
REMARK                         _______ _______ _______ _____ _____    ______ ____
ROOT
ATOM      1  C   UNL     1      47.763   7.588  13.205  0.00  0.00    +0.000 C 
ENDROOT
BRANCH   1   2
ATOM      2  C   UNL     1      46.920   6.346  12.891  0.00  0.00    +0.000 A 
ATOM      3  C   UNL     1      46.827   5.308  13.839  0.00  0.00    +0.000 A 
ATOM      4  C   UNL     1      46.100   4.150  13.576  0.00  0.00    +0.000 A 
ATOM      5  C   UNL     1      45.421   4.013  12.370  0.00  0.00    +0.000 A 
ATOM      6  C   UNL     1      45.431   5.055  11.444  0.00  0.00    +0.000 A 
ATOM      7  C   UNL     1      46.203   6.198  11.687  0.00  0.00    +0.000 A 
BRANCH   6   8
ATOM      8  O   UNL     1      44.748   5.000  10.250  0.00  0.00    +0.000 OA
BRANCH   8   9
ATOM      9  C   UNL     1      45.194   4.216   9.243  0.00  0.00    +0.000 A 
ATOM     10  C   UNL     1      45.062   2.827   9.042  0.00  0.00    +0.000 A 
ATOM     11  C   UNL     1      45.834   2.572   7.933  0.00  0.00    +0.000 A 
ATOM     12  N   UNL     1      46.293   3.786   7.508  0.00  0.00    +0.000 N 
ATOM     13  N   UNL     1      45.899   4.812   8.282  0.00  0.00    +0.000 NA
ATOM     14  H   UNL     1      46.891   3.986   6.713  0.00  0.00    +0.000 HD
ENDBRANCH   8   9
ENDBRANCH   6   8
ENDBRANCH   1   2
BRANCH   1  16
ATOM     15  C   UNL     1      47.872   9.936  12.053  0.00  0.00    +0.000 C 
ATOM     16  C   UNL     1      48.015   8.426  11.929  0.00  0.00    +0.000 C 
ENDBRANCH   1  16
BRANCH   1  17
ATOM     17  O   UNL     1      46.969   8.453  14.057  0.00  0.00    +0.000 OA
ATOM     18  H   UNL     1      47.093   9.354  13.706  0.00  0.00    +0.000 HD
ENDBRANCH   1  17
BRANCH   1  19
ATOM     19  C   UNL     1      49.070   7.288  13.982  0.00  0.00    +0.000 C 
BRANCH  19  20
ATOM     20  O   UNL     1      49.018   7.983  15.248  0.00  0.00    +0.000 OA
BRANCH  20  21
ATOM     21  C   UNL     1      49.028   7.130  16.331  0.00  0.00    +0.000 A 
ATOM     22  C   UNL     1      48.474   7.603  17.512  0.00  0.00    +0.000 A 
ATOM     23  C   UNL     1      48.477   6.766  18.631  0.00  0.00    +0.000 A 
ATOM     24  C   UNL     1      49.032   5.489  18.524  0.00  0.00    +0.000 A 
ATOM     25  C   UNL     1      49.568   5.114  17.299  0.00  0.00    +0.000 A 
ATOM     26  N   UNL     1      49.574   5.905  16.199  0.00  0.00    +0.000 NA
BRANCH  24  27
ATOM     27  C   UNL     1      49.109   4.531  19.647  0.00  0.00    +0.000 C 
ATOM     28  N   UNL     1      48.400   3.368  19.536  0.00  0.00    +0.000 N 
ATOM     29  O   UNL     1      49.803   4.757  20.629  0.00  0.00    +0.000 OA
ATOM     30  H   UNL     1      48.001   3.045  18.667  0.00  0.00    +0.000 HD
ATOM     31  H   UNL     1      48.539   2.684  20.270  0.00  0.00    +0.000 HD
ENDBRANCH  24  27
ENDBRANCH  20  21
ENDBRANCH  19  20
ENDBRANCH   1  19
TORSDOF 9
ENDMDL
MODEL 9
REMARK VINA RESULT:    -6.319      3.878      6.641
REMARK INTER + INTRA:         -10.558
REMARK INTER:                  -9.560
REMARK INTRA:                  -0.998
REMARK UNBOUND:                -1.098
REMARK  Name = 
REMARK  10 active torsions:
REMARK  status: ('A' for Active; 'I' for Inactive)
REMARK    1  A    between atoms: C_1  and  C_2
REMARK    2  A    between atoms: C_2  and  C_3
REMARK    3  A    between atoms: C_3  and  O_4
REMARK    4  A    between atoms: C_3  and  C_5
REMARK    5  A    between atoms: C_3  and  C_16
REMARK    6  A    between atoms: C_5  and  O_6
REMARK    7  A    between atoms: O_6  and  C_7
REMARK    8  A    between atoms: C_10  and  C_11
REMARK    9  A    between atoms: C_20  and  O_21
REMARK   10  A    between atoms: O_21  and  C_22
REMARK                            x       y       z     vdW  Elec       q    Type
REMARK                         _______ _______ _______ _____ _____    ______ ____
ROOT
ATOM      1  C   UNL     1      48.301   5.428  17.078  0.00  0.00    +0.000 C 
ENDROOT
BRANCH   1   2
ATOM      2  C   UNL     1      49.823   5.292  17.207  0.00  0.00    +0.000 A 
ATOM      3  C   UNL     1      50.662   6.260  16.622  0.00  0.00    +0.000 A 
ATOM      4  C   UNL     1      52.049   6.153  16.688  0.00  0.00    +0.000 A 
ATOM      5  C   UNL     1      52.632   5.088  17.368  0.00  0.00    +0.000 A 
ATOM      6  C   UNL     1      51.829   4.156  18.022  0.00  0.00    +0.000 A 
ATOM      7  C   UNL     1      50.435   4.236  17.912  0.00  0.00    +0.000 A 
BRANCH   6   8
ATOM      8  O   UNL     1      52.343   3.103  18.744  0.00  0.00    +0.000 OA
BRANCH   8   9
ATOM      9  C   UNL     1      52.924   2.059  18.111  0.00  0.00    +0.000 A 
ATOM     10  C   UNL     1      54.269   1.849  17.744  0.00  0.00    +0.000 A 
ATOM     11  C   UNL     1      54.240   0.689  17.007  0.00  0.00    +0.000 A 
ATOM     12  N   UNL     1      52.948   0.250  17.048  0.00  0.00    +0.000 N 
ATOM     13  N   UNL     1      52.124   1.061  17.735  0.00  0.00    +0.000 NA
ATOM     14  H   UNL     1      52.554  -0.580  16.618  0.00  0.00    +0.000 HD
ENDBRANCH   8   9
ENDBRANCH   6   8
ENDBRANCH   1   2
BRANCH   1  16
ATOM     15  C   UNL     1      47.447   6.507  19.305  0.00  0.00    +0.000 C 
ATOM     16  C   UNL     1      47.609   5.257  18.452  0.00  0.00    +0.000 C 
ENDBRANCH   1  16
BRANCH   1  17
ATOM     17  O   UNL     1      48.014   6.796  16.693  0.00  0.00    +0.000 OA
ATOM     18  H   UNL     1      48.015   7.309  17.522  0.00  0.00    +0.000 HD
ENDBRANCH   1  17
BRANCH   1  19
ATOM     19  C   UNL     1      47.673   4.524  15.986  0.00  0.00    +0.000 C 
BRANCH  19  20
ATOM     20  O   UNL     1      47.916   5.132  14.697  0.00  0.00    +0.000 OA
BRANCH  20  21
ATOM     21  C   UNL     1      46.930   4.851  13.775  0.00  0.00    +0.000 A 
ATOM     22  C   UNL     1      46.377   5.927  13.095  0.00  0.00    +0.000 A 
ATOM     23  C   UNL     1      45.368   5.676  12.160  0.00  0.00    +0.000 A 
ATOM     24  C   UNL     1      44.955   4.360  11.943  0.00  0.00    +0.000 A 
ATOM     25  C   UNL     1      45.566   3.355  12.680  0.00  0.00    +0.000 A 
ATOM     26  N   UNL     1      46.549   3.572  13.589  0.00  0.00    +0.000 NA
BRANCH  24  27
ATOM     27  C   UNL     1      43.883   3.984  10.996  0.00  0.00    +0.000 C 
ATOM     28  N   UNL     1      43.769   4.714   9.846  0.00  0.00    +0.000 N 
ATOM     29  O   UNL     1      43.142   3.036  11.219  0.00  0.00    +0.000 OA
ATOM     30  H   UNL     1      44.483   5.349   9.522  0.00  0.00    +0.000 HD
ATOM     31  H   UNL     1      43.093   4.383   9.169  0.00  0.00    +0.000 HD
ENDBRANCH  24  27
ENDBRANCH  20  21
ENDBRANCH  19  20
ENDBRANCH   1  19
TORSDOF 9
ENDMDL
