MODEL 1
REMARK VINA RESULT:    -8.170      0.000      0.000
REMARK INTER + INTRA:         -10.178
REMARK INTER:                  -9.602
REMARK INTRA:                  -0.576
REMARK UNBOUND:                -0.576
REMARK  Name = 
REMARK  3 active torsions:
REMARK  status: ('A' for Active; 'I' for Inactive)
REMARK    1  A    between atoms: C_4  and  C_5
REMARK    2  A    between atoms: C_5  and  N_6
REMARK    3  A    between atoms: C_15  and  C_16
REMARK                            x       y       z     vdW  Elec       q    Type
REMARK                         _______ _______ _______ _____ _____    ______ ____
ROOT
ATOM      1  F   UNL     1      46.921   3.268  14.179  0.00  0.00    +0.000 F 
ATOM      2  C   UNL     1      46.482   4.118  13.240  0.00  0.00    +0.000 A 
ATOM      3  C   UNL     1      45.449   3.719  12.395  0.00  0.00    +0.000 A 
ATOM      4  C   UNL     1      44.949   4.603  11.432  0.00  0.00    +0.000 A 
ATOM      5  C   UNL     1      45.543   5.877  11.333  0.00  0.00    +0.000 A 
ATOM      6  C   UNL     1      46.597   6.288  12.185  0.00  0.00    +0.000 A 
ATOM      7  C   UNL     1      47.055   5.386  13.150  0.00  0.00    +0.000 A 
ENDROOT
BRANCH   6   8
ATOM      8  C   UNL     1      47.155   7.705  12.070  0.00  0.00    +0.000 C 
ATOM      9  C   UNL     1      48.656   7.785  11.709  0.00  0.00    +0.000 C 
ATOM     10  C   UNL     1      49.604   8.115  12.862  0.00  0.00    +0.000 C 
ATOM     11  N   UNL     1      49.098   9.189  13.711  0.00  0.00    +0.000 NA
ATOM     12  C   UNL     1      47.837   8.775  14.320  0.00  0.00    +0.000 C 
ATOM     13  C   UNL     1      46.752   8.594  13.264  0.00  0.00    +0.000 C 
ATOM     14  H   UNL     1      48.952  10.030  13.152  0.00  0.00    +0.000 HD
ENDBRANCH   6   8
BRANCH   4  15
ATOM     15  C   UNL     1      43.773   4.207  10.562  0.00  0.00    +0.000 C 
BRANCH  15  16
ATOM     16  N   UNL     1      44.100   4.328   9.152  0.00  0.00    +0.000 N 
ATOM     17  C   UNL     1      45.063   3.491   8.605  0.00  0.00    +0.000 A 
ATOM     18  C   UNL     1      45.250   2.150   8.965  0.00  0.00    +0.000 A 
ATOM     19  N   UNL     1      46.154   1.314   8.390  0.00  0.00    +0.000 NA
ATOM     20  C   UNL     1      46.874   1.865   7.395  0.00  0.00    +0.000 A 
ATOM     21  F   UNL     1      47.776   1.101   6.764  0.00  0.00    +0.000 F 
ATOM     22  C   UNL     1      46.702   3.183   7.012  0.00  0.00    +0.000 A 
ATOM     23  N   UNL     1      45.807   4.018   7.608  0.00  0.00    +0.000 NA
ATOM     24  H   UNL     1      44.284   5.274   8.825  0.00  0.00    +0.000 HD
ENDBRANCH  15  16
ENDBRANCH   4  15
TORSDOF 3
ENDMDL
MODEL 2
REMARK VINA RESULT:    -7.738      1.857      2.405
REMARK INTER + INTRA:          -9.671
REMARK INTER:                  -9.141
REMARK INTRA:                  -0.531
REMARK UNBOUND:                -0.576
REMARK  Name = 
REMARK  3 active torsions:
REMARK  status: ('A' for Active; 'I' for Inactive)
REMARK    1  A    between atoms: C_4  and  C_5
REMARK    2  A    between atoms: C_5  and  N_6
REMARK    3  A    between atoms: C_15  and  C_16
REMARK                            x       y       z     vdW  Elec       q    Type
REMARK                         _______ _______ _______ _____ _____    ______ ____
ROOT
ATOM      1  F   UNL     1      42.819   4.177  13.933  0.00  0.00    +0.000 F 
ATOM      2  C   UNL     1      43.601   4.338  12.857  0.00  0.00    +0.000 A 
ATOM      3  C   UNL     1      43.551   3.393  11.835  0.00  0.00    +0.000 A 
ATOM      4  C   UNL     1      44.332   3.559  10.686  0.00  0.00    +0.000 A 
ATOM      5  C   UNL     1      45.179   4.683  10.619  0.00  0.00    +0.000 A 
ATOM      6  C   UNL     1      45.240   5.646  11.656  0.00  0.00    +0.000 A 
ATOM      7  C   UNL     1      44.428   5.458  12.778  0.00  0.00    +0.000 A 
ENDROOT
BRANCH   6   8
ATOM      8  C   UNL     1      46.130   6.877  11.495  0.00  0.00    +0.000 C 
ATOM      9  C   UNL     1      47.427   6.854  12.334  0.00  0.00    +0.000 C 
ATOM     10  C   UNL     1      47.425   7.722  13.592  0.00  0.00    +0.000 C 
ATOM     11  N   UNL     1      46.844   9.041  13.359  0.00  0.00    +0.000 NA
ATOM     12  C   UNL     1      45.448   8.893  12.958  0.00  0.00    +0.000 C 
ATOM     13  C   UNL     1      45.336   8.194  11.607  0.00  0.00    +0.000 C 
ATOM     14  H   UNL     1      47.364   9.523  12.626  0.00  0.00    +0.000 HD
ENDBRANCH   6   8
BRANCH   4  15
ATOM     15  C   UNL     1      44.224   2.578   9.536  0.00  0.00    +0.000 C 
BRANCH  15  16
ATOM     16  N   UNL     1      45.494   1.917   9.289  0.00  0.00    +0.000 N 
ATOM     17  C   UNL     1      46.082   2.025   8.036  0.00  0.00    +0.000 A 
ATOM     18  C   UNL     1      46.043   3.173   7.234  0.00  0.00    +0.000 A 
ATOM     19  N   UNL     1      46.666   3.298   6.033  0.00  0.00    +0.000 NA
ATOM     20  C   UNL     1      47.373   2.219   5.651  0.00  0.00    +0.000 A 
ATOM     21  F   UNL     1      48.031   2.268   4.486  0.00  0.00    +0.000 F 
ATOM     22  C   UNL     1      47.437   1.076   6.429  0.00  0.00    +0.000 A 
ATOM     23  N   UNL     1      46.792   0.953   7.622  0.00  0.00    +0.000 NA
ATOM     24  H   UNL     1      45.544   0.942   9.576  0.00  0.00    +0.000 HD
ENDBRANCH  15  16
ENDBRANCH   4  15
TORSDOF 3
ENDMDL
MODEL 3
REMARK VINA RESULT:    -7.574      2.116      2.858
REMARK INTER + INTRA:          -9.478
REMARK INTER:                  -8.836
REMARK INTRA:                  -0.642
REMARK UNBOUND:                -0.576
REMARK  Name = 
REMARK  3 active torsions:
REMARK  status: ('A' for Active; 'I' for Inactive)
REMARK    1  A    between atoms: C_4  and  C_5
REMARK    2  A    between atoms: C_5  and  N_6
REMARK    3  A    between atoms: C_15  and  C_16
REMARK                            x       y       z     vdW  Elec       q    Type
REMARK                         _______ _______ _______ _____ _____    ______ ____
ROOT
ATOM      1  F   UNL     1      45.118   9.108  11.811  0.00  0.00    +0.000 F 
ATOM      2  C   UNL     1      45.253   7.777  11.897  0.00  0.00    +0.000 A 
ATOM      3  C   UNL     1      44.331   6.959  11.248  0.00  0.00    +0.000 A 
ATOM      4  C   UNL     1      44.473   5.568  11.294  0.00  0.00    +0.000 A 
ATOM      5  C   UNL     1      45.549   5.037  12.035  0.00  0.00    +0.000 A 
ATOM      6  C   UNL     1      46.488   5.862  12.701  0.00  0.00    +0.000 A 
ATOM      7  C   UNL     1      46.326   7.248  12.614  0.00  0.00    +0.000 A 
ENDROOT
BRANCH   6   8
ATOM      8  C   UNL     1      47.668   5.227  13.433  0.00  0.00    +0.000 C 
ATOM      9  C   UNL     1      47.291   4.081  14.400  0.00  0.00    +0.000 C 
ATOM     10  C   UNL     1      47.291   4.434  15.887  0.00  0.00    +0.000 C 
ATOM     11  N   UNL     1      48.449   5.234  16.272  0.00  0.00    +0.000 NA
ATOM     12  C   UNL     1      48.429   6.501  15.548  0.00  0.00    +0.000 C 
ATOM     13  C   UNL     1      48.611   6.280  14.050  0.00  0.00    +0.000 C 
ATOM     14  H   UNL     1      49.307   4.725  16.053  0.00  0.00    +0.000 HD
ENDBRANCH   6   8
BRANCH   4  15
ATOM     15  C   UNL     1      43.521   4.673  10.526  0.00  0.00    +0.000 C 
BRANCH  15  16
ATOM     16  N   UNL     1      43.875   4.616   9.119  0.00  0.00    +0.000 N 
ATOM     17  C   UNL     1      44.821   3.693   8.695  0.00  0.00    +0.000 A 
ATOM     18  C   UNL     1      44.961   2.399   9.214  0.00  0.00    +0.000 A 
ATOM     19  N   UNL     1      45.849   1.476   8.761  0.00  0.00    +0.000 NA
ATOM     20  C   UNL     1      46.602   1.883   7.723  0.00  0.00    +0.000 A 
ATOM     21  F   UNL     1      47.491   1.024   7.205  0.00  0.00    +0.000 F 
ATOM     22  C   UNL     1      46.477   3.151   7.183  0.00  0.00    +0.000 A 
ATOM     23  N   UNL     1      45.598   4.077   7.658  0.00  0.00    +0.000 NA
ATOM     24  H   UNL     1      44.094   5.511   8.685  0.00  0.00    +0.000 HD
ENDBRANCH  15  16
ENDBRANCH   4  15
TORSDOF 3
ENDMDL
MODEL 4
REMARK VINA RESULT:    -7.253      2.296      2.835
REMARK INTER + INTRA:          -9.101
REMARK INTER:                  -8.468
REMARK INTRA:                  -0.633
REMARK UNBOUND:                -0.576
REMARK  Name = 
REMARK  3 active torsions:
REMARK  status: ('A' for Active; 'I' for Inactive)
REMARK    1  A    between atoms: C_4  and  C_5
REMARK    2  A    between atoms: C_5  and  N_6
REMARK    3  A    between atoms: C_15  and  C_16
REMARK                            x       y       z     vdW  Elec       q    Type
REMARK                         _______ _______ _______ _____ _____    ______ ____
ROOT
ATOM      1  F   UNL     1      47.799   5.834  13.278  0.00  0.00    +0.000 F 
ATOM      2  C   UNL     1      46.709   6.284  12.640  0.00  0.00    +0.000 A 
ATOM      3  C   UNL     1      45.908   5.379  11.947  0.00  0.00    +0.000 A 
ATOM      4  C   UNL     1      44.747   5.820  11.304  0.00  0.00    +0.000 A 
ATOM      5  C   UNL     1      44.442   7.195  11.359  0.00  0.00    +0.000 A 
ATOM      6  C   UNL     1      45.253   8.122  12.057  0.00  0.00    +0.000 A 
ATOM      7  C   UNL     1      46.394   7.640  12.707  0.00  0.00    +0.000 A 
ENDROOT
BRANCH   6   8
ATOM      8  C   UNL     1      44.834   9.588  12.134  0.00  0.00    +0.000 C 
ATOM      9  C   UNL     1      43.737  10.003  11.126  0.00  0.00    +0.000 C 
ATOM     10  C   UNL     1      44.214  10.792   9.907  0.00  0.00    +0.000 C 
ATOM     11  N   UNL     1      45.180  11.829  10.256  0.00  0.00    +0.000 NA
ATOM     12  C   UNL     1      46.368  11.212  10.838  0.00  0.00    +0.000 C 
ATOM     13  C   UNL     1      46.044  10.544  12.170  0.00  0.00    +0.000 C 
ATOM     14  H   UNL     1      44.764  12.476  10.926  0.00  0.00    +0.000 HD
ENDBRANCH   6   8
BRANCH   4  15
ATOM     15  C   UNL     1      43.828   4.831  10.614  0.00  0.00    +0.000 C 
BRANCH  15  16
ATOM     16  N   UNL     1      44.106   4.761   9.191  0.00  0.00    +0.000 N 
ATOM     17  C   UNL     1      44.965   3.778   8.717  0.00  0.00    +0.000 A 
ATOM     18  C   UNL     1      45.043   2.475   9.224  0.00  0.00    +0.000 A 
ATOM     19  N   UNL     1      45.843   1.497   8.723  0.00  0.00    +0.000 NA
ATOM     20  C   UNL     1      46.569   1.860   7.650  0.00  0.00    +0.000 A 
ATOM     21  F   UNL     1      47.371   0.947   7.086  0.00  0.00    +0.000 F 
ATOM     22  C   UNL     1      46.503   3.137   7.122  0.00  0.00    +0.000 A 
ATOM     23  N   UNL     1      45.713   4.116   7.643  0.00  0.00    +0.000 NA
ATOM     24  H   UNL     1      44.363   5.641   8.750  0.00  0.00    +0.000 HD
ENDBRANCH  15  16
ENDBRANCH   4  15
TORSDOF 3
ENDMDL
MODEL 5
REMARK VINA RESULT:    -7.105      3.725      7.669
REMARK INTER + INTRA:          -8.927
REMARK INTER:                  -8.437
REMARK INTRA:                  -0.490
REMARK UNBOUND:                -0.576
REMARK  Name = 
REMARK  3 active torsions:
REMARK  status: ('A' for Active; 'I' for Inactive)
REMARK    1  A    between atoms: C_4  and  C_5
REMARK    2  A    between atoms: C_5  and  N_6
REMARK    3  A    between atoms: C_15  and  C_16
REMARK                            x       y       z     vdW  Elec       q    Type
REMARK                         _______ _______ _______ _____ _____    ______ ____
ROOT
ATOM      1  F   UNL     1      45.534   9.651  11.970  0.00  0.00    +0.000 F 
ATOM      2  C   UNL     1      45.631   8.319  12.082  0.00  0.00    +0.000 A 
ATOM      3  C   UNL     1      46.578   7.778  12.948  0.00  0.00    +0.000 A 
ATOM      4  C   UNL     1      46.672   6.392  13.108  0.00  0.00    +0.000 A 
ATOM      5  C   UNL     1      45.808   5.579  12.348  0.00  0.00    +0.000 A 
ATOM      6  C   UNL     1      44.845   6.120  11.461  0.00  0.00    +0.000 A 
ATOM      7  C   UNL     1      44.766   7.511  11.345  0.00  0.00    +0.000 A 
ENDROOT
BRANCH   6   8
ATOM      8  C   UNL     1      43.894   5.187  10.714  0.00  0.00    +0.000 C 
ATOM      9  C   UNL     1      42.968   4.344  11.620  0.00  0.00    +0.000 C 
ATOM     10  C   UNL     1      43.360   2.878  11.796  0.00  0.00    +0.000 C 
ATOM     11  N   UNL     1      43.760   2.252  10.539  0.00  0.00    +0.000 NA
ATOM     12  C   UNL     1      44.937   2.932  10.009  0.00  0.00    +0.000 C 
ATOM     13  C   UNL     1      44.612   4.370   9.621  0.00  0.00    +0.000 C 
ATOM     14  H   UNL     1      42.995   2.311   9.866  0.00  0.00    +0.000 HD
ENDBRANCH   6   8
BRANCH   4  15
ATOM     15  C   UNL     1      47.645   5.798  14.107  0.00  0.00    +0.000 C 
BRANCH  15  16
ATOM     16  N   UNL     1      46.984   4.839  14.976  0.00  0.00    +0.000 N 
ATOM     17  C   UNL     1      47.520   4.580  16.230  0.00  0.00    +0.000 A 
ATOM     18  C   UNL     1      48.129   5.539  17.050  0.00  0.00    +0.000 A 
ATOM     19  N   UNL     1      48.603   5.298  18.301  0.00  0.00    +0.000 NA
ATOM     20  C   UNL     1      48.424   4.037  18.736  0.00  0.00    +0.000 A 
ATOM     21  F   UNL     1      48.848   3.723  19.967  0.00  0.00    +0.000 F 
ATOM     22  C   UNL     1      47.815   3.074  17.952  0.00  0.00    +0.000 A 
ATOM     23  N   UNL     1      47.362   3.320  16.691  0.00  0.00    +0.000 NA
ATOM     24  H   UNL     1      46.747   3.948  14.546  0.00  0.00    +0.000 HD
ENDBRANCH  15  16
ENDBRANCH   4  15
TORSDOF 3
ENDMDL
MODEL 6
REMARK VINA RESULT:    -7.080      4.468      7.180
REMARK INTER + INTRA:          -8.897
REMARK INTER:                  -8.282
REMARK INTRA:                  -0.615
REMARK UNBOUND:                -0.576
REMARK  Name = 
REMARK  3 active torsions:
REMARK  status: ('A' for Active; 'I' for Inactive)
REMARK    1  A    between atoms: C_4  and  C_5
REMARK    2  A    between atoms: C_5  and  N_6
REMARK    3  A    between atoms: C_15  and  C_16
REMARK                            x       y       z     vdW  Elec       q    Type
REMARK                         _______ _______ _______ _____ _____    ______ ____
ROOT
ATOM      1  F   UNL     1      49.447   6.688  12.664  0.00  0.00    +0.000 F 
ATOM      2  C   UNL     1      48.126   6.913  12.676  0.00  0.00    +0.000 A 
ATOM      3  C   UNL     1      47.654   8.198  12.416  0.00  0.00    +0.000 A 
ATOM      4  C   UNL     1      46.278   8.449  12.389  0.00  0.00    +0.000 A 
ATOM      5  C   UNL     1      45.405   7.376  12.659  0.00  0.00    +0.000 A 
ATOM      6  C   UNL     1      45.876   6.068  12.929  0.00  0.00    +0.000 A 
ATOM      7  C   UNL     1      47.257   5.851  12.926  0.00  0.00    +0.000 A 
ENDROOT
BRANCH   6   8
ATOM      8  C   UNL     1      44.877   4.934  13.151  0.00  0.00    +0.000 C 
ATOM      9  C   UNL     1      45.232   3.608  12.441  0.00  0.00    +0.000 C 
ATOM     10  C   UNL     1      44.438   3.297  11.172  0.00  0.00    +0.000 C 
ATOM     11  N   UNL     1      43.013   3.575  11.322  0.00  0.00    +0.000 NA
ATOM     12  C   UNL     1      42.820   4.997  11.590  0.00  0.00    +0.000 C 
ATOM     13  C   UNL     1      43.419   5.387  12.938  0.00  0.00    +0.000 C 
ATOM     14  H   UNL     1      42.634   3.024  12.092  0.00  0.00    +0.000 HD
ENDBRANCH   6   8
BRANCH   4  15
ATOM     15  C   UNL     1      45.755   9.825  12.029  0.00  0.00    +0.000 C 
BRANCH  15  16
ATOM     16  N   UNL     1      44.376   9.989  12.454  0.00  0.00    +0.000 N 
ATOM     17  C   UNL     1      43.448  10.505  11.559  0.00  0.00    +0.000 A 
ATOM     18  C   UNL     1      43.434  10.239  10.183  0.00  0.00    +0.000 A 
ATOM     19  N   UNL     1      42.493  10.698   9.317  0.00  0.00    +0.000 NA
ATOM     20  C   UNL     1      41.520  11.434   9.883  0.00  0.00    +0.000 A 
ATOM     21  F   UNL     1      40.543  11.909   9.098  0.00  0.00    +0.000 F 
ATOM     22  C   UNL     1      41.503  11.702  11.240  0.00  0.00    +0.000 A 
ATOM     23  N   UNL     1      42.462  11.255  12.098  0.00  0.00    +0.000 NA
ATOM     24  H   UNL     1      44.245  10.459  13.347  0.00  0.00    +0.000 HD
ENDBRANCH  15  16
ENDBRANCH   4  15
TORSDOF 3
ENDMDL
MODEL 7
REMARK VINA RESULT:    -6.676      3.993      8.219
REMARK INTER + INTRA:          -8.423
REMARK INTER:                  -7.977
REMARK INTRA:                  -0.446
REMARK UNBOUND:                -0.576
REMARK  Name = 
REMARK  3 active torsions:
REMARK  status: ('A' for Active; 'I' for Inactive)
REMARK    1  A    between atoms: C_4  and  C_5
REMARK    2  A    between atoms: C_5  and  N_6
REMARK    3  A    between atoms: C_15  and  C_16
REMARK                            x       y       z     vdW  Elec       q    Type
REMARK                         _______ _______ _______ _____ _____    ______ ____
ROOT
ATOM      1  F   UNL     1      48.227   8.062  11.806  0.00  0.00    +0.000 F 
ATOM      2  C   UNL     1      47.507   6.995  12.177  0.00  0.00    +0.000 A 
ATOM      3  C   UNL     1      47.778   6.386  13.400  0.00  0.00    +0.000 A 
ATOM      4  C   UNL     1      47.016   5.292  13.825  0.00  0.00    +0.000 A 
ATOM      5  C   UNL     1      46.001   4.821  12.967  0.00  0.00    +0.000 A 
ATOM      6  C   UNL     1      45.722   5.431  11.720  0.00  0.00    +0.000 A 
ATOM      7  C   UNL     1      46.490   6.536  11.340  0.00  0.00    +0.000 A 
ENDROOT
BRANCH   6   8
ATOM      8  C   UNL     1      44.567   4.913  10.865  0.00  0.00    +0.000 C 
ATOM      9  C   UNL     1      43.454   4.184  11.652  0.00  0.00    +0.000 C 
ATOM     10  C   UNL     1      43.460   2.659  11.558  0.00  0.00    +0.000 C 
ATOM     11  N   UNL     1      43.690   2.183  10.197  0.00  0.00    +0.000 NA
ATOM     12  C   UNL     1      45.004   2.629   9.742  0.00  0.00    +0.000 C 
ATOM     13  C   UNL     1      45.056   4.148   9.619  0.00  0.00    +0.000 C 
ATOM     14  H   UNL     1      42.968   2.550   9.577  0.00  0.00    +0.000 HD
ENDBRANCH   6   8
BRANCH   4  15
ATOM     15  C   UNL     1      47.252   4.673  15.188  0.00  0.00    +0.000 C 
BRANCH  15  16
ATOM     16  N   UNL     1      47.916   5.607  16.080  0.00  0.00    +0.000 N 
ATOM     17  C   UNL     1      48.138   5.242  17.400  0.00  0.00    +0.000 A 
ATOM     18  C   UNL     1      48.471   3.949  17.824  0.00  0.00    +0.000 A 
ATOM     19  N   UNL     1      48.745   3.603  19.110  0.00  0.00    +0.000 NA
ATOM     20  C   UNL     1      48.699   4.622  19.987  0.00  0.00    +0.000 A 
ATOM     21  F   UNL     1      48.974   4.367  21.273  0.00  0.00    +0.000 F 
ATOM     22  C   UNL     1      48.384   5.910  19.594  0.00  0.00    +0.000 A 
ATOM     23  N   UNL     1      48.092   6.243  18.306  0.00  0.00    +0.000 NA
ATOM     24  H   UNL     1      47.548   6.556  16.074  0.00  0.00    +0.000 HD
ENDBRANCH  15  16
ENDBRANCH   4  15
TORSDOF 3
ENDMDL
MODEL 8
REMARK VINA RESULT:    -6.626      2.033      2.758
REMARK INTER + INTRA:          -8.364
REMARK INTER:                  -7.818
REMARK INTRA:                  -0.546
REMARK UNBOUND:                -0.576
REMARK  Name = 
REMARK  3 active torsions:
REMARK  status: ('A' for Active; 'I' for Inactive)
REMARK    1  A    between atoms: C_4  and  C_5
REMARK    2  A    between atoms: C_5  and  N_6
REMARK    3  A    between atoms: C_15  and  C_16
REMARK                            x       y       z     vdW  Elec       q    Type
REMARK                         _______ _______ _______ _____ _____    ______ ____
ROOT
ATOM      1  F   UNL     1      43.986   9.862  11.442  0.00  0.00    +0.000 F 
ATOM      2  C   UNL     1      44.732   8.772  11.666  0.00  0.00    +0.000 A 
ATOM      3  C   UNL     1      44.295   7.540  11.185  0.00  0.00    +0.000 A 
ATOM      4  C   UNL     1      45.076   6.395  11.376  0.00  0.00    +0.000 A 
ATOM      5  C   UNL     1      46.284   6.530  12.088  0.00  0.00    +0.000 A 
ATOM      6  C   UNL     1      46.734   7.778  12.585  0.00  0.00    +0.000 A 
ATOM      7  C   UNL     1      45.938   8.903  12.355  0.00  0.00    +0.000 A 
ENDROOT
BRANCH   6   8
ATOM      8  C   UNL     1      48.084   7.869  13.293  0.00  0.00    +0.000 C 
ATOM      9  C   UNL     1      48.564   9.307  13.593  0.00  0.00    +0.000 C 
ATOM     10  C   UNL     1      49.650   9.855  12.670  0.00  0.00    +0.000 C 
ATOM     11  N   UNL     1      50.702   8.879  12.403  0.00  0.00    +0.000 NA
ATOM     12  C   UNL     1      50.130   7.721  11.723  0.00  0.00    +0.000 C 
ATOM     13  C   UNL     1      49.155   6.978  12.631  0.00  0.00    +0.000 C 
ATOM     14  H   UNL     1      51.132   8.587  13.281  0.00  0.00    +0.000 HD
ENDBRANCH   6   8
BRANCH   4  15
ATOM     15  C   UNL     1      44.646   5.065  10.788  0.00  0.00    +0.000 C 
BRANCH  15  16
ATOM     16  N   UNL     1      44.835   5.044   9.348  0.00  0.00    +0.000 N 
ATOM     17  C   UNL     1      45.477   3.961   8.765  0.00  0.00    +0.000 A 
ATOM     18  C   UNL     1      45.346   2.632   9.190  0.00  0.00    +0.000 A 
ATOM     19  N   UNL     1      45.929   1.565   8.584  0.00  0.00    +0.000 NA
ATOM     20  C   UNL     1      46.653   1.867   7.491  0.00  0.00    +0.000 A 
ATOM     21  F   UNL     1      47.248   0.868   6.825  0.00  0.00    +0.000 F 
ATOM     22  C   UNL     1      46.791   3.168   7.043  0.00  0.00    +0.000 A 
ATOM     23  N   UNL     1      46.218   4.234   7.668  0.00  0.00    +0.000 NA
ATOM     24  H   UNL     1      45.222   5.894   8.944  0.00  0.00    +0.000 HD
ENDBRANCH  15  16
ENDBRANCH   4  15
TORSDOF 3
ENDMDL
MODEL 9
REMARK VINA RESULT:    -6.327      3.978      5.826
REMARK INTER + INTRA:          -8.012
REMARK INTER:                  -7.356
REMARK INTRA:                  -0.656
REMARK UNBOUND:                -0.576
REMARK  Name = 
REMARK  3 active torsions:
REMARK  status: ('A' for Active; 'I' for Inactive)
REMARK    1  A    between atoms: C_4  and  C_5
REMARK    2  A    between atoms: C_5  and  N_6
REMARK    3  A    between atoms: C_15  and  C_16
REMARK                            x       y       z     vdW  Elec       q    Type
REMARK                         _______ _______ _______ _____ _____    ______ ____
ROOT
ATOM      1  F   UNL     1      51.617   8.575  14.313  0.00  0.00    +0.000 F 
ATOM      2  C   UNL     1      50.511   7.857  14.553  0.00  0.00    +0.000 A 
ATOM      3  C   UNL     1      49.516   7.799  13.580  0.00  0.00    +0.000 A 
ATOM      4  C   UNL     1      48.369   7.027  13.794  0.00  0.00    +0.000 A 
ATOM      5  C   UNL     1      48.250   6.348  15.023  0.00  0.00    +0.000 A 
ATOM      6  C   UNL     1      49.254   6.406  16.020  0.00  0.00    +0.000 A 
ATOM      7  C   UNL     1      50.396   7.169  15.761  0.00  0.00    +0.000 A 
ENDROOT
BRANCH   6   8
ATOM      8  C   UNL     1      49.094   5.595  17.305  0.00  0.00    +0.000 C 
ATOM      9  C   UNL     1      50.417   5.081  17.917  0.00  0.00    +0.000 C 
ATOM     10  C   UNL     1      50.726   3.601  17.693  0.00  0.00    +0.000 C 
ATOM     11  N   UNL     1      49.558   2.749  17.899  0.00  0.00    +0.000 NA
ATOM     12  C   UNL     1      48.521   3.103  16.936  0.00  0.00    +0.000 C 
ATOM     13  C   UNL     1      48.000   4.515  17.184  0.00  0.00    +0.000 C 
ATOM     14  H   UNL     1      49.204   2.873  18.848  0.00  0.00    +0.000 HD
ENDBRANCH   6   8
BRANCH   4  15
ATOM     15  C   UNL     1      47.319   6.894  12.710  0.00  0.00    +0.000 C 
BRANCH  15  16
ATOM     16  N   UNL     1      46.003   6.667  13.280  0.00  0.00    +0.000 N 
ATOM     17  C   UNL     1      45.313   5.508  12.949  0.00  0.00    +0.000 A 
ATOM     18  C   UNL     1      45.907   4.255  12.753  0.00  0.00    +0.000 A 
ATOM     19  N   UNL     1      45.226   3.109  12.486  0.00  0.00    +0.000 NA
ATOM     20  C   UNL     1      43.889   3.249  12.442  0.00  0.00    +0.000 A 
ATOM     21  F   UNL     1      43.143   2.162  12.201  0.00  0.00    +0.000 F 
ATOM     22  C   UNL     1      43.275   4.472  12.643  0.00  0.00    +0.000 A 
ATOM     23  N   UNL     1      43.967   5.618  12.891  0.00  0.00    +0.000 NA
ATOM     24  H   UNL     1      45.354   7.448  13.212  0.00  0.00    +0.000 HD
ENDBRANCH  15  16
ENDBRANCH   4  15
TORSDOF 3
ENDMDL
