MODEL 1
REMARK VINA RESULT:    -7.938      0.000      0.000
REMARK INTER + INTRA:         -12.369
REMARK INTER:                 -11.186
REMARK INTRA:                  -1.183
REMARK UNBOUND:                -1.183
REMARK  Name = 
REMARK  7 active torsions:
REMARK  status: ('A' for Active; 'I' for Inactive)
REMARK    1  A    between atoms: C_2  and  C_3
REMARK    2  A    between atoms: C_9  and  C_10
REMARK    3  A    between atoms: N_12  and  C_13
REMARK    4  A    between atoms: C_13  and  C_14
REMARK    5  A    between atoms: C_17  and  C_18
REMARK    6  A    between atoms: C_19  and  C_20
REMARK    7  A    between atoms: C_20  and  C_21
REMARK                            x       y       z     vdW  Elec       q    Type
REMARK                         _______ _______ _______ _____ _____    ______ ____
ROOT
ATOM      1  C   UNL     1      48.075   8.393  14.685  0.00  0.00    +0.000 C 
ENDROOT
BRANCH   1   2
ATOM      2  C   UNL     1      47.530   7.642  13.493  0.00  0.00    +0.000 A 
ATOM      3  C   UNL     1      46.350   6.895  13.644  0.00  0.00    +0.000 A 
ATOM      4  C   UNL     1      45.806   6.182  12.575  0.00  0.00    +0.000 A 
ATOM      5  C   UNL     1      46.444   6.197  11.336  0.00  0.00    +0.000 A 
ATOM      6  C   UNL     1      47.605   6.950  11.161  0.00  0.00    +0.000 A 
ATOM      7  C   UNL     1      48.143   7.677  12.230  0.00  0.00    +0.000 A 
BRANCH   5   8
ATOM      8  C   UNL     1      45.877   5.496  10.233  0.00  0.00    +0.000 C 
ATOM      9  C   UNL     1      45.371   4.840   9.360  0.00  0.00    +0.000 C 
BRANCH   9  10
ATOM     10  C   UNL     1      44.753   3.973   8.355  0.00  0.00    +0.000 C 
BRANCH  10  11
ATOM     11  C   UNL     1      45.749   3.055   7.684  0.00  0.00    +0.000 A 
ATOM     12  C   UNL     1      46.022   1.799   8.246  0.00  0.00    +0.000 A 
ATOM     13  C   UNL     1      46.889   0.908   7.612  0.00  0.00    +0.000 A 
ATOM     14  C   UNL     1      47.503   1.265   6.413  0.00  0.00    +0.000 A 
ATOM     15  C   UNL     1      47.272   2.523   5.862  0.00  0.00    +0.000 A 
ATOM     16  C   UNL     1      46.404   3.420   6.497  0.00  0.00    +0.000 A 
ENDBRANCH  10  11
ENDBRANCH   9  10
ENDBRANCH   5   8
ENDBRANCH   1   2
BRANCH   1  19
ATOM     17  C   UNL     1      49.186   6.669  16.041  0.00  0.00    +0.000 C 
ATOM     18  O   UNL     1      50.036   6.533  15.165  0.00  0.00    +0.000 OA
ATOM     19  N   UNL     1      48.164   7.594  15.895  0.00  0.00    +0.000 N 
ATOM     20  H   UNL     1      47.569   7.840  16.673  0.00  0.00    +0.000 HD
BRANCH  17  27
ATOM     21  C   UNL     1      47.931   3.723  16.810  0.00  0.00    +0.000 A 
ATOM     22  C   UNL     1      47.662   2.777  17.808  0.00  0.00    +0.000 A 
ATOM     23  N   UNL     1      48.127   3.251  19.042  0.00  0.00    +0.000 N 
ATOM     24  C   UNL     1      48.686   4.471  18.822  0.00  0.00    +0.000 A 
ATOM     25  N   UNL     1      49.301   5.439  19.545  0.00  0.00    +0.000 NA
ATOM     26  C   UNL     1      49.574   6.390  18.578  0.00  0.00    +0.000 C 
ATOM     27  C   UNL     1      49.139   5.967  17.288  0.00  0.00    +0.000 C 
ATOM     28  C   UNL     1      48.556   4.716  17.517  0.00  0.00    +0.000 A 
ATOM     29  H   UNL     1      48.068   2.785  19.934  0.00  0.00    +0.000 HD
BRANCH  21  31
ATOM     30  N   UNL     1      47.399   3.484  14.291  0.00  0.00    +0.000 NA
ATOM     31  C   UNL     1      47.604   3.588  15.432  0.00  0.00    +0.000 C 
ENDBRANCH  21  31
ENDBRANCH  17  27
ENDBRANCH   1  19
TORSDOF 7
ENDMDL
MODEL 2
REMARK VINA RESULT:    -7.614      1.815      2.168
REMARK INTER + INTRA:         -11.912
REMARK INTER:                 -10.791
REMARK INTRA:                  -1.120
REMARK UNBOUND:                -1.183
REMARK  Name = 
REMARK  7 active torsions:
REMARK  status: ('A' for Active; 'I' for Inactive)
REMARK    1  A    between atoms: C_2  and  C_3
REMARK    2  A    between atoms: C_9  and  C_10
REMARK    3  A    between atoms: N_12  and  C_13
REMARK    4  A    between atoms: C_13  and  C_14
REMARK    5  A    between atoms: C_17  and  C_18
REMARK    6  A    between atoms: C_19  and  C_20
REMARK    7  A    between atoms: C_20  and  C_21
REMARK                            x       y       z     vdW  Elec       q    Type
REMARK                         _______ _______ _______ _____ _____    ______ ____
ROOT
ATOM      1  C   UNL     1      48.552   7.665  15.051  0.00  0.00    +0.000 C 
ENDROOT
BRANCH   1   2
ATOM      2  C   UNL     1      47.793   7.029  13.910  0.00  0.00    +0.000 A 
ATOM      3  C   UNL     1      47.544   7.788  12.755  0.00  0.00    +0.000 A 
ATOM      4  C   UNL     1      46.846   7.248  11.674  0.00  0.00    +0.000 A 
ATOM      5  C   UNL     1      46.376   5.938  11.737  0.00  0.00    +0.000 A 
ATOM      6  C   UNL     1      46.633   5.161  12.867  0.00  0.00    +0.000 A 
ATOM      7  C   UNL     1      47.344   5.700  13.947  0.00  0.00    +0.000 A 
BRANCH   5   8
ATOM      8  C   UNL     1      45.690   5.371  10.625  0.00  0.00    +0.000 C 
ATOM      9  C   UNL     1      45.175   4.825   9.684  0.00  0.00    +0.000 C 
BRANCH   9  10
ATOM     10  C   UNL     1      44.623   4.118   8.528  0.00  0.00    +0.000 C 
BRANCH  10  11
ATOM     11  C   UNL     1      45.598   3.130   7.928  0.00  0.00    +0.000 A 
ATOM     12  C   UNL     1      46.473   3.549   6.915  0.00  0.00    +0.000 A 
ATOM     13  C   UNL     1      47.424   2.674   6.389  0.00  0.00    +0.000 A 
ATOM     14  C   UNL     1      47.507   1.366   6.862  0.00  0.00    +0.000 A 
ATOM     15  C   UNL     1      46.620   0.923   7.839  0.00  0.00    +0.000 A 
ATOM     16  C   UNL     1      45.662   1.799   8.368  0.00  0.00    +0.000 A 
ENDBRANCH  10  11
ENDBRANCH   9  10
ENDBRANCH   5   8
ENDBRANCH   1   2
BRANCH   1  19
ATOM     17  C   UNL     1      49.617   6.510  16.943  0.00  0.00    +0.000 C 
ATOM     18  O   UNL     1      48.722   6.909  17.685  0.00  0.00    +0.000 OA
ATOM     19  N   UNL     1      49.610   6.828  15.594  0.00  0.00    +0.000 N 
ATOM     20  H   UNL     1      50.232   6.367  14.946  0.00  0.00    +0.000 HD
BRANCH  17  27
ATOM     21  C   UNL     1      49.808   3.248  17.360  0.00  0.00    +0.000 A 
ATOM     22  C   UNL     1      50.593   2.148  17.727  0.00  0.00    +0.000 A 
ATOM     23  N   UNL     1      51.883   2.582  18.062  0.00  0.00    +0.000 N 
ATOM     24  C   UNL     1      51.908   3.932  17.902  0.00  0.00    +0.000 A 
ATOM     25  N   UNL     1      52.801   4.944  18.043  0.00  0.00    +0.000 NA
ATOM     26  C   UNL     1      52.044   6.047  17.690  0.00  0.00    +0.000 C 
ATOM     27  C   UNL     1      50.718   5.676  17.321  0.00  0.00    +0.000 C 
ATOM     28  C   UNL     1      50.689   4.288  17.494  0.00  0.00    +0.000 A 
ATOM     29  H   UNL     1      52.657   2.013  18.365  0.00  0.00    +0.000 HD
BRANCH  21  31
ATOM     30  N   UNL     1      47.343   3.095  16.593  0.00  0.00    +0.000 NA
ATOM     31  C   UNL     1      48.445   3.193  16.956  0.00  0.00    +0.000 C 
ENDBRANCH  21  31
ENDBRANCH  17  27
ENDBRANCH   1  19
TORSDOF 7
ENDMDL
MODEL 3
REMARK VINA RESULT:    -7.274      1.826      2.242
REMARK INTER + INTRA:         -11.433
REMARK INTER:                 -10.281
REMARK INTRA:                  -1.152
REMARK UNBOUND:                -1.183
REMARK  Name = 
REMARK  7 active torsions:
REMARK  status: ('A' for Active; 'I' for Inactive)
REMARK    1  A    between atoms: C_2  and  C_3
REMARK    2  A    between atoms: C_9  and  C_10
REMARK    3  A    between atoms: N_12  and  C_13
REMARK    4  A    between atoms: C_13  and  C_14
REMARK    5  A    between atoms: C_17  and  C_18
REMARK    6  A    between atoms: C_19  and  C_20
REMARK    7  A    between atoms: C_20  and  C_21
REMARK                            x       y       z     vdW  Elec       q    Type
REMARK                         _______ _______ _______ _____ _____    ______ ____
ROOT
ATOM      1  C   UNL     1      47.927   9.328  14.457  0.00  0.00    +0.000 C 
ENDROOT
BRANCH   1   2
ATOM      2  C   UNL     1      47.215   8.337  13.568  0.00  0.00    +0.000 A 
ATOM      3  C   UNL     1      47.623   6.993  13.587  0.00  0.00    +0.000 A 
ATOM      4  C   UNL     1      46.999   6.038  12.783  0.00  0.00    +0.000 A 
ATOM      5  C   UNL     1      45.960   6.417  11.937  0.00  0.00    +0.000 A 
ATOM      6  C   UNL     1      45.525   7.743  11.920  0.00  0.00    +0.000 A 
ATOM      7  C   UNL     1      46.143   8.698  12.737  0.00  0.00    +0.000 A 
BRANCH   5   8
ATOM      8  C   UNL     1      45.298   5.442  11.137  0.00  0.00    +0.000 C 
ATOM      9  C   UNL     1      44.818   4.607  10.415  0.00  0.00    +0.000 C 
BRANCH   9  10
ATOM     10  C   UNL     1      44.303   3.604   9.482  0.00  0.00    +0.000 C 
BRANCH  10  11
ATOM     11  C   UNL     1      45.381   3.018   8.599  0.00  0.00    +0.000 A 
ATOM     12  C   UNL     1      45.642   1.641   8.645  0.00  0.00    +0.000 A 
ATOM     13  C   UNL     1      46.589   1.067   7.794  0.00  0.00    +0.000 A 
ATOM     14  C   UNL     1      47.293   1.864   6.894  0.00  0.00    +0.000 A 
ATOM     15  C   UNL     1      47.073   3.238   6.863  0.00  0.00    +0.000 A 
ATOM     16  C   UNL     1      46.125   3.818   7.717  0.00  0.00    +0.000 A 
ENDBRANCH  10  11
ENDBRANCH   9  10
ENDBRANCH   5   8
ENDBRANCH   1   2
BRANCH   1  19
ATOM     17  C   UNL     1      48.710   8.725  16.709  0.00  0.00    +0.000 C 
ATOM     18  O   UNL     1      49.842   8.551  16.264  0.00  0.00    +0.000 OA
ATOM     19  N   UNL     1      47.679   9.131  15.876  0.00  0.00    +0.000 N 
ATOM     20  H   UNL     1      46.798   9.445  16.254  0.00  0.00    +0.000 HD
BRANCH  17  27
ATOM     21  C   UNL     1      48.077   6.033  18.498  0.00  0.00    +0.000 A 
ATOM     22  C   UNL     1      47.658   5.500  19.724  0.00  0.00    +0.000 A 
ATOM     23  N   UNL     1      47.391   6.543  20.622  0.00  0.00    +0.000 N 
ATOM     24  C   UNL     1      47.643   7.710  19.972  0.00  0.00    +0.000 A 
ATOM     25  N   UNL     1      47.598   9.039  20.240  0.00  0.00    +0.000 NA
ATOM     26  C   UNL     1      48.004   9.589  19.037  0.00  0.00    +0.000 C 
ATOM     27  C   UNL     1      48.308   8.581  18.076  0.00  0.00    +0.000 C 
ATOM     28  C   UNL     1      48.039   7.380  18.742  0.00  0.00    +0.000 A 
ATOM     29  H   UNL     1      47.071   6.458  21.574  0.00  0.00    +0.000 HD
BRANCH  21  31
ATOM     30  N   UNL     1      48.732   4.714  16.373  0.00  0.00    +0.000 NA
ATOM     31  C   UNL     1      48.437   5.277  17.347  0.00  0.00    +0.000 C 
ENDBRANCH  21  31
ENDBRANCH  17  27
ENDBRANCH   1  19
TORSDOF 7
ENDMDL
MODEL 4
REMARK VINA RESULT:    -6.868      4.863      9.440
REMARK INTER + INTRA:         -10.861
REMARK INTER:                 -10.051
REMARK INTRA:                  -0.810
REMARK UNBOUND:                -1.183
REMARK  Name = 
REMARK  7 active torsions:
REMARK  status: ('A' for Active; 'I' for Inactive)
REMARK    1  A    between atoms: C_2  and  C_3
REMARK    2  A    between atoms: C_9  and  C_10
REMARK    3  A    between atoms: N_12  and  C_13
REMARK    4  A    between atoms: C_13  and  C_14
REMARK    5  A    between atoms: C_17  and  C_18
REMARK    6  A    between atoms: C_19  and  C_20
REMARK    7  A    between atoms: C_20  and  C_21
REMARK                            x       y       z     vdW  Elec       q    Type
REMARK                         _______ _______ _______ _____ _____    ______ ____
ROOT
ATOM      1  C   UNL     1      47.096   4.050  16.694  0.00  0.00    +0.000 C 
ENDROOT
BRANCH   1   2
ATOM      2  C   UNL     1      48.497   3.565  16.979  0.00  0.00    +0.000 A 
ATOM      3  C   UNL     1      49.437   4.471  17.495  0.00  0.00    +0.000 A 
ATOM      4  C   UNL     1      50.746   4.074  17.774  0.00  0.00    +0.000 A 
ATOM      5  C   UNL     1      51.137   2.759  17.530  0.00  0.00    +0.000 A 
ATOM      6  C   UNL     1      50.212   1.838  17.038  0.00  0.00    +0.000 A 
ATOM      7  C   UNL     1      48.895   2.235  16.770  0.00  0.00    +0.000 A 
BRANCH   5   8
ATOM      8  C   UNL     1      52.462   2.339  17.841  0.00  0.00    +0.000 C 
ATOM      9  C   UNL     1      53.596   1.974  18.013  0.00  0.00    +0.000 C 
BRANCH   9  10
ATOM     10  C   UNL     1      54.975   1.500  18.140  0.00  0.00    +0.000 C 
BRANCH  10  11
ATOM     11  C   UNL     1      55.067  -0.005  18.257  0.00  0.00    +0.000 A 
ATOM     12  C   UNL     1      55.180  -0.596  19.524  0.00  0.00    +0.000 A 
ATOM     13  C   UNL     1      55.203  -1.984  19.663  0.00  0.00    +0.000 A 
ATOM     14  C   UNL     1      55.124  -2.800  18.536  0.00  0.00    +0.000 A 
ATOM     15  C   UNL     1      55.050  -2.229  17.269  0.00  0.00    +0.000 A 
ATOM     16  C   UNL     1      55.029  -0.835  17.126  0.00  0.00    +0.000 A 
ENDBRANCH  10  11
ENDBRANCH   9  10
ENDBRANCH   5   8
ENDBRANCH   1   2
BRANCH   1  19
ATOM     17  C   UNL     1      47.064   4.372  14.256  0.00  0.00    +0.000 C 
ATOM     18  O   UNL     1      47.184   3.160  14.099  0.00  0.00    +0.000 OA
ATOM     19  N   UNL     1      46.997   4.915  15.529  0.00  0.00    +0.000 N 
ATOM     20  H   UNL     1      46.724   5.876  15.672  0.00  0.00    +0.000 HD
BRANCH  17  27
ATOM     21  C   UNL     1      44.849   4.698  11.841  0.00  0.00    +0.000 A 
ATOM     22  C   UNL     1      44.432   5.408  10.707  0.00  0.00    +0.000 A 
ATOM     23  N   UNL     1      45.318   6.467  10.465  0.00  0.00    +0.000 N 
ATOM     24  C   UNL     1      46.272   6.425  11.433  0.00  0.00    +0.000 A 
ATOM     25  N   UNL     1      47.379   7.126  11.783  0.00  0.00    +0.000 NA
ATOM     26  C   UNL     1      47.814   6.438  12.901  0.00  0.00    +0.000 C 
ATOM     27  C   UNL     1      46.947   5.351  13.218  0.00  0.00    +0.000 C 
ATOM     28  C   UNL     1      45.971   5.388  12.216  0.00  0.00    +0.000 A 
ATOM     29  H   UNL     1      45.270   7.141   9.717  0.00  0.00    +0.000 HD
BRANCH  21  31
ATOM     30  N   UNL     1      43.615   2.670  12.864  0.00  0.00    +0.000 NA
ATOM     31  C   UNL     1      44.195   3.561  12.391  0.00  0.00    +0.000 C 
ENDBRANCH  21  31
ENDBRANCH  17  27
ENDBRANCH   1  19
TORSDOF 7
ENDMDL
MODEL 5
REMARK VINA RESULT:    -6.753      2.900      3.810
REMARK INTER + INTRA:         -10.699
REMARK INTER:                  -9.948
REMARK INTRA:                  -0.751
REMARK UNBOUND:                -1.183
REMARK  Name = 
REMARK  7 active torsions:
REMARK  status: ('A' for Active; 'I' for Inactive)
REMARK    1  A    between atoms: C_2  and  C_3
REMARK    2  A    between atoms: C_9  and  C_10
REMARK    3  A    between atoms: N_12  and  C_13
REMARK    4  A    between atoms: C_13  and  C_14
REMARK    5  A    between atoms: C_17  and  C_18
REMARK    6  A    between atoms: C_19  and  C_20
REMARK    7  A    between atoms: C_20  and  C_21
REMARK                            x       y       z     vdW  Elec       q    Type
REMARK                         _______ _______ _______ _____ _____    ______ ____
ROOT
ATOM      1  C   UNL     1      49.248   6.164  17.735  0.00  0.00    +0.000 C 
ENDROOT
BRANCH   1   2
ATOM      2  C   UNL     1      48.396   5.623  16.611  0.00  0.00    +0.000 A 
ATOM      3  C   UNL     1      48.468   6.237  15.350  0.00  0.00    +0.000 A 
ATOM      4  C   UNL     1      47.701   5.778  14.278  0.00  0.00    +0.000 A 
ATOM      5  C   UNL     1      46.839   4.698  14.457  0.00  0.00    +0.000 A 
ATOM      6  C   UNL     1      46.771   4.060  15.696  0.00  0.00    +0.000 A 
ATOM      7  C   UNL     1      47.550   4.514  16.767  0.00  0.00    +0.000 A 
BRANCH   5   8
ATOM      8  C   UNL     1      46.077   4.204  13.360  0.00  0.00    +0.000 C 
ATOM      9  C   UNL     1      45.356   3.813  12.478  0.00  0.00    +0.000 C 
BRANCH   9  10
ATOM     10  C   UNL     1      44.413   3.341  11.463  0.00  0.00    +0.000 C 
BRANCH  10  11
ATOM     11  C   UNL     1      44.999   3.355  10.070  0.00  0.00    +0.000 A 
ATOM     12  C   UNL     1      45.201   2.144   9.391  0.00  0.00    +0.000 A 
ATOM     13  C   UNL     1      45.681   2.134   8.080  0.00  0.00    +0.000 A 
ATOM     14  C   UNL     1      45.975   3.334   7.435  0.00  0.00    +0.000 A 
ATOM     15  C   UNL     1      45.816   4.542   8.108  0.00  0.00    +0.000 A 
ATOM     16  C   UNL     1      45.337   4.555   9.425  0.00  0.00    +0.000 A 
ENDBRANCH  10  11
ENDBRANCH   9  10
ENDBRANCH   5   8
ENDBRANCH   1   2
BRANCH   1  19
ATOM     17  C   UNL     1      51.460   5.142  17.404  0.00  0.00    +0.000 C 
ATOM     18  O   UNL     1      51.612   5.811  16.385  0.00  0.00    +0.000 OA
ATOM     19  N   UNL     1      50.305   5.260  18.161  0.00  0.00    +0.000 N 
ATOM     20  H   UNL     1      50.242   4.855  19.083  0.00  0.00    +0.000 HD
BRANCH  17  27
ATOM     21  C   UNL     1      51.502   1.849  17.418  0.00  0.00    +0.000 A 
ATOM     22  C   UNL     1      52.145   0.677  17.838  0.00  0.00    +0.000 A 
ATOM     23  N   UNL     1      53.292   1.008  18.572  0.00  0.00    +0.000 N 
ATOM     24  C   UNL     1      53.371   2.364  18.607  0.00  0.00    +0.000 A 
ATOM     25  N   UNL     1      54.196   3.309  19.123  0.00  0.00    +0.000 NA
ATOM     26  C   UNL     1      53.577   4.481  18.725  0.00  0.00    +0.000 C 
ATOM     27  C   UNL     1      52.405   4.218  17.957  0.00  0.00    +0.000 C 
ATOM     28  C   UNL     1      52.318   2.823  17.929  0.00  0.00    +0.000 A 
ATOM     29  H   UNL     1      53.946   0.370  18.999  0.00  0.00    +0.000 HD
BRANCH  21  31
ATOM     30  N   UNL     1      49.299   1.978  16.071  0.00  0.00    +0.000 NA
ATOM     31  C   UNL     1      50.307   1.906  16.649  0.00  0.00    +0.000 C 
ENDBRANCH  21  31
ENDBRANCH  17  27
ENDBRANCH   1  19
TORSDOF 7
ENDMDL
MODEL 6
REMARK VINA RESULT:    -6.646      1.854      3.180
REMARK INTER + INTRA:         -10.548
REMARK INTER:                  -9.733
REMARK INTRA:                  -0.816
REMARK UNBOUND:                -1.183
REMARK  Name = 
REMARK  7 active torsions:
REMARK  status: ('A' for Active; 'I' for Inactive)
REMARK    1  A    between atoms: C_2  and  C_3
REMARK    2  A    between atoms: C_9  and  C_10
REMARK    3  A    between atoms: N_12  and  C_13
REMARK    4  A    between atoms: C_13  and  C_14
REMARK    5  A    between atoms: C_17  and  C_18
REMARK    6  A    between atoms: C_19  and  C_20
REMARK    7  A    between atoms: C_20  and  C_21
REMARK                            x       y       z     vdW  Elec       q    Type
REMARK                         _______ _______ _______ _____ _____    ______ ____
ROOT
ATOM      1  C   UNL     1      48.772   7.635  15.391  0.00  0.00    +0.000 C 
ENDROOT
BRANCH   1   2
ATOM      2  C   UNL     1      47.956   7.014  14.282  0.00  0.00    +0.000 A 
ATOM      3  C   UNL     1      47.543   7.821  13.210  0.00  0.00    +0.000 A 
ATOM      4  C   UNL     1      46.786   7.296  12.161  0.00  0.00    +0.000 A 
ATOM      5  C   UNL     1      46.421   5.952  12.176  0.00  0.00    +0.000 A 
ATOM      6  C   UNL     1      46.841   5.128  13.221  0.00  0.00    +0.000 A 
ATOM      7  C   UNL     1      47.611   5.653  14.267  0.00  0.00    +0.000 A 
BRANCH   5   8
ATOM      8  C   UNL     1      45.675   5.402  11.094  0.00  0.00    +0.000 C 
ATOM      9  C   UNL     1      45.099   4.863  10.185  0.00  0.00    +0.000 C 
BRANCH   9  10
ATOM     10  C   UNL     1      44.466   4.153   9.072  0.00  0.00    +0.000 C 
BRANCH  10  11
ATOM     11  C   UNL     1      45.413   3.207   8.369  0.00  0.00    +0.000 A 
ATOM     12  C   UNL     1      46.309   3.706   7.413  0.00  0.00    +0.000 A 
ATOM     13  C   UNL     1      47.236   2.864   6.797  0.00  0.00    +0.000 A 
ATOM     14  C   UNL     1      47.271   1.509   7.121  0.00  0.00    +0.000 A 
ATOM     15  C   UNL     1      46.363   0.990   8.039  0.00  0.00    +0.000 A 
ATOM     16  C   UNL     1      45.430   1.833   8.658  0.00  0.00    +0.000 A 
ENDBRANCH  10  11
ENDBRANCH   9  10
ENDBRANCH   5   8
ENDBRANCH   1   2
BRANCH   1  19
ATOM     17  C   UNL     1      49.221   6.464  17.506  0.00  0.00    +0.000 C 
ATOM     18  O   UNL     1      50.335   6.152  17.092  0.00  0.00    +0.000 OA
ATOM     19  N   UNL     1      48.365   7.223  16.724  0.00  0.00    +0.000 N 
ATOM     20  H   UNL     1      47.528   7.631  17.114  0.00  0.00    +0.000 HD
BRANCH  17  27
ATOM     21  C   UNL     1      47.804   8.374  19.785  0.00  0.00    +0.000 A 
ATOM     22  C   UNL     1      47.234   8.466  21.061  0.00  0.00    +0.000 A 
ATOM     23  N   UNL     1      47.237   7.203  21.669  0.00  0.00    +0.000 N 
ATOM     24  C   UNL     1      47.795   6.332  20.787  0.00  0.00    +0.000 A 
ATOM     25  N   UNL     1      48.090   5.009  20.732  0.00  0.00    +0.000 NA
ATOM     26  C   UNL     1      48.661   4.894  19.477  0.00  0.00    +0.000 C 
ATOM     27  C   UNL     1      48.678   6.144  18.792  0.00  0.00    +0.000 C 
ATOM     28  C   UNL     1      48.113   7.042  19.703  0.00  0.00    +0.000 A 
ATOM     29  H   UNL     1      46.893   6.970  22.587  0.00  0.00    +0.000 HD
BRANCH  21  31
ATOM     30  N   UNL     1      48.148  10.301  18.095  0.00  0.00    +0.000 NA
ATOM     31  C   UNL     1      47.970   9.453  18.873  0.00  0.00    +0.000 C 
ENDBRANCH  21  31
ENDBRANCH  17  27
ENDBRANCH   1  19
TORSDOF 7
ENDMDL
MODEL 7
REMARK VINA RESULT:    -6.499      4.507      6.976
REMARK INTER + INTRA:         -10.341
REMARK INTER:                  -9.288
REMARK INTRA:                  -1.053
REMARK UNBOUND:                -1.183
REMARK  Name = 
REMARK  7 active torsions:
REMARK  status: ('A' for Active; 'I' for Inactive)
REMARK    1  A    between atoms: C_2  and  C_3
REMARK    2  A    between atoms: C_9  and  C_10
REMARK    3  A    between atoms: N_12  and  C_13
REMARK    4  A    between atoms: C_13  and  C_14
REMARK    5  A    between atoms: C_17  and  C_18
REMARK    6  A    between atoms: C_19  and  C_20
REMARK    7  A    between atoms: C_20  and  C_21
REMARK                            x       y       z     vdW  Elec       q    Type
REMARK                         _______ _______ _______ _____ _____    ______ ____
ROOT
ATOM      1  C   UNL     1      46.042   8.416  12.914  0.00  0.00    +0.000 C 
ENDROOT
BRANCH   1   2
ATOM      2  C   UNL     1      47.463   8.435  12.400  0.00  0.00    +0.000 A 
ATOM      3  C   UNL     1      48.160   7.221  12.289  0.00  0.00    +0.000 A 
ATOM      4  C   UNL     1      49.475   7.184  11.822  0.00  0.00    +0.000 A 
ATOM      5  C   UNL     1      50.117   8.368  11.467  0.00  0.00    +0.000 A 
ATOM      6  C   UNL     1      49.434   9.582  11.550  0.00  0.00    +0.000 A 
ATOM      7  C   UNL     1      48.110   9.617  12.006  0.00  0.00    +0.000 A 
BRANCH   5   8
ATOM      8  C   UNL     1      51.448   8.335  10.961  0.00  0.00    +0.000 C 
ATOM      9  C   UNL     1      52.550   8.229  10.488  0.00  0.00    +0.000 C 
BRANCH   9  10
ATOM     10  C   UNL     1      53.871   8.016   9.894  0.00  0.00    +0.000 C 
BRANCH  10  11
ATOM     11  C   UNL     1      53.909   6.823   8.967  0.00  0.00    +0.000 A 
ATOM     12  C   UNL     1      52.891   6.649   8.019  0.00  0.00    +0.000 A 
ATOM     13  C   UNL     1      52.937   5.590   7.110  0.00  0.00    +0.000 A 
ATOM     14  C   UNL     1      53.997   4.686   7.144  0.00  0.00    +0.000 A 
ATOM     15  C   UNL     1      54.996   4.822   8.104  0.00  0.00    +0.000 A 
ATOM     16  C   UNL     1      54.951   5.883   9.020  0.00  0.00    +0.000 A 
ENDBRANCH  10  11
ENDBRANCH   9  10
ENDBRANCH   5   8
ENDBRANCH   1   2
BRANCH   1  19
ATOM     17  C   UNL     1      44.613   6.613  12.048  0.00  0.00    +0.000 C 
ATOM     18  O   UNL     1      44.340   7.304  11.070  0.00  0.00    +0.000 OA
ATOM     19  N   UNL     1      45.474   7.083  13.026  0.00  0.00    +0.000 N 
ATOM     20  H   UNL     1      45.843   6.467  13.736  0.00  0.00    +0.000 HD
BRANCH  17  27
ATOM     21  C   UNL     1      44.733   3.895  10.191  0.00  0.00    +0.000 A 
ATOM     22  C   UNL     1      44.393   2.544  10.051  0.00  0.00    +0.000 A 
ATOM     23  N   UNL     1      43.702   2.113  11.192  0.00  0.00    +0.000 N 
ATOM     24  C   UNL     1      43.616   3.174  12.037  0.00  0.00    +0.000 A 
ATOM     25  N   UNL     1      43.103   3.443  13.263  0.00  0.00    +0.000 NA
ATOM     26  C   UNL     1      43.423   4.780  13.422  0.00  0.00    +0.000 C 
ATOM     27  C   UNL     1      44.144   5.283  12.300  0.00  0.00    +0.000 C 
ATOM     28  C   UNL     1      44.224   4.194  11.427  0.00  0.00    +0.000 A 
ATOM     29  H   UNL     1      43.333   1.191  11.368  0.00  0.00    +0.000 HD
BRANCH  21  31
ATOM     30  N   UNL     1      46.073   5.302   8.485  0.00  0.00    +0.000 NA
ATOM     31  C   UNL     1      45.441   4.673   9.233  0.00  0.00    +0.000 C 
ENDBRANCH  21  31
ENDBRANCH  17  27
ENDBRANCH   1  19
TORSDOF 7
ENDMDL
MODEL 8
REMARK VINA RESULT:    -6.436      4.175      6.226
REMARK INTER + INTRA:         -10.252
REMARK INTER:                  -9.232
REMARK INTRA:                  -1.020
REMARK UNBOUND:                -1.183
REMARK  Name = 
REMARK  7 active torsions:
REMARK  status: ('A' for Active; 'I' for Inactive)
REMARK    1  A    between atoms: C_2  and  C_3
REMARK    2  A    between atoms: C_9  and  C_10
REMARK    3  A    between atoms: N_12  and  C_13
REMARK    4  A    between atoms: C_13  and  C_14
REMARK    5  A    between atoms: C_17  and  C_18
REMARK    6  A    between atoms: C_19  and  C_20
REMARK    7  A    between atoms: C_20  and  C_21
REMARK                            x       y       z     vdW  Elec       q    Type
REMARK                         _______ _______ _______ _____ _____    ______ ____
ROOT
ATOM      1  C   UNL     1      47.665   5.698  13.592  0.00  0.00    +0.000 C 
ENDROOT
BRANCH   1   2
ATOM      2  C   UNL     1      46.696   6.646  12.927  0.00  0.00    +0.000 A 
ATOM      3  C   UNL     1      45.805   6.142  11.965  0.00  0.00    +0.000 A 
ATOM      4  C   UNL     1      44.891   6.976  11.320  0.00  0.00    +0.000 A 
ATOM      5  C   UNL     1      44.861   8.336  11.622  0.00  0.00    +0.000 A 
ATOM      6  C   UNL     1      45.723   8.852  12.591  0.00  0.00    +0.000 A 
ATOM      7  C   UNL     1      46.631   8.012  13.247  0.00  0.00    +0.000 A 
BRANCH   5   8
ATOM      8  C   UNL     1      43.910   9.188  10.991  0.00  0.00    +0.000 C 
ATOM      9  C   UNL     1      43.055   9.901  10.533  0.00  0.00    +0.000 C 
BRANCH   9  10
ATOM     10  C   UNL     1      41.961  10.738  10.040  0.00  0.00    +0.000 C 
BRANCH  10  11
ATOM     11  C   UNL     1      40.875  10.948  11.071  0.00  0.00    +0.000 A 
ATOM     12  C   UNL     1      41.140  11.724  12.209  0.00  0.00    +0.000 A 
ATOM     13  C   UNL     1      40.135  11.984  13.142  0.00  0.00    +0.000 A 
ATOM     14  C   UNL     1      38.857  11.463  12.956  0.00  0.00    +0.000 A 
ATOM     15  C   UNL     1      38.588  10.659  11.852  0.00  0.00    +0.000 A 
ATOM     16  C   UNL     1      39.594  10.394  10.914  0.00  0.00    +0.000 A 
ENDBRANCH  10  11
ENDBRANCH   9  10
ENDBRANCH   5   8
ENDBRANCH   1   2
BRANCH   1  19
ATOM     17  C   UNL     1      48.746   6.142  15.755  0.00  0.00    +0.000 C 
ATOM     18  O   UNL     1      49.769   6.488  15.169  0.00  0.00    +0.000 OA
ATOM     19  N   UNL     1      47.627   5.739  15.044  0.00  0.00    +0.000 N 
ATOM     20  H   UNL     1      46.734   5.623  15.500  0.00  0.00    +0.000 HD
BRANCH  17  27
ATOM     21  C   UNL     1      48.637   3.647  17.903  0.00  0.00    +0.000 A 
ATOM     22  C   UNL     1      48.442   3.236  19.228  0.00  0.00    +0.000 A 
ATOM     23  N   UNL     1      48.193   4.354  20.034  0.00  0.00    +0.000 N 
ATOM     24  C   UNL     1      48.235   5.450  19.230  0.00  0.00    +0.000 A 
ATOM     25  N   UNL     1      48.090   6.792  19.354  0.00  0.00    +0.000 NA
ATOM     26  C   UNL     1      48.273   7.223  18.052  0.00  0.00    +0.000 C 
ATOM     27  C   UNL     1      48.548   6.133  17.174  0.00  0.00    +0.000 C 
ATOM     28  C   UNL     1      48.494   5.005  17.999  0.00  0.00    +0.000 A 
ATOM     29  H   UNL     1      48.014   4.361  21.026  0.00  0.00    +0.000 HD
BRANCH  21  31
ATOM     30  N   UNL     1      49.145   2.037  15.944  0.00  0.00    +0.000 NA
ATOM     31  C   UNL     1      48.915   2.788  16.803  0.00  0.00    +0.000 C 
ENDBRANCH  21  31
ENDBRANCH  17  27
ENDBRANCH   1  19
TORSDOF 7
ENDMDL
MODEL 9
REMARK VINA RESULT:    -6.276      3.879      5.314
REMARK INTER + INTRA:         -10.027
REMARK INTER:                  -9.076
REMARK INTRA:                  -0.950
REMARK UNBOUND:                -1.183
REMARK  Name = 
REMARK  7 active torsions:
REMARK  status: ('A' for Active; 'I' for Inactive)
REMARK    1  A    between atoms: C_2  and  C_3
REMARK    2  A    between atoms: C_9  and  C_10
REMARK    3  A    between atoms: N_12  and  C_13
REMARK    4  A    between atoms: C_13  and  C_14
REMARK    5  A    between atoms: C_17  and  C_18
REMARK    6  A    between atoms: C_19  and  C_20
REMARK    7  A    between atoms: C_20  and  C_21
REMARK                            x       y       z     vdW  Elec       q    Type
REMARK                         _______ _______ _______ _____ _____    ______ ____
ROOT
ATOM      1  C   UNL     1      46.870   4.531  14.454  0.00  0.00    +0.000 C 
ENDROOT
BRANCH   1   2
ATOM      2  C   UNL     1      46.283   5.651  13.627  0.00  0.00    +0.000 A 
ATOM      3  C   UNL     1      45.001   5.488  13.077  0.00  0.00    +0.000 A 
ATOM      4  C   UNL     1      44.414   6.492  12.305  0.00  0.00    +0.000 A 
ATOM      5  C   UNL     1      45.109   7.674  12.061  0.00  0.00    +0.000 A 
ATOM      6  C   UNL     1      46.375   7.864  12.617  0.00  0.00    +0.000 A 
ATOM      7  C   UNL     1      46.958   6.862  13.403  0.00  0.00    +0.000 A 
BRANCH   5   8
ATOM      8  C   UNL     1      44.504   8.715  11.299  0.00  0.00    +0.000 C 
ATOM      9  C   UNL     1      43.920   9.538  10.644  0.00  0.00    +0.000 C 
BRANCH   9  10
ATOM     10  C   UNL     1      43.156  10.475   9.819  0.00  0.00    +0.000 C 
BRANCH  10  11
ATOM     11  C   UNL     1      43.990  11.106   8.727  0.00  0.00    +0.000 A 
ATOM     12  C   UNL     1      45.123  11.859   9.068  0.00  0.00    +0.000 A 
ATOM     13  C   UNL     1      45.944  12.398   8.076  0.00  0.00    +0.000 A 
ATOM     14  C   UNL     1      45.638  12.200   6.732  0.00  0.00    +0.000 A 
ATOM     15  C   UNL     1      44.496  11.487   6.377  0.00  0.00    +0.000 A 
ATOM     16  C   UNL     1      43.668  10.946   7.370  0.00  0.00    +0.000 A 
ENDBRANCH  10  11
ENDBRANCH   9  10
ENDBRANCH   5   8
ENDBRANCH   1   2
BRANCH   1  19
ATOM     17  C   UNL     1      47.393   4.422  16.854  0.00  0.00    +0.000 C 
ATOM     18  O   UNL     1      46.568   3.523  16.989  0.00  0.00    +0.000 OA
ATOM     19  N   UNL     1      47.626   4.986  15.609  0.00  0.00    +0.000 N 
ATOM     20  H   UNL     1      48.416   5.594  15.452  0.00  0.00    +0.000 HD
BRANCH  17  27
ATOM     21  C   UNL     1      50.338   3.482  17.991  0.00  0.00    +0.000 A 
ATOM     22  C   UNL     1      51.368   3.689  18.917  0.00  0.00    +0.000 A 
ATOM     23  N   UNL     1      51.051   4.781  19.736  0.00  0.00    +0.000 N 
ATOM     24  C   UNL     1      49.844   5.255  19.327  0.00  0.00    +0.000 A 
ATOM     25  N   UNL     1      48.989   6.252  19.666  0.00  0.00    +0.000 NA
ATOM     26  C   UNL     1      47.956   6.064  18.765  0.00  0.00    +0.000 C 
ATOM     27  C   UNL     1      48.220   4.973  17.886  0.00  0.00    +0.000 C 
ATOM     28  C   UNL     1      49.457   4.479  18.313  0.00  0.00    +0.000 A 
ATOM     29  H   UNL     1      51.604   5.156  20.491  0.00  0.00    +0.000 HD
BRANCH  21  31
ATOM     30  N   UNL     1      50.264   1.591  16.229  0.00  0.00    +0.000 NA
ATOM     31  C   UNL     1      50.311   2.463  16.998  0.00  0.00    +0.000 C 
ENDBRANCH  21  31
ENDBRANCH  17  27
ENDBRANCH   1  19
TORSDOF 7
ENDMDL
