MODEL 1
REMARK VINA RESULT:    -8.483      0.000      0.000
REMARK INTER + INTRA:         -11.827
REMARK INTER:                 -10.963
REMARK INTRA:                  -0.864
REMARK UNBOUND:                -0.864
REMARK  Name = 
REMARK  5 active torsions:
REMARK  status: ('A' for Active; 'I' for Inactive)
REMARK    1  A    between atoms: C_2  and  C_4
REMARK    2  A    between atoms: C_8  and  N_9
REMARK    3  A    between atoms: N_9  and  C_10
REMARK    4  A    between atoms: C_10  and  C_11
REMARK    5  A    between atoms: C_15  and  C_16
REMARK                            x       y       z     vdW  Elec       q    Type
REMARK                         _______ _______ _______ _____ _____    ______ ____
ROOT
ATOM      1  N   UNL     1      43.950   6.783  12.279  0.00  0.00    +0.000 N 
ATOM      2  H   UNL     1      43.358   6.489  13.054  0.00  0.00    +0.000 HD
ENDROOT
BRANCH   1   7
ATOM      3  C   UNL     1      46.979   5.300  13.834  0.00  0.00    +0.000 A 
ATOM      4  C   UNL     1      48.006   5.988  13.181  0.00  0.00    +0.000 A 
ATOM      5  C   UNL     1      47.687   6.956  12.234  0.00  0.00    +0.000 A 
ATOM      6  C   UNL     1      46.349   7.218  11.923  0.00  0.00    +0.000 A 
ATOM      7  C   UNL     1      45.303   6.503  12.522  0.00  0.00    +0.000 A 
ATOM      8  C   UNL     1      45.640   5.564  13.508  0.00  0.00    +0.000 A 
BRANCH   3  10
ATOM      9  N   UNL     1      47.257   4.660  16.166  0.00  0.00    +0.000 N 
ATOM     10  C   UNL     1      47.274   4.265  14.857  0.00  0.00    +0.000 C 
ATOM     11  O   UNL     1      47.495   3.100  14.550  0.00  0.00    +0.000 OA
ATOM     12  H   UNL     1      47.357   3.929  16.858  0.00  0.00    +0.000 HD
ATOM     13  H   UNL     1      46.835   5.529  16.463  0.00  0.00    +0.000 HD
ENDBRANCH   3  10
ENDBRANCH   1   7
BRANCH   1  14
ATOM     14  C   UNL     1      43.394   6.413  10.983  0.00  0.00    +0.000 C 
BRANCH  14  15
ATOM     15  C   UNL     1      43.639   4.955  10.711  0.00  0.00    +0.000 A 
ATOM     16  C   UNL     1      43.056   3.978  11.505  0.00  0.00    +0.000 A 
ATOM     17  N   UNL     1      43.215   2.655  11.305  0.00  0.00    +0.000 NA
ATOM     18  C   UNL     1      44.020   2.286  10.279  0.00  0.00    +0.000 A 
ATOM     19  C   UNL     1      44.680   3.163   9.414  0.00  0.00    +0.000 A 
ATOM     20  C   UNL     1      44.461   4.529   9.658  0.00  0.00    +0.000 A 
BRANCH  19  21
ATOM     21  C   UNL     1      45.562   2.687   8.327  0.00  0.00    +0.000 A 
ATOM     22  C   UNL     1      45.932   3.508   7.250  0.00  0.00    +0.000 A 
ATOM     23  C   UNL     1      46.787   3.040   6.254  0.00  0.00    +0.000 A 
ATOM     24  C   UNL     1      47.265   1.746   6.354  0.00  0.00    +0.000 A 
ATOM     25  N   UNL     1      46.937   0.910   7.357  0.00  0.00    +0.000 NA
ATOM     26  C   UNL     1      46.099   1.397   8.307  0.00  0.00    +0.000 A 
ENDBRANCH  19  21
ENDBRANCH  14  15
ENDBRANCH   1  14
TORSDOF 5
ENDMDL
MODEL 2
REMARK VINA RESULT:    -7.659      2.795      6.751
REMARK INTER + INTRA:         -10.762
REMARK INTER:                  -9.997
REMARK INTRA:                  -0.765
REMARK UNBOUND:                -0.864
REMARK  Name = 
REMARK  5 active torsions:
REMARK  status: ('A' for Active; 'I' for Inactive)
REMARK    1  A    between atoms: C_2  and  C_4
REMARK    2  A    between atoms: C_8  and  N_9
REMARK    3  A    between atoms: N_9  and  C_10
REMARK    4  A    between atoms: C_10  and  C_11
REMARK    5  A    between atoms: C_15  and  C_16
REMARK                            x       y       z     vdW  Elec       q    Type
REMARK                         _______ _______ _______ _____ _____    ______ ____
ROOT
ATOM      1  N   UNL     1      44.123   4.688   9.115  0.00  0.00    +0.000 N 
ATOM      2  H   UNL     1      44.578   5.555   8.836  0.00  0.00    +0.000 HD
ENDROOT
BRANCH   1   7
ATOM      3  C   UNL     1      46.482   2.564   7.187  0.00  0.00    +0.000 A 
ATOM      4  C   UNL     1      46.286   1.310   7.771  0.00  0.00    +0.000 A 
ATOM      5  C   UNL     1      45.358   1.170   8.797  0.00  0.00    +0.000 A 
ATOM      6  C   UNL     1      44.645   2.283   9.254  0.00  0.00    +0.000 A 
ATOM      7  C   UNL     1      44.863   3.562   8.723  0.00  0.00    +0.000 A 
ATOM      8  C   UNL     1      45.769   3.677   7.658  0.00  0.00    +0.000 A 
BRANCH   3  10
ATOM      9  N   UNL     1      48.783   2.613   6.391  0.00  0.00    +0.000 N 
ATOM     10  C   UNL     1      47.458   2.757   6.084  0.00  0.00    +0.000 C 
ATOM     11  O   UNL     1      47.097   3.007   4.941  0.00  0.00    +0.000 OA
ATOM     12  H   UNL     1      49.430   2.645   5.615  0.00  0.00    +0.000 HD
ATOM     13  H   UNL     1      49.094   2.165   7.241  0.00  0.00    +0.000 HD
ENDBRANCH   3  10
ENDBRANCH   1   7
BRANCH   1  14
ATOM     14  C   UNL     1      43.622   4.738  10.484  0.00  0.00    +0.000 C 
BRANCH  14  15
ATOM     15  C   UNL     1      44.750   5.007  11.439  0.00  0.00    +0.000 A 
ATOM     16  C   UNL     1      44.991   4.157  12.509  0.00  0.00    +0.000 A 
ATOM     17  N   UNL     1      45.997   4.327  13.391  0.00  0.00    +0.000 NA
ATOM     18  C   UNL     1      46.785   5.414  13.215  0.00  0.00    +0.000 A 
ATOM     19  C   UNL     1      46.645   6.357  12.192  0.00  0.00    +0.000 A 
ATOM     20  C   UNL     1      45.593   6.118  11.293  0.00  0.00    +0.000 A 
BRANCH  19  21
ATOM     21  C   UNL     1      47.532   7.533  12.075  0.00  0.00    +0.000 A 
ATOM     22  C   UNL     1      48.901   7.413  11.786  0.00  0.00    +0.000 A 
ATOM     23  C   UNL     1      49.707   8.541  11.655  0.00  0.00    +0.000 A 
ATOM     24  C   UNL     1      49.125   9.786  11.812  0.00  0.00    +0.000 A 
ATOM     25  N   UNL     1      47.821   9.963  12.099  0.00  0.00    +0.000 NA
ATOM     26  C   UNL     1      47.066   8.843  12.225  0.00  0.00    +0.000 A 
ENDBRANCH  19  21
ENDBRANCH  14  15
ENDBRANCH   1  14
TORSDOF 5
ENDMDL
MODEL 3
REMARK VINA RESULT:    -7.601      2.319      6.551
REMARK INTER + INTRA:         -10.687
REMARK INTER:                 -10.247
REMARK INTRA:                  -0.440
REMARK UNBOUND:                -0.864
REMARK  Name = 
REMARK  5 active torsions:
REMARK  status: ('A' for Active; 'I' for Inactive)
REMARK    1  A    between atoms: C_2  and  C_4
REMARK    2  A    between atoms: C_8  and  N_9
REMARK    3  A    between atoms: N_9  and  C_10
REMARK    4  A    between atoms: C_10  and  C_11
REMARK    5  A    between atoms: C_15  and  C_16
REMARK                            x       y       z     vdW  Elec       q    Type
REMARK                         _______ _______ _______ _____ _____    ______ ____
ROOT
ATOM      1  N   UNL     1      44.007   2.683  10.539  0.00  0.00    +0.000 N 
ATOM      2  H   UNL     1      43.193   2.113  10.318  0.00  0.00    +0.000 HD
ENDROOT
BRANCH   1   7
ATOM      3  C   UNL     1      46.386   1.985   7.772  0.00  0.00    +0.000 A 
ATOM      4  C   UNL     1      46.581   3.259   7.231  0.00  0.00    +0.000 A 
ATOM      5  C   UNL     1      45.931   4.350   7.797  0.00  0.00    +0.000 A 
ATOM      6  C   UNL     1      45.071   4.168   8.885  0.00  0.00    +0.000 A 
ATOM      7  C   UNL     1      44.815   2.895   9.411  0.00  0.00    +0.000 A 
ATOM      8  C   UNL     1      45.513   1.811   8.858  0.00  0.00    +0.000 A 
BRANCH   3  10
ATOM      9  N   UNL     1      47.834   0.986   6.090  0.00  0.00    +0.000 N 
ATOM     10  C   UNL     1      47.065   0.793   7.204  0.00  0.00    +0.000 C 
ATOM     11  O   UNL     1      46.968  -0.312   7.723  0.00  0.00    +0.000 OA
ATOM     12  H   UNL     1      48.372   0.192   5.772  0.00  0.00    +0.000 HD
ATOM     13  H   UNL     1      48.138   1.904   5.795  0.00  0.00    +0.000 HD
ENDBRANCH   3  10
ENDBRANCH   1   7
BRANCH   1  14
ATOM     14  C   UNL     1      43.673   3.834  11.369  0.00  0.00    +0.000 C 
BRANCH  14  15
ATOM     15  C   UNL     1      44.897   4.329  12.086  0.00  0.00    +0.000 A 
ATOM     16  C   UNL     1      45.549   3.529  13.013  0.00  0.00    +0.000 A 
ATOM     17  N   UNL     1      46.662   3.901  13.676  0.00  0.00    +0.000 NA
ATOM     18  C   UNL     1      47.133   5.146  13.424  0.00  0.00    +0.000 A 
ATOM     19  C   UNL     1      46.567   6.059  12.530  0.00  0.00    +0.000 A 
ATOM     20  C   UNL     1      45.421   5.609  11.854  0.00  0.00    +0.000 A 
BRANCH  19  21
ATOM     21  C   UNL     1      47.126   7.411  12.322  0.00  0.00    +0.000 A 
ATOM     22  C   UNL     1      48.441   7.617  11.872  0.00  0.00    +0.000 A 
ATOM     23  C   UNL     1      48.931   8.904  11.660  0.00  0.00    +0.000 A 
ATOM     24  C   UNL     1      48.090   9.975  11.898  0.00  0.00    +0.000 A 
ATOM     25  N   UNL     1      46.825   9.840  12.338  0.00  0.00    +0.000 NA
ATOM     26  C   UNL     1      46.381   8.574  12.540  0.00  0.00    +0.000 A 
ENDBRANCH  19  21
ENDBRANCH  14  15
ENDBRANCH   1  14
TORSDOF 5
ENDMDL
MODEL 4
REMARK VINA RESULT:    -7.493      2.191      2.802
REMARK INTER + INTRA:         -10.548
REMARK INTER:                  -9.697
REMARK INTRA:                  -0.851
REMARK UNBOUND:                -0.864
REMARK  Name = 
REMARK  5 active torsions:
REMARK  status: ('A' for Active; 'I' for Inactive)
REMARK    1  A    between atoms: C_2  and  C_4
REMARK    2  A    between atoms: C_8  and  N_9
REMARK    3  A    between atoms: N_9  and  C_10
REMARK    4  A    between atoms: C_10  and  C_11
REMARK    5  A    between atoms: C_15  and  C_16
REMARK                            x       y       z     vdW  Elec       q    Type
REMARK                         _______ _______ _______ _____ _____    ______ ____
ROOT
ATOM      1  N   UNL     1      44.352   6.710  12.715  0.00  0.00    +0.000 N 
ATOM      2  H   UNL     1      44.067   6.016  13.404  0.00  0.00    +0.000 HD
ENDROOT
BRANCH   1   7
ATOM      3  C   UNL     1      47.599   8.484  12.391  0.00  0.00    +0.000 A 
ATOM      4  C   UNL     1      48.515   7.461  12.652  0.00  0.00    +0.000 A 
ATOM      5  C   UNL     1      48.050   6.178  12.921  0.00  0.00    +0.000 A 
ATOM      6  C   UNL     1      46.675   5.923  12.953  0.00  0.00    +0.000 A 
ATOM      7  C   UNL     1      45.735   6.942  12.751  0.00  0.00    +0.000 A 
ATOM      8  C   UNL     1      46.221   8.220  12.435  0.00  0.00    +0.000 A 
BRANCH   3  10
ATOM      9  N   UNL     1      47.713  10.841  12.990  0.00  0.00    +0.000 N 
ATOM     10  C   UNL     1      48.051   9.866  12.092  0.00  0.00    +0.000 C 
ATOM     11  O   UNL     1      48.722  10.124  11.100  0.00  0.00    +0.000 OA
ATOM     12  H   UNL     1      48.111  11.756  12.831  0.00  0.00    +0.000 HD
ATOM     13  H   UNL     1      47.393  10.627  13.924  0.00  0.00    +0.000 HD
ENDBRANCH   3  10
ENDBRANCH   1   7
BRANCH   1  14
ATOM     14  C   UNL     1      43.726   6.491  11.415  0.00  0.00    +0.000 C 
BRANCH  14  15
ATOM     15  C   UNL     1      43.844   5.047  11.019  0.00  0.00    +0.000 A 
ATOM     16  C   UNL     1      43.166   4.061  11.721  0.00  0.00    +0.000 A 
ATOM     17  N   UNL     1      43.209   2.750  11.408  0.00  0.00    +0.000 NA
ATOM     18  C   UNL     1      43.993   2.401  10.359  0.00  0.00    +0.000 A 
ATOM     19  C   UNL     1      44.740   3.286   9.577  0.00  0.00    +0.000 A 
ATOM     20  C   UNL     1      44.640   4.640   9.938  0.00  0.00    +0.000 A 
BRANCH  19  21
ATOM     21  C   UNL     1      45.591   2.828   8.459  0.00  0.00    +0.000 A 
ATOM     22  C   UNL     1      46.015   3.694   7.438  0.00  0.00    +0.000 A 
ATOM     23  C   UNL     1      46.839   3.239   6.411  0.00  0.00    +0.000 A 
ATOM     24  C   UNL     1      47.234   1.914   6.423  0.00  0.00    +0.000 A 
ATOM     25  N   UNL     1      46.852   1.036   7.369  0.00  0.00    +0.000 NA
ATOM     26  C   UNL     1      46.045   1.510   8.352  0.00  0.00    +0.000 A 
ENDBRANCH  19  21
ENDBRANCH  14  15
ENDBRANCH   1  14
TORSDOF 5
ENDMDL
MODEL 5
REMARK VINA RESULT:    -7.246      1.733      2.355
REMARK INTER + INTRA:         -10.228
REMARK INTER:                  -9.590
REMARK INTRA:                  -0.637
REMARK UNBOUND:                -0.864
REMARK  Name = 
REMARK  5 active torsions:
REMARK  status: ('A' for Active; 'I' for Inactive)
REMARK    1  A    between atoms: C_2  and  C_4
REMARK    2  A    between atoms: C_8  and  N_9
REMARK    3  A    between atoms: N_9  and  C_10
REMARK    4  A    between atoms: C_10  and  C_11
REMARK    5  A    between atoms: C_15  and  C_16
REMARK                            x       y       z     vdW  Elec       q    Type
REMARK                         _______ _______ _______ _____ _____    ______ ____
ROOT
ATOM      1  N   UNL     1      46.436   5.624  12.984  0.00  0.00    +0.000 N 
ATOM      2  H   UNL     1      46.588   6.465  12.432  0.00  0.00    +0.000 HD
ENDROOT
BRANCH   1   7
ATOM      3  C   UNL     1      47.782   4.569  16.282  0.00  0.00    +0.000 A 
ATOM      4  C   UNL     1      48.723   5.568  16.543  0.00  0.00    +0.000 A 
ATOM      5  C   UNL     1      48.898   6.600  15.628  0.00  0.00    +0.000 A 
ATOM      6  C   UNL     1      48.153   6.621  14.444  0.00  0.00    +0.000 A 
ATOM      7  C   UNL     1      47.244   5.602  14.132  0.00  0.00    +0.000 A 
ATOM      8  C   UNL     1      47.046   4.593  15.087  0.00  0.00    +0.000 A 
BRANCH   3  10
ATOM      9  N   UNL     1      48.642   3.002  17.935  0.00  0.00    +0.000 N 
ATOM     10  C   UNL     1      47.557   3.452  17.235  0.00  0.00    +0.000 C 
ATOM     11  O   UNL     1      46.445   2.971  17.412  0.00  0.00    +0.000 OA
ATOM     12  H   UNL     1      48.460   2.314  18.653  0.00  0.00    +0.000 HD
ATOM     13  H   UNL     1      49.499   3.533  18.003  0.00  0.00    +0.000 HD
ENDBRANCH   3  10
ENDBRANCH   1   7
BRANCH   1  14
ATOM     14  C   UNL     1      45.021   5.305  13.135  0.00  0.00    +0.000 C 
BRANCH  14  15
ATOM     15  C   UNL     1      44.618   4.252  12.141  0.00  0.00    +0.000 A 
ATOM     16  C   UNL     1      43.554   3.401  12.402  0.00  0.00    +0.000 A 
ATOM     17  N   UNL     1      43.126   2.450  11.548  0.00  0.00    +0.000 NA
ATOM     18  C   UNL     1      43.812   2.321  10.386  0.00  0.00    +0.000 A 
ATOM     19  C   UNL     1      44.909   3.099  10.004  0.00  0.00    +0.000 A 
ATOM     20  C   UNL     1      45.297   4.086  10.925  0.00  0.00    +0.000 A 
BRANCH  19  21
ATOM     21  C   UNL     1      45.622   2.886   8.728  0.00  0.00    +0.000 A 
ATOM     22  C   UNL     1      46.126   1.630   8.352  0.00  0.00    +0.000 A 
ATOM     23  C   UNL     1      46.771   1.455   7.130  0.00  0.00    +0.000 A 
ATOM     24  C   UNL     1      46.898   2.547   6.291  0.00  0.00    +0.000 A 
ATOM     25  N   UNL     1      46.444   3.776   6.601  0.00  0.00    +0.000 NA
ATOM     26  C   UNL     1      45.826   3.913   7.802  0.00  0.00    +0.000 A 
ENDBRANCH  19  21
ENDBRANCH  14  15
ENDBRANCH   1  14
TORSDOF 5
ENDMDL
MODEL 6
REMARK VINA RESULT:    -7.232      2.366      7.234
REMARK INTER + INTRA:         -10.210
REMARK INTER:                  -9.444
REMARK INTRA:                  -0.765
REMARK UNBOUND:                -0.864
REMARK  Name = 
REMARK  5 active torsions:
REMARK  status: ('A' for Active; 'I' for Inactive)
REMARK    1  A    between atoms: C_2  and  C_4
REMARK    2  A    between atoms: C_8  and  N_9
REMARK    3  A    between atoms: N_9  and  C_10
REMARK    4  A    between atoms: C_10  and  C_11
REMARK    5  A    between atoms: C_15  and  C_16
REMARK                            x       y       z     vdW  Elec       q    Type
REMARK                         _______ _______ _______ _____ _____    ______ ____
ROOT
ATOM      1  N   UNL     1      44.551   5.295   9.852  0.00  0.00    +0.000 N 
ATOM      2  H   UNL     1      45.101   6.053   9.455  0.00  0.00    +0.000 HD
ENDROOT
BRANCH   1   7
ATOM      3  C   UNL     1      46.295   2.770   7.759  0.00  0.00    +0.000 A 
ATOM      4  C   UNL     1      45.721   1.577   8.207  0.00  0.00    +0.000 A 
ATOM      5  C   UNL     1      44.743   1.616   9.195  0.00  0.00    +0.000 A 
ATOM      6  C   UNL     1      44.357   2.840   9.752  0.00  0.00    +0.000 A 
ATOM      7  C   UNL     1      44.957   4.044   9.361  0.00  0.00    +0.000 A 
ATOM      8  C   UNL     1      45.908   3.992   8.331  0.00  0.00    +0.000 A 
BRANCH   3  10
ATOM      9  N   UNL     1      47.062   3.477   5.560  0.00  0.00    +0.000 N 
ATOM     10  C   UNL     1      47.336   2.775   6.701  0.00  0.00    +0.000 C 
ATOM     11  O   UNL     1      48.408   2.200   6.849  0.00  0.00    +0.000 OA
ATOM     12  H   UNL     1      47.815   3.559   4.891  0.00  0.00    +0.000 HD
ATOM     13  H   UNL     1      46.317   4.158   5.511  0.00  0.00    +0.000 HD
ENDBRANCH   3  10
ENDBRANCH   1   7
BRANCH   1  14
ATOM     14  C   UNL     1      44.365   5.438  11.292  0.00  0.00    +0.000 C 
BRANCH  14  15
ATOM     15  C   UNL     1      45.668   5.792  11.951  0.00  0.00    +0.000 A 
ATOM     16  C   UNL     1      46.582   6.621  11.316  0.00  0.00    +0.000 A 
ATOM     17  N   UNL     1      47.758   6.996  11.857  0.00  0.00    +0.000 NA
ATOM     18  C   UNL     1      48.053   6.495  13.081  0.00  0.00    +0.000 A 
ATOM     19  C   UNL     1      47.233   5.640  13.823  0.00  0.00    +0.000 A 
ATOM     20  C   UNL     1      46.012   5.300  13.218  0.00  0.00    +0.000 A 
BRANCH  19  21
ATOM     21  C   UNL     1      47.631   5.115  15.146  0.00  0.00    +0.000 A 
ATOM     22  C   UNL     1      47.183   3.874  15.625  0.00  0.00    +0.000 A 
ATOM     23  C   UNL     1      47.597   3.394  16.866  0.00  0.00    +0.000 A 
ATOM     24  C   UNL     1      48.465   4.167  17.613  0.00  0.00    +0.000 A 
ATOM     25  N   UNL     1      48.920   5.369  17.211  0.00  0.00    +0.000 NA
ATOM     26  C   UNL     1      48.494   5.809  16.001  0.00  0.00    +0.000 A 
ENDBRANCH  19  21
ENDBRANCH  14  15
ENDBRANCH   1  14
TORSDOF 5
ENDMDL
MODEL 7
REMARK VINA RESULT:    -6.940      2.408      6.630
REMARK INTER + INTRA:          -9.833
REMARK INTER:                  -9.257
REMARK INTRA:                  -0.575
REMARK UNBOUND:                -0.864
REMARK  Name = 
REMARK  5 active torsions:
REMARK  status: ('A' for Active; 'I' for Inactive)
REMARK    1  A    between atoms: C_2  and  C_4
REMARK    2  A    between atoms: C_8  and  N_9
REMARK    3  A    between atoms: N_9  and  C_10
REMARK    4  A    between atoms: C_10  and  C_11
REMARK    5  A    between atoms: C_15  and  C_16
REMARK                            x       y       z     vdW  Elec       q    Type
REMARK                         _______ _______ _______ _____ _____    ______ ____
ROOT
ATOM      1  N   UNL     1      44.026   3.060  10.335  0.00  0.00    +0.000 N 
ATOM      2  H   UNL     1      43.181   3.599  10.159  0.00  0.00    +0.000 HD
ENDROOT
BRANCH   1   7
ATOM      3  C   UNL     1      46.389   1.886   7.721  0.00  0.00    +0.000 A 
ATOM      4  C   UNL     1      46.794   3.089   7.135  0.00  0.00    +0.000 A 
ATOM      5  C   UNL     1      46.290   4.290   7.622  0.00  0.00    +0.000 A 
ATOM      6  C   UNL     1      45.368   4.290   8.673  0.00  0.00    +0.000 A 
ATOM      7  C   UNL     1      44.903   3.096   9.240  0.00  0.00    +0.000 A 
ATOM      8  C   UNL     1      45.455   1.895   8.769  0.00  0.00    +0.000 A 
BRANCH   3  10
ATOM      9  N   UNL     1      47.419   0.543   5.970  0.00  0.00    +0.000 N 
ATOM     10  C   UNL     1      46.907   0.581   7.238  0.00  0.00    +0.000 C 
ATOM     11  O   UNL     1      46.905  -0.416   7.950  0.00  0.00    +0.000 OA
ATOM     12  H   UNL     1      47.861  -0.322   5.689  0.00  0.00    +0.000 HD
ATOM     13  H   UNL     1      47.668   1.381   5.464  0.00  0.00    +0.000 HD
ENDBRANCH   3  10
ENDBRANCH   1   7
BRANCH   1  14
ATOM     14  C   UNL     1      44.577   3.307  11.663  0.00  0.00    +0.000 C 
BRANCH  14  15
ATOM     15  C   UNL     1      44.879   4.769  11.836  0.00  0.00    +0.000 A 
ATOM     16  C   UNL     1      43.893   5.725  11.640  0.00  0.00    +0.000 A 
ATOM     17  N   UNL     1      44.088   7.050  11.799  0.00  0.00    +0.000 NA
ATOM     18  C   UNL     1      45.339   7.444  12.140  0.00  0.00    +0.000 A 
ATOM     19  C   UNL     1      46.426   6.591  12.352  0.00  0.00    +0.000 A 
ATOM     20  C   UNL     1      46.157   5.222  12.192  0.00  0.00    +0.000 A 
BRANCH  19  21
ATOM     21  C   UNL     1      47.769   7.096  12.703  0.00  0.00    +0.000 A 
ATOM     22  C   UNL     1      48.316   6.940  13.987  0.00  0.00    +0.000 A 
ATOM     23  C   UNL     1      49.597   7.404  14.281  0.00  0.00    +0.000 A 
ATOM     24  C   UNL     1      50.320   8.018  13.275  0.00  0.00    +0.000 A 
ATOM     25  N   UNL     1      49.845   8.205  12.029  0.00  0.00    +0.000 NA
ATOM     26  C   UNL     1      48.593   7.746  11.779  0.00  0.00    +0.000 A 
ENDBRANCH  19  21
ENDBRANCH  14  15
ENDBRANCH   1  14
TORSDOF 5
ENDMDL
MODEL 8
REMARK VINA RESULT:    -6.843      2.604      3.225
REMARK INTER + INTRA:          -9.707
REMARK INTER:                  -9.080
REMARK INTRA:                  -0.628
REMARK UNBOUND:                -0.864
REMARK  Name = 
REMARK  5 active torsions:
REMARK  status: ('A' for Active; 'I' for Inactive)
REMARK    1  A    between atoms: C_2  and  C_4
REMARK    2  A    between atoms: C_8  and  N_9
REMARK    3  A    between atoms: N_9  and  C_10
REMARK    4  A    between atoms: C_10  and  C_11
REMARK    5  A    between atoms: C_15  and  C_16
REMARK                            x       y       z     vdW  Elec       q    Type
REMARK                         _______ _______ _______ _____ _____    ______ ____
ROOT
ATOM      1  N   UNL     1      45.768   6.660  12.300  0.00  0.00    +0.000 N 
ATOM      2  H   UNL     1      46.323   5.807  12.277  0.00  0.00    +0.000 HD
ENDROOT
BRANCH   1   7
ATOM      3  C   UNL     1      48.782   8.762  11.763  0.00  0.00    +0.000 A 
ATOM      4  C   UNL     1      48.254  10.053  11.852  0.00  0.00    +0.000 A 
ATOM      5  C   UNL     1      46.897  10.221  12.104  0.00  0.00    +0.000 A 
ATOM      6  C   UNL     1      46.066   9.106  12.244  0.00  0.00    +0.000 A 
ATOM      7  C   UNL     1      46.560   7.802  12.104  0.00  0.00    +0.000 A 
ATOM      8  C   UNL     1      47.939   7.648  11.896  0.00  0.00    +0.000 A 
BRANCH   3  10
ATOM      9  N   UNL     1      50.719   7.287  11.763  0.00  0.00    +0.000 N 
ATOM     10  C   UNL     1      50.227   8.536  11.503  0.00  0.00    +0.000 C 
ATOM     11  O   UNL     1      50.945   9.418  11.049  0.00  0.00    +0.000 OA
ATOM     12  H   UNL     1      51.676   7.114  11.487  0.00  0.00    +0.000 HD
ATOM     13  H   UNL     1      50.117   6.485  11.888  0.00  0.00    +0.000 HD
ENDBRANCH   3  10
ENDBRANCH   1   7
BRANCH   1  14
ATOM     14  C   UNL     1      44.534   6.541  11.531  0.00  0.00    +0.000 C 
BRANCH  14  15
ATOM     15  C   UNL     1      44.388   5.144  10.996  0.00  0.00    +0.000 A 
ATOM     16  C   UNL     1      43.488   4.256  11.567  0.00  0.00    +0.000 A 
ATOM     17  N   UNL     1      43.292   2.998  11.124  0.00  0.00    +0.000 NA
ATOM     18  C   UNL     1      44.052   2.594  10.078  0.00  0.00    +0.000 A 
ATOM     19  C   UNL     1      45.005   3.378   9.421  0.00  0.00    +0.000 A 
ATOM     20  C   UNL     1      45.152   4.686   9.913  0.00  0.00    +0.000 A 
BRANCH  19  21
ATOM     21  C   UNL     1      45.814   2.862   8.297  0.00  0.00    +0.000 A 
ATOM     22  C   UNL     1      46.263   1.532   8.247  0.00  0.00    +0.000 A 
ATOM     23  C   UNL     1      47.001   1.067   7.161  0.00  0.00    +0.000 A 
ATOM     24  C   UNL     1      47.279   1.946   6.130  0.00  0.00    +0.000 A 
ATOM     25  N   UNL     1      46.884   3.233   6.128  0.00  0.00    +0.000 NA
ATOM     26  C   UNL     1      46.171   3.655   7.203  0.00  0.00    +0.000 A 
ENDBRANCH  19  21
ENDBRANCH  14  15
ENDBRANCH   1  14
TORSDOF 5
ENDMDL
MODEL 9
REMARK VINA RESULT:    -6.485      3.035      3.991
REMARK INTER + INTRA:          -9.245
REMARK INTER:                  -8.504
REMARK INTRA:                  -0.741
REMARK UNBOUND:                -0.864
REMARK  Name = 
REMARK  5 active torsions:
REMARK  status: ('A' for Active; 'I' for Inactive)
REMARK    1  A    between atoms: C_2  and  C_4
REMARK    2  A    between atoms: C_8  and  N_9
REMARK    3  A    between atoms: N_9  and  C_10
REMARK    4  A    between atoms: C_10  and  C_11
REMARK    5  A    between atoms: C_15  and  C_16
REMARK                            x       y       z     vdW  Elec       q    Type
REMARK                         _______ _______ _______ _____ _____    ______ ____
ROOT
ATOM      1  N   UNL     1      46.915   6.791  12.633  0.00  0.00    +0.000 N 
ATOM      2  H   UNL     1      47.193   6.033  12.013  0.00  0.00    +0.000 HD
ENDROOT
BRANCH   1   7
ATOM      3  C   UNL     1      47.297  10.388  11.793  0.00  0.00    +0.000 A 
ATOM      4  C   UNL     1      48.646  10.459  11.432  0.00  0.00    +0.000 A 
ATOM      5  C   UNL     1      49.422   9.306  11.456  0.00  0.00    +0.000 A 
ATOM      6  C   UNL     1      48.861   8.091  11.861  0.00  0.00    +0.000 A 
ATOM      7  C   UNL     1      47.527   8.003  12.280  0.00  0.00    +0.000 A 
ATOM      8  C   UNL     1      46.745   9.166  12.207  0.00  0.00    +0.000 A 
BRANCH   3  10
ATOM      9  N   UNL     1      45.108  11.414  12.077  0.00  0.00    +0.000 N 
ATOM     10  C   UNL     1      46.430  11.593  11.774  0.00  0.00    +0.000 C 
ATOM     11  O   UNL     1      46.877  12.706  11.527  0.00  0.00    +0.000 OA
ATOM     12  H   UNL     1      44.548  12.252  12.162  0.00  0.00    +0.000 HD
ATOM     13  H   UNL     1      44.766  10.576  12.527  0.00  0.00    +0.000 HD
ENDBRANCH   3  10
ENDBRANCH   1   7
BRANCH   1  14
ATOM     14  C   UNL     1      45.481   6.797  12.897  0.00  0.00    +0.000 C 
BRANCH  14  15
ATOM     15  C   UNL     1      44.800   5.729  12.088  0.00  0.00    +0.000 A 
ATOM     16  C   UNL     1      43.518   5.307  12.407  0.00  0.00    +0.000 A 
ATOM     17  N   UNL     1      42.841   4.371  11.712  0.00  0.00    +0.000 NA
ATOM     18  C   UNL     1      43.485   3.805  10.663  0.00  0.00    +0.000 A 
ATOM     19  C   UNL     1      44.780   4.124  10.243  0.00  0.00    +0.000 A 
ATOM     20  C   UNL     1      45.428   5.120  10.992  0.00  0.00    +0.000 A 
BRANCH  19  21
ATOM     21  C   UNL     1      45.428   3.449   9.100  0.00  0.00    +0.000 A 
ATOM     22  C   UNL     1      45.972   4.162   8.019  0.00  0.00    +0.000 A 
ATOM     23  C   UNL     1      46.601   3.498   6.968  0.00  0.00    +0.000 A 
ATOM     24  C   UNL     1      46.682   2.119   7.016  0.00  0.00    +0.000 A 
ATOM     25  N   UNL     1      46.171   1.382   8.020  0.00  0.00    +0.000 NA
ATOM     26  C   UNL     1      45.560   2.059   9.025  0.00  0.00    +0.000 A 
ENDBRANCH  19  21
ENDBRANCH  14  15
ENDBRANCH   1  14
TORSDOF 5
ENDMDL
