MODEL 1
REMARK VINA RESULT:    -7.719      0.000      0.000
REMARK INTER + INTRA:         -11.290
REMARK INTER:                 -10.201
REMARK INTRA:                  -1.089
REMARK UNBOUND:                -1.089
REMARK  Name = 
REMARK  6 active torsions:
REMARK  status: ('A' for Active; 'I' for Inactive)
REMARK    1  A    between atoms: N_1  and  C_2
REMARK    2  A    between atoms: C_2  and  N_3
REMARK    3  A    between atoms: C_2  and  C_16
REMARK    4  A    between atoms: C_4  and  C_6
REMARK    5  A    between atoms: C_19  and  O_20
REMARK    6  A    between atoms: O_20  and  C_21
REMARK                            x       y       z     vdW  Elec       q    Type
REMARK                         _______ _______ _______ _____ _____    ______ ____
ROOT
ATOM      1  C   UNL     1      47.432   3.154  16.632  0.00  0.00    +0.000 C 
ENDROOT
BRANCH   1   2
ATOM      2  C   UNL     1      48.863   3.420  17.065  0.00  0.00    +0.000 A 
ATOM      3  C   UNL     1      49.270   4.738  17.332  0.00  0.00    +0.000 A 
ATOM      4  C   UNL     1      50.594   5.026  17.675  0.00  0.00    +0.000 A 
ATOM      5  C   UNL     1      51.522   3.993  17.813  0.00  0.00    +0.000 A 
ATOM      6  C   UNL     1      51.145   2.686  17.506  0.00  0.00    +0.000 A 
ATOM      7  C   UNL     1      49.833   2.403  17.124  0.00  0.00    +0.000 A 
BRANCH   5   8
ATOM      8  O   UNL     1      52.842   4.160  18.153  0.00  0.00    +0.000 OA
BRANCH   8   9
ATOM      9  C   UNL     1      53.293   3.850  19.417  0.00  0.00    +0.000 A 
ATOM     10  C   UNL     1      52.760   4.401  20.589  0.00  0.00    +0.000 A 
ATOM     11  C   UNL     1      53.277   4.046  21.836  0.00  0.00    +0.000 A 
ATOM     12  C   UNL     1      54.290   3.095  21.928  0.00  0.00    +0.000 A 
ATOM     13  C   UNL     1      54.785   2.492  20.771  0.00  0.00    +0.000 A 
ATOM     14  C   UNL     1      54.289   2.868  19.520  0.00  0.00    +0.000 A 
ATOM     15 CL   UNL     1      54.928   2.079  18.120  0.00  0.00    +0.000 Cl
ENDBRANCH   8   9
ENDBRANCH   5   8
ENDBRANCH   1   2
BRANCH   1  16
ATOM     16  N   UNL     1      46.941   4.150  15.720  0.00  0.00    +0.000 N 
ATOM     17  C   UNL     1      46.963   3.991  14.358  0.00  0.00    +0.000 C 
ATOM     18  O   UNL     1      47.303   2.938  13.824  0.00  0.00    +0.000 OA
ATOM     19  H   UNL     1      47.032   5.104  16.054  0.00  0.00    +0.000 HD
BRANCH  17  20
ATOM     20  C   UNL     1      46.436   5.110  13.569  0.00  0.00    +0.000 A 
ATOM     21  C   UNL     1      47.181   6.276  13.458  0.00  0.00    +0.000 A 
ATOM     22  S   UNL     1      46.450   7.461  12.476  0.00  0.00    +0.000 S 
ATOM     23  C   UNL     1      45.091   6.474  12.201  0.00  0.00    +0.000 A 
ATOM     24  N   UNL     1      44.048   6.915  11.448  0.00  0.00    +0.000 NA
ATOM     25  C   UNL     1      43.076   6.072  11.344  0.00  0.00    +0.000 A 
ATOM     26  N   UNL     1      43.056   4.824  11.914  0.00  0.00    +0.000 N 
ATOM     27  C   UNL     1      44.101   4.326  12.652  0.00  0.00    +0.000 A 
ATOM     28  O   UNL     1      44.090   3.185  13.106  0.00  0.00    +0.000 OA
ATOM     29  C   UNL     1      45.210   5.245  12.824  0.00  0.00    +0.000 A 
ATOM     30  H   UNL     1      42.268   4.208  11.776  0.00  0.00    +0.000 HD
ENDBRANCH  17  20
ENDBRANCH   1  16
BRANCH   1  31
ATOM     31  N   UNL     1      46.570   3.190  17.791  0.00  0.00    +0.000 NA
ATOM     32  H   UNL     1      45.868   2.459  17.652  0.00  0.00    +0.000 HD
ATOM     33  H   UNL     1      46.056   4.067  17.761  0.00  0.00    +0.000 HD
ENDBRANCH   1  31
TORSDOF 6
ENDMDL
MODEL 2
REMARK VINA RESULT:    -7.651      4.503      9.490
REMARK INTER + INTRA:         -11.199
REMARK INTER:                 -10.034
REMARK INTRA:                  -1.166
REMARK UNBOUND:                -1.089
REMARK  Name = 
REMARK  6 active torsions:
REMARK  status: ('A' for Active; 'I' for Inactive)
REMARK    1  A    between atoms: N_1  and  C_2
REMARK    2  A    between atoms: C_2  and  N_3
REMARK    3  A    between atoms: C_2  and  C_16
REMARK    4  A    between atoms: C_4  and  C_6
REMARK    5  A    between atoms: C_19  and  O_20
REMARK    6  A    between atoms: O_20  and  C_21
REMARK                            x       y       z     vdW  Elec       q    Type
REMARK                         _______ _______ _______ _____ _____    ______ ____
ROOT
ATOM      1  C   UNL     1      47.910   8.240  13.810  0.00  0.00    +0.000 C 
ENDROOT
BRANCH   1   2
ATOM      2  C   UNL     1      46.930   7.460  12.951  0.00  0.00    +0.000 A 
ATOM      3  C   UNL     1      45.889   8.142  12.298  0.00  0.00    +0.000 A 
ATOM      4  C   UNL     1      44.935   7.448  11.548  0.00  0.00    +0.000 A 
ATOM      5  C   UNL     1      45.037   6.066  11.392  0.00  0.00    +0.000 A 
ATOM      6  C   UNL     1      46.036   5.370  12.072  0.00  0.00    +0.000 A 
ATOM      7  C   UNL     1      46.965   6.057  12.854  0.00  0.00    +0.000 A 
BRANCH   5   8
ATOM      8  O   UNL     1      44.162   5.288  10.672  0.00  0.00    +0.000 OA
BRANCH   8   9
ATOM      9  C   UNL     1      44.622   4.335   9.790  0.00  0.00    +0.000 A 
ATOM     10  C   UNL     1      45.451   4.624   8.698  0.00  0.00    +0.000 A 
ATOM     11  C   UNL     1      45.868   3.606   7.839  0.00  0.00    +0.000 A 
ATOM     12  C   UNL     1      45.511   2.284   8.096  0.00  0.00    +0.000 A 
ATOM     13  C   UNL     1      44.739   1.977   9.217  0.00  0.00    +0.000 A 
ATOM     14  C   UNL     1      44.296   2.999  10.061  0.00  0.00    +0.000 A 
ATOM     15 CL   UNL     1      43.354   2.561  11.443  0.00  0.00    +0.000 Cl
ENDBRANCH   8   9
ENDBRANCH   5   8
ENDBRANCH   1   2
BRANCH   1  16
ATOM     16  N   UNL     1      48.140   7.616  15.082  0.00  0.00    +0.000 N 
ATOM     17  C   UNL     1      49.367   7.139  15.469  0.00  0.00    +0.000 C 
ATOM     18  O   UNL     1      50.381   7.311  14.797  0.00  0.00    +0.000 OA
ATOM     19  H   UNL     1      47.337   7.123  15.459  0.00  0.00    +0.000 HD
BRANCH  17  20
ATOM     20  C   UNL     1      49.428   6.516  16.796  0.00  0.00    +0.000 A 
ATOM     21  C   UNL     1      50.113   7.157  17.819  0.00  0.00    +0.000 A 
ATOM     22  S   UNL     1      50.055   6.325  19.305  0.00  0.00    +0.000 S 
ATOM     23  C   UNL     1      49.150   5.056  18.621  0.00  0.00    +0.000 A 
ATOM     24  N   UNL     1      48.787   3.978  19.365  0.00  0.00    +0.000 NA
ATOM     25  C   UNL     1      48.125   3.082  18.712  0.00  0.00    +0.000 A 
ATOM     26  N   UNL     1      47.784   3.171  17.386  0.00  0.00    +0.000 N 
ATOM     27  C   UNL     1      48.100   4.256  16.607  0.00  0.00    +0.000 A 
ATOM     28  O   UNL     1      47.736   4.344  15.438  0.00  0.00    +0.000 OA
ATOM     29  C   UNL     1      48.869   5.282  17.286  0.00  0.00    +0.000 A 
ATOM     30  H   UNL     1      47.248   2.438  16.942  0.00  0.00    +0.000 HD
ENDBRANCH  17  20
ENDBRANCH   1  16
BRANCH   1  31
ATOM     31  N   UNL     1      47.364   9.551  14.082  0.00  0.00    +0.000 NA
ATOM     32  H   UNL     1      47.529  10.111  13.242  0.00  0.00    +0.000 HD
ATOM     33  H   UNL     1      47.938   9.974  14.806  0.00  0.00    +0.000 HD
ENDBRANCH   1  31
TORSDOF 6
ENDMDL
MODEL 3
REMARK VINA RESULT:    -7.475      4.716      9.728
REMARK INTER + INTRA:         -10.967
REMARK INTER:                  -9.718
REMARK INTRA:                  -1.249
REMARK UNBOUND:                -1.089
REMARK  Name = 
REMARK  6 active torsions:
REMARK  status: ('A' for Active; 'I' for Inactive)
REMARK    1  A    between atoms: N_1  and  C_2
REMARK    2  A    between atoms: C_2  and  N_3
REMARK    3  A    between atoms: C_2  and  C_16
REMARK    4  A    between atoms: C_4  and  C_6
REMARK    5  A    between atoms: C_19  and  O_20
REMARK    6  A    between atoms: O_20  and  C_21
REMARK                            x       y       z     vdW  Elec       q    Type
REMARK                         _______ _______ _______ _____ _____    ______ ____
ROOT
ATOM      1  C   UNL     1      48.073   7.797  14.276  0.00  0.00    +0.000 C 
ENDROOT
BRANCH   1   2
ATOM      2  C   UNL     1      47.088   7.148  13.319  0.00  0.00    +0.000 A 
ATOM      3  C   UNL     1      46.283   7.959  12.502  0.00  0.00    +0.000 A 
ATOM      4  C   UNL     1      45.324   7.397  11.653  0.00  0.00    +0.000 A 
ATOM      5  C   UNL     1      45.193   6.011  11.566  0.00  0.00    +0.000 A 
ATOM      6  C   UNL     1      45.952   5.195  12.405  0.00  0.00    +0.000 A 
ATOM      7  C   UNL     1      46.881   5.758  13.282  0.00  0.00    +0.000 A 
BRANCH   5   8
ATOM      8  O   UNL     1      44.293   5.354  10.762  0.00  0.00    +0.000 OA
BRANCH   8   9
ATOM      9  C   UNL     1      44.712   4.402   9.859  0.00  0.00    +0.000 A 
ATOM     10  C   UNL     1      45.543   4.681   8.766  0.00  0.00    +0.000 A 
ATOM     11  C   UNL     1      45.918   3.665   7.886  0.00  0.00    +0.000 A 
ATOM     12  C   UNL     1      45.516   2.352   8.121  0.00  0.00    +0.000 A 
ATOM     13  C   UNL     1      44.742   2.053   9.243  0.00  0.00    +0.000 A 
ATOM     14  C   UNL     1      44.341   3.074  10.109  0.00  0.00    +0.000 A 
ATOM     15 CL   UNL     1      43.394   2.644  11.490  0.00  0.00    +0.000 Cl
ENDBRANCH   8   9
ENDBRANCH   5   8
ENDBRANCH   1   2
BRANCH   1  16
ATOM     16  N   UNL     1      48.019   7.224  15.591  0.00  0.00    +0.000 N 
ATOM     17  C   UNL     1      49.080   6.573  16.167  0.00  0.00    +0.000 C 
ATOM     18  O   UNL     1      50.189   6.530  15.641  0.00  0.00    +0.000 OA
ATOM     19  H   UNL     1      47.099   6.897  15.867  0.00  0.00    +0.000 HD
BRANCH  17  20
ATOM     20  C   UNL     1      48.853   6.033  17.512  0.00  0.00    +0.000 A 
ATOM     21  C   UNL     1      49.114   4.692  17.761  0.00  0.00    +0.000 A 
ATOM     22  S   UNL     1      48.840   4.234  19.379  0.00  0.00    +0.000 S 
ATOM     23  C   UNL     1      48.321   5.801  19.793  0.00  0.00    +0.000 A 
ATOM     24  N   UNL     1      47.900   6.087  21.054  0.00  0.00    +0.000 NA
ATOM     25  C   UNL     1      47.512   7.307  21.219  0.00  0.00    +0.000 A 
ATOM     26  N   UNL     1      47.517   8.270  20.242  0.00  0.00    +0.000 N 
ATOM     27  C   UNL     1      47.964   8.034  18.965  0.00  0.00    +0.000 A 
ATOM     28  O   UNL     1      48.016   8.923  18.120  0.00  0.00    +0.000 OA
ATOM     29  C   UNL     1      48.387   6.669  18.718  0.00  0.00    +0.000 A 
ATOM     30  H   UNL     1      47.215   9.213  20.446  0.00  0.00    +0.000 HD
ENDBRANCH  17  20
ENDBRANCH   1  16
BRANCH   1  31
ATOM     31  N   UNL     1      47.745   9.198  14.418  0.00  0.00    +0.000 NA
ATOM     32  H   UNL     1      46.957   9.374  13.790  0.00  0.00    +0.000 HD
ATOM     33  H   UNL     1      48.520   9.732  14.035  0.00  0.00    +0.000 HD
ENDBRANCH   1  31
TORSDOF 6
ENDMDL
MODEL 4
REMARK VINA RESULT:    -7.263      6.595     11.307
REMARK INTER + INTRA:         -10.688
REMARK INTER:                  -9.551
REMARK INTRA:                  -1.136
REMARK UNBOUND:                -1.089
REMARK  Name = 
REMARK  6 active torsions:
REMARK  status: ('A' for Active; 'I' for Inactive)
REMARK    1  A    between atoms: N_1  and  C_2
REMARK    2  A    between atoms: C_2  and  N_3
REMARK    3  A    between atoms: C_2  and  C_16
REMARK    4  A    between atoms: C_4  and  C_6
REMARK    5  A    between atoms: C_19  and  O_20
REMARK    6  A    between atoms: O_20  and  C_21
REMARK                            x       y       z     vdW  Elec       q    Type
REMARK                         _______ _______ _______ _____ _____    ______ ____
ROOT
ATOM      1  C   UNL     1      44.702   4.039   9.396  0.00  0.00    +0.000 C 
ENDROOT
BRANCH   1   2
ATOM      2  C   UNL     1      45.428   3.114   8.435  0.00  0.00    +0.000 A 
ATOM      3  C   UNL     1      45.524   1.745   8.735  0.00  0.00    +0.000 A 
ATOM      4  C   UNL     1      46.235   0.874   7.904  0.00  0.00    +0.000 A 
ATOM      5  C   UNL     1      46.817   1.350   6.728  0.00  0.00    +0.000 A 
ATOM      6  C   UNL     1      46.770   2.713   6.440  0.00  0.00    +0.000 A 
ATOM      7  C   UNL     1      46.094   3.589   7.291  0.00  0.00    +0.000 A 
BRANCH   5   8
ATOM      8  O   UNL     1      47.529   0.584   5.837  0.00  0.00    +0.000 OA
BRANCH   8   9
ATOM      9  C   UNL     1      46.969   0.180   4.644  0.00  0.00    +0.000 A 
ATOM     10  C   UNL     1      46.753   1.038   3.558  0.00  0.00    +0.000 A 
ATOM     11  C   UNL     1      46.171   0.558   2.384  0.00  0.00    +0.000 A 
ATOM     12  C   UNL     1      45.853  -0.793   2.262  0.00  0.00    +0.000 A 
ATOM     13  C   UNL     1      46.123  -1.668   3.314  0.00  0.00    +0.000 A 
ATOM     14  C   UNL     1      46.679  -1.184   4.501  0.00  0.00    +0.000 A 
ATOM     15 CL   UNL     1      47.005  -2.315   5.768  0.00  0.00    +0.000 Cl
ENDBRANCH   8   9
ENDBRANCH   5   8
ENDBRANCH   1   2
BRANCH   1  16
ATOM     16  N   UNL     1      45.566   4.553  10.421  0.00  0.00    +0.000 N 
ATOM     17  C   UNL     1      45.381   5.777  11.010  0.00  0.00    +0.000 C 
ATOM     18  O   UNL     1      44.398   6.477  10.779  0.00  0.00    +0.000 OA
ATOM     19  H   UNL     1      46.528   4.236  10.355  0.00  0.00    +0.000 HD
BRANCH  17  20
ATOM     20  C   UNL     1      46.363   6.158  12.031  0.00  0.00    +0.000 A 
ATOM     21  C   UNL     1      47.079   7.338  11.883  0.00  0.00    +0.000 A 
ATOM     22  S   UNL     1      48.146   7.654  13.174  0.00  0.00    +0.000 S 
ATOM     23  C   UNL     1      47.721   6.202  13.953  0.00  0.00    +0.000 A 
ATOM     24  N   UNL     1      48.312   5.839  15.123  0.00  0.00    +0.000 NA
ATOM     25  C   UNL     1      47.911   4.704  15.588  0.00  0.00    +0.000 A 
ATOM     26  N   UNL     1      46.967   3.903  14.998  0.00  0.00    +0.000 N 
ATOM     27  C   UNL     1      46.322   4.246  13.835  0.00  0.00    +0.000 A 
ATOM     28  O   UNL     1      45.438   3.545  13.351  0.00  0.00    +0.000 OA
ATOM     29  C   UNL     1      46.755   5.503  13.254  0.00  0.00    +0.000 A 
ATOM     30  H   UNL     1      46.688   3.033  15.427  0.00  0.00    +0.000 HD
ENDBRANCH  17  20
ENDBRANCH   1  16
BRANCH   1  31
ATOM     31  N   UNL     1      43.653   3.302  10.065  0.00  0.00    +0.000 NA
ATOM     32  H   UNL     1      43.916   3.260  11.052  0.00  0.00    +0.000 HD
ATOM     33  H   UNL     1      43.697   2.343   9.732  0.00  0.00    +0.000 HD
ENDBRANCH   1  31
TORSDOF 6
ENDMDL
MODEL 5
REMARK VINA RESULT:    -7.050      2.566      3.689
REMARK INTER + INTRA:         -10.406
REMARK INTER:                  -8.968
REMARK INTRA:                  -1.438
REMARK UNBOUND:                -1.089
REMARK  Name = 
REMARK  6 active torsions:
REMARK  status: ('A' for Active; 'I' for Inactive)
REMARK    1  A    between atoms: N_1  and  C_2
REMARK    2  A    between atoms: C_2  and  N_3
REMARK    3  A    between atoms: C_2  and  C_16
REMARK    4  A    between atoms: C_4  and  C_6
REMARK    5  A    between atoms: C_19  and  O_20
REMARK    6  A    between atoms: O_20  and  C_21
REMARK                            x       y       z     vdW  Elec       q    Type
REMARK                         _______ _______ _______ _____ _____    ______ ____
ROOT
ATOM      1  C   UNL     1      47.996   7.228  13.832  0.00  0.00    +0.000 C 
ENDROOT
BRANCH   1   2
ATOM      2  C   UNL     1      48.551   6.509  15.049  0.00  0.00    +0.000 A 
ATOM      3  C   UNL     1      49.802   6.889  15.564  0.00  0.00    +0.000 A 
ATOM      4  C   UNL     1      50.370   6.210  16.647  0.00  0.00    +0.000 A 
ATOM      5  C   UNL     1      49.671   5.175  17.268  0.00  0.00    +0.000 A 
ATOM      6  C   UNL     1      48.451   4.756  16.740  0.00  0.00    +0.000 A 
ATOM      7  C   UNL     1      47.902   5.408  15.634  0.00  0.00    +0.000 A 
BRANCH   5   8
ATOM      8  O   UNL     1      50.129   4.449  18.340  0.00  0.00    +0.000 OA
BRANCH   8   9
ATOM      9  C   UNL     1      51.070   3.456  18.174  0.00  0.00    +0.000 A 
ATOM     10  C   UNL     1      50.818   2.252  17.503  0.00  0.00    +0.000 A 
ATOM     11  C   UNL     1      51.820   1.287  17.384  0.00  0.00    +0.000 A 
ATOM     12  C   UNL     1      53.097   1.539  17.880  0.00  0.00    +0.000 A 
ATOM     13  C   UNL     1      53.376   2.761  18.493  0.00  0.00    +0.000 A 
ATOM     14  C   UNL     1      52.367   3.716  18.640  0.00  0.00    +0.000 A 
ATOM     15 CL   UNL     1      52.771   5.218  19.395  0.00  0.00    +0.000 Cl
ENDBRANCH   8   9
ENDBRANCH   5   8
ENDBRANCH   1   2
BRANCH   1  16
ATOM     16  N   UNL     1      47.290   6.344  12.948  0.00  0.00    +0.000 N 
ATOM     17  C   UNL     1      46.399   6.786  12.004  0.00  0.00    +0.000 C 
ATOM     18  O   UNL     1      46.223   7.980  11.774  0.00  0.00    +0.000 OA
ATOM     19  H   UNL     1      47.100   5.426  13.338  0.00  0.00    +0.000 HD
BRANCH  17  20
ATOM     20  C   UNL     1      45.752   5.750  11.192  0.00  0.00    +0.000 A 
ATOM     21  C   UNL     1      45.901   5.773   9.812  0.00  0.00    +0.000 A 
ATOM     22  S   UNL     1      45.124   4.480   9.020  0.00  0.00    +0.000 S 
ATOM     23  C   UNL     1      44.523   3.868  10.490  0.00  0.00    +0.000 A 
ATOM     24  N   UNL     1      43.731   2.764  10.516  0.00  0.00    +0.000 NA
ATOM     25  C   UNL     1      43.328   2.427  11.695  0.00  0.00    +0.000 A 
ATOM     26  N   UNL     1      43.655   3.087  12.853  0.00  0.00    +0.000 N 
ATOM     27  C   UNL     1      44.479   4.185  12.877  0.00  0.00    +0.000 A 
ATOM     28  O   UNL     1      44.807   4.728  13.928  0.00  0.00    +0.000 OA
ATOM     29  C   UNL     1      44.938   4.623  11.573  0.00  0.00    +0.000 A 
ATOM     30  H   UNL     1      43.318   2.757  13.746  0.00  0.00    +0.000 HD
ENDBRANCH  17  20
ENDBRANCH   1  16
BRANCH   1  31
ATOM     31  N   UNL     1      49.090   7.790  13.072  0.00  0.00    +0.000 NA
ATOM     32  H   UNL     1      49.242   7.163  12.279  0.00  0.00    +0.000 HD
ATOM     33  H   UNL     1      49.927   7.712  13.643  0.00  0.00    +0.000 HD
ENDBRANCH   1  31
TORSDOF 6
ENDMDL
MODEL 6
REMARK VINA RESULT:    -6.982      4.396      5.831
REMARK INTER + INTRA:         -10.316
REMARK INTER:                  -8.938
REMARK INTRA:                  -1.378
REMARK UNBOUND:                -1.089
REMARK  Name = 
REMARK  6 active torsions:
REMARK  status: ('A' for Active; 'I' for Inactive)
REMARK    1  A    between atoms: N_1  and  C_2
REMARK    2  A    between atoms: C_2  and  N_3
REMARK    3  A    between atoms: C_2  and  C_16
REMARK    4  A    between atoms: C_4  and  C_6
REMARK    5  A    between atoms: C_19  and  O_20
REMARK    6  A    between atoms: O_20  and  C_21
REMARK                            x       y       z     vdW  Elec       q    Type
REMARK                         _______ _______ _______ _____ _____    ______ ____
ROOT
ATOM      1  C   UNL     1      47.605   4.225  16.355  0.00  0.00    +0.000 C 
ENDROOT
BRANCH   1   2
ATOM      2  C   UNL     1      47.913   5.357  17.320  0.00  0.00    +0.000 A 
ATOM      3  C   UNL     1      47.227   5.427  18.543  0.00  0.00    +0.000 A 
ATOM      4  C   UNL     1      47.442   6.488  19.429  0.00  0.00    +0.000 A 
ATOM      5  C   UNL     1      48.389   7.468  19.130  0.00  0.00    +0.000 A 
ATOM      6  C   UNL     1      49.043   7.438  17.899  0.00  0.00    +0.000 A 
ATOM      7  C   UNL     1      48.799   6.400  16.997  0.00  0.00    +0.000 A 
BRANCH   5   8
ATOM      8  O   UNL     1      48.685   8.545  19.929  0.00  0.00    +0.000 OA
BRANCH   8   9
ATOM      9  C   UNL     1      47.853   9.642  19.977  0.00  0.00    +0.000 A 
ATOM     10  C   UNL     1      47.799  10.621  18.975  0.00  0.00    +0.000 A 
ATOM     11  C   UNL     1      46.937  11.712  19.099  0.00  0.00    +0.000 A 
ATOM     12  C   UNL     1      46.081  11.806  20.194  0.00  0.00    +0.000 A 
ATOM     13  C   UNL     1      46.081  10.804  21.165  0.00  0.00    +0.000 A 
ATOM     14  C   UNL     1      46.964   9.726  21.057  0.00  0.00    +0.000 A 
ATOM     15 CL   UNL     1      46.913   8.507  22.282  0.00  0.00    +0.000 Cl
ENDBRANCH   8   9
ENDBRANCH   5   8
ENDBRANCH   1   2
BRANCH   1  16
ATOM     16  N   UNL     1      46.687   4.618  15.323  0.00  0.00    +0.000 N 
ATOM     17  C   UNL     1      46.669   4.040  14.080  0.00  0.00    +0.000 C 
ATOM     18  O   UNL     1      47.365   3.069  13.796  0.00  0.00    +0.000 OA
ATOM     19  H   UNL     1      46.409   5.593  15.360  0.00  0.00    +0.000 HD
BRANCH  17  20
ATOM     20  C   UNL     1      45.677   4.569  13.137  0.00  0.00    +0.000 A 
ATOM     21  C   UNL     1      44.758   3.704  12.558  0.00  0.00    +0.000 A 
ATOM     22  S   UNL     1      43.651   4.481  11.521  0.00  0.00    +0.000 S 
ATOM     23  C   UNL     1      44.390   5.993  11.774  0.00  0.00    +0.000 A 
ATOM     24  N   UNL     1      43.940   7.106  11.136  0.00  0.00    +0.000 NA
ATOM     25  C   UNL     1      44.609   8.177  11.403  0.00  0.00    +0.000 A 
ATOM     26  N   UNL     1      45.680   8.239  12.258  0.00  0.00    +0.000 N 
ATOM     27  C   UNL     1      46.147   7.148  12.948  0.00  0.00    +0.000 A 
ATOM     28  O   UNL     1      47.070   7.234  13.753  0.00  0.00    +0.000 OA
ATOM     29  C   UNL     1      45.446   5.910  12.664  0.00  0.00    +0.000 A 
ATOM     30  H   UNL     1      46.148   9.117  12.435  0.00  0.00    +0.000 HD
ENDBRANCH  17  20
ENDBRANCH   1  16
BRANCH   1  31
ATOM     31  N   UNL     1      46.980   3.141  17.079  0.00  0.00    +0.000 NA
ATOM     32  H   UNL     1      46.626   3.543  17.950  0.00  0.00    +0.000 HD
ATOM     33  H   UNL     1      47.716   2.497  17.357  0.00  0.00    +0.000 HD
ENDBRANCH   1  31
TORSDOF 6
ENDMDL
MODEL 7
REMARK VINA RESULT:    -6.901      5.161      6.550
REMARK INTER + INTRA:         -10.209
REMARK INTER:                  -9.067
REMARK INTRA:                  -1.142
REMARK UNBOUND:                -1.089
REMARK  Name = 
REMARK  6 active torsions:
REMARK  status: ('A' for Active; 'I' for Inactive)
REMARK    1  A    between atoms: N_1  and  C_2
REMARK    2  A    between atoms: C_2  and  N_3
REMARK    3  A    between atoms: C_2  and  C_16
REMARK    4  A    between atoms: C_4  and  C_6
REMARK    5  A    between atoms: C_19  and  O_20
REMARK    6  A    between atoms: O_20  and  C_21
REMARK                            x       y       z     vdW  Elec       q    Type
REMARK                         _______ _______ _______ _____ _____    ______ ____
ROOT
ATOM      1  C   UNL     1      48.843   6.073  15.912  0.00  0.00    +0.000 C 
ENDROOT
BRANCH   1   2
ATOM      2  C   UNL     1      48.737   7.241  16.877  0.00  0.00    +0.000 A 
ATOM      3  C   UNL     1      48.822   7.005  18.259  0.00  0.00    +0.000 A 
ATOM      4  C   UNL     1      48.670   8.048  19.178  0.00  0.00    +0.000 A 
ATOM      5  C   UNL     1      48.485   9.356  18.727  0.00  0.00    +0.000 A 
ATOM      6  C   UNL     1      48.352   9.599  17.360  0.00  0.00    +0.000 A 
ATOM      7  C   UNL     1      48.464   8.552  16.445  0.00  0.00    +0.000 A 
BRANCH   5   8
ATOM      8  O   UNL     1      48.333  10.454  19.538  0.00  0.00    +0.000 OA
BRANCH   8   9
ATOM      9  C   UNL     1      47.139  10.701  20.180  0.00  0.00    +0.000 A 
ATOM     10  C   UNL     1      46.716  10.013  21.325  0.00  0.00    +0.000 A 
ATOM     11  C   UNL     1      45.487  10.312  21.915  0.00  0.00    +0.000 A 
ATOM     12  C   UNL     1      44.696  11.337  21.402  0.00  0.00    +0.000 A 
ATOM     13  C   UNL     1      45.137  12.071  20.301  0.00  0.00    +0.000 A 
ATOM     14  C   UNL     1      46.354  11.755  19.692  0.00  0.00    +0.000 A 
ATOM     15 CL   UNL     1      46.858  12.705  18.338  0.00  0.00    +0.000 Cl
ENDBRANCH   8   9
ENDBRANCH   5   8
ENDBRANCH   1   2
BRANCH   1  16
ATOM     16  N   UNL     1      47.717   5.992  15.024  0.00  0.00    +0.000 N 
ATOM     17  C   UNL     1      47.816   6.202  13.672  0.00  0.00    +0.000 C 
ATOM     18  O   UNL     1      48.895   6.367  13.109  0.00  0.00    +0.000 OA
ATOM     19  H   UNL     1      46.831   6.250  15.446  0.00  0.00    +0.000 HD
BRANCH  17  20
ATOM     20  C   UNL     1      46.567   6.096  12.909  0.00  0.00    +0.000 A 
ATOM     21  C   UNL     1      46.012   7.237  12.348  0.00  0.00    +0.000 A 
ATOM     22  S   UNL     1      44.588   6.937  11.461  0.00  0.00    +0.000 S 
ATOM     23  C   UNL     1      44.640   5.277  11.834  0.00  0.00    +0.000 A 
ATOM     24  N   UNL     1      43.667   4.433  11.399  0.00  0.00    +0.000 NA
ATOM     25  C   UNL     1      43.820   3.208  11.777  0.00  0.00    +0.000 A 
ATOM     26  N   UNL     1      44.864   2.748  12.540  0.00  0.00    +0.000 N 
ATOM     27  C   UNL     1      45.884   3.558  12.972  0.00  0.00    +0.000 A 
ATOM     28  O   UNL     1      46.840   3.118  13.605  0.00  0.00    +0.000 OA
ATOM     29  C   UNL     1      45.746   4.952  12.598  0.00  0.00    +0.000 A 
ATOM     30  H   UNL     1      44.930   1.770  12.785  0.00  0.00    +0.000 HD
ENDBRANCH  17  20
ENDBRANCH   1  16
BRANCH   1  31
ATOM     31  N   UNL     1      48.871   4.838  16.663  0.00  0.00    +0.000 NA
ATOM     32  H   UNL     1      47.962   4.392  16.517  0.00  0.00    +0.000 HD
ATOM     33  H   UNL     1      48.897   5.083  17.649  0.00  0.00    +0.000 HD
ENDBRANCH   1  31
TORSDOF 6
ENDMDL
MODEL 8
REMARK VINA RESULT:    -6.511      4.463      5.585
REMARK INTER + INTRA:          -9.693
REMARK INTER:                  -8.547
REMARK INTRA:                  -1.146
REMARK UNBOUND:                -1.089
REMARK  Name = 
REMARK  6 active torsions:
REMARK  status: ('A' for Active; 'I' for Inactive)
REMARK    1  A    between atoms: N_1  and  C_2
REMARK    2  A    between atoms: C_2  and  N_3
REMARK    3  A    between atoms: C_2  and  C_16
REMARK    4  A    between atoms: C_4  and  C_6
REMARK    5  A    between atoms: C_19  and  O_20
REMARK    6  A    between atoms: O_20  and  C_21
REMARK                            x       y       z     vdW  Elec       q    Type
REMARK                         _______ _______ _______ _____ _____    ______ ____
ROOT
ATOM      1  C   UNL     1      47.746   7.750  12.242  0.00  0.00    +0.000 C 
ENDROOT
BRANCH   1   2
ATOM      2  C   UNL     1      48.197   7.833  13.690  0.00  0.00    +0.000 A 
ATOM      3  C   UNL     1      47.797   8.926  14.476  0.00  0.00    +0.000 A 
ATOM      4  C   UNL     1      48.242   9.066  15.794  0.00  0.00    +0.000 A 
ATOM      5  C   UNL     1      49.050   8.083  16.367  0.00  0.00    +0.000 A 
ATOM      6  C   UNL     1      49.493   7.017  15.585  0.00  0.00    +0.000 A 
ATOM      7  C   UNL     1      49.082   6.899  14.257  0.00  0.00    +0.000 A 
BRANCH   5   8
ATOM      8  O   UNL     1      49.536   8.114  17.652  0.00  0.00    +0.000 OA
BRANCH   8   9
ATOM      9  C   UNL     1      49.008   7.298  18.628  0.00  0.00    +0.000 A 
ATOM     10  C   UNL     1      49.464   5.998  18.884  0.00  0.00    +0.000 A 
ATOM     11  C   UNL     1      48.873   5.226  19.885  0.00  0.00    +0.000 A 
ATOM     12  C   UNL     1      47.861   5.764  20.677  0.00  0.00    +0.000 A 
ATOM     13  C   UNL     1      47.443   7.079  20.473  0.00  0.00    +0.000 A 
ATOM     14  C   UNL     1      48.014   7.844  19.453  0.00  0.00    +0.000 A 
ATOM     15 CL   UNL     1      47.468   9.472  19.252  0.00  0.00    +0.000 Cl
ENDBRANCH   8   9
ENDBRANCH   5   8
ENDBRANCH   1   2
BRANCH   1  16
ATOM     16  N   UNL     1      46.987   6.562  11.971  0.00  0.00    +0.000 N 
ATOM     17  C   UNL     1      45.618   6.517  12.044  0.00  0.00    +0.000 C 
ATOM     18  O   UNL     1      44.937   7.521  12.239  0.00  0.00    +0.000 OA
ATOM     19  H   UNL     1      47.469   5.697  12.196  0.00  0.00    +0.000 HD
BRANCH  17  20
ATOM     20  C   UNL     1      44.998   5.221  11.751  0.00  0.00    +0.000 A 
ATOM     21  C   UNL     1      44.295   4.560  12.750  0.00  0.00    +0.000 A 
ATOM     22  S   UNL     1      43.602   3.090  12.237  0.00  0.00    +0.000 S 
ATOM     23  C   UNL     1      44.255   3.264  10.675  0.00  0.00    +0.000 A 
ATOM     24  N   UNL     1      44.061   2.308   9.727  0.00  0.00    +0.000 NA
ATOM     25  C   UNL     1      44.633   2.559   8.597  0.00  0.00    +0.000 A 
ATOM     26  N   UNL     1      45.371   3.683   8.325  0.00  0.00    +0.000 N 
ATOM     27  C   UNL     1      45.564   4.688   9.240  0.00  0.00    +0.000 A 
ATOM     28  O   UNL     1      46.178   5.713   8.960  0.00  0.00    +0.000 OA
ATOM     29  C   UNL     1      44.964   4.443  10.538  0.00  0.00    +0.000 A 
ATOM     30  H   UNL     1      45.777   3.824   7.410  0.00  0.00    +0.000 HD
ENDBRANCH  17  20
ENDBRANCH   1  16
BRANCH   1  31
ATOM     31  N   UNL     1      48.909   7.706  11.384  0.00  0.00    +0.000 NA
ATOM     32  H   UNL     1      48.594   7.998  10.456  0.00  0.00    +0.000 HD
ATOM     33  H   UNL     1      49.175   6.730  11.284  0.00  0.00    +0.000 HD
ENDBRANCH   1  31
TORSDOF 6
ENDMDL
