MODEL 1
REMARK VINA RESULT:    -8.038      0.000      0.000
REMARK INTER + INTRA:         -12.448
REMARK INTER:                 -11.328
REMARK INTRA:                  -1.120
REMARK UNBOUND:                -1.120
REMARK  Name = 
REMARK  7 active torsions:
REMARK  status: ('A' for Active; 'I' for Inactive)
REMARK    1  A    between atoms: C_2  and  C_20
REMARK    2  A    between atoms: N_3  and  C_4
REMARK    3  A    between atoms: C_4  and  C_5
REMARK    4  A    between atoms: C_8  and  C_9
REMARK    5  A    between atoms: C_9  and  C_10
REMARK    6  A    between atoms: C_10  and  C_11
REMARK    7  A    between atoms: C_11  and  C_12
REMARK                            x       y       z     vdW  Elec       q    Type
REMARK                         _______ _______ _______ _____ _____    ______ ____
ROOT
ATOM      1  C   UNL     1      45.271   7.185  11.480  0.00  0.00    +0.000 C 
ENDROOT
BRANCH   1   2
ATOM      2  C   UNL     1      46.480   7.424  12.346  0.00  0.00    +0.000 A 
ATOM      3  C   UNL     1      46.516   8.480  13.267  0.00  0.00    +0.000 A 
ATOM      4  C   UNL     1      47.655   8.704  14.054  0.00  0.00    +0.000 A 
ATOM      5  C   UNL     1      48.773   7.873  13.941  0.00  0.00    +0.000 A 
ATOM      6  C   UNL     1      48.748   6.839  12.998  0.00  0.00    +0.000 A 
ATOM      7  C   UNL     1      47.615   6.617  12.206  0.00  0.00    +0.000 A 
BRANCH   5   8
ATOM      8  C   UNL     1      49.993   8.078  14.806  0.00  0.00    +0.000 C 
BRANCH   8   9
ATOM      9  C   UNL     1      50.241   6.959  15.825  0.00  0.00    +0.000 C 
BRANCH   9  10
ATOM     10  C   UNL     1      49.139   6.864  16.885  0.00  0.00    +0.000 C 
BRANCH  10  11
ATOM     11  C   UNL     1      48.665   5.446  17.036  0.00  0.00    +0.000 A 
ATOM     12  N   UNL     1      48.053   4.870  15.981  0.00  0.00    +0.000 NA
ATOM     13  C   UNL     1      47.632   3.607  16.149  0.00  0.00    +0.000 A 
ATOM     14  C   UNL     1      47.800   2.906  17.314  0.00  0.00    +0.000 A 
ATOM     15  C   UNL     1      48.411   3.581  18.338  0.00  0.00    +0.000 A 
ATOM     16  N   UNL     1      48.860   4.845  18.229  0.00  0.00    +0.000 NA
ENDBRANCH  10  11
ENDBRANCH   9  10
ENDBRANCH   8   9
ENDBRANCH   5   8
ENDBRANCH   1   2
BRANCH   1  19
ATOM     17  O   UNL     1      42.818   5.850  10.897  0.00  0.00    +0.000 OA
ATOM     18  C   UNL     1      43.883   5.246  10.839  0.00  0.00    +0.000 C 
ATOM     19  N   UNL     1      45.089   5.778  11.246  0.00  0.00    +0.000 N 
ATOM     20  H   UNL     1      45.898   5.198  11.032  0.00  0.00    +0.000 HD
BRANCH  18  21
ATOM     21  C   UNL     1      44.051   3.925  10.208  0.00  0.00    +0.000 A 
ATOM     22  N   UNL     1      43.545   2.815  10.794  0.00  0.00    +0.000 NA
ATOM     23  N   UNL     1      44.127   1.810  10.124  0.00  0.00    +0.000 N 
ATOM     24  C   UNL     1      45.025   2.214   9.177  0.00  0.00    +0.000 A 
ATOM     25  C   UNL     1      45.963   1.505   8.423  0.00  0.00    +0.000 A 
ATOM     26  C   UNL     1      46.698   2.229   7.480  0.00  0.00    +0.000 A 
ATOM     27  C   UNL     1      46.460   3.589   7.270  0.00  0.00    +0.000 A 
ATOM     28  C   UNL     1      45.551   4.290   8.073  0.00  0.00    +0.000 A 
ATOM     29  C   UNL     1      44.857   3.592   9.080  0.00  0.00    +0.000 A 
ATOM     30  H   UNL     1      43.902   0.859  10.393  0.00  0.00    +0.000 HD
ENDBRANCH  18  21
ENDBRANCH   1  19
TORSDOF 7
ENDMDL
MODEL 2
REMARK VINA RESULT:    -7.357      2.172      8.028
REMARK INTER + INTRA:         -11.488
REMARK INTER:                 -10.119
REMARK INTRA:                  -1.368
REMARK UNBOUND:                -1.120
REMARK  Name = 
REMARK  7 active torsions:
REMARK  status: ('A' for Active; 'I' for Inactive)
REMARK    1  A    between atoms: C_2  and  C_20
REMARK    2  A    between atoms: N_3  and  C_4
REMARK    3  A    between atoms: C_4  and  C_5
REMARK    4  A    between atoms: C_8  and  C_9
REMARK    5  A    between atoms: C_9  and  C_10
REMARK    6  A    between atoms: C_10  and  C_11
REMARK    7  A    between atoms: C_11  and  C_12
REMARK                            x       y       z     vdW  Elec       q    Type
REMARK                         _______ _______ _______ _____ _____    ______ ____
ROOT
ATOM      1  C   UNL     1      48.752   7.391  12.837  0.00  0.00    +0.000 C 
ENDROOT
BRANCH   1   2
ATOM      2  C   UNL     1      47.362   6.811  12.845  0.00  0.00    +0.000 A 
ATOM      3  C   UNL     1      47.123   5.506  13.297  0.00  0.00    +0.000 A 
ATOM      4  C   UNL     1      45.828   4.970  13.282  0.00  0.00    +0.000 A 
ATOM      5  C   UNL     1      44.747   5.730  12.824  0.00  0.00    +0.000 A 
ATOM      6  C   UNL     1      44.992   7.021  12.343  0.00  0.00    +0.000 A 
ATOM      7  C   UNL     1      46.285   7.557  12.351  0.00  0.00    +0.000 A 
BRANCH   5   8
ATOM      8  C   UNL     1      43.342   5.182  12.836  0.00  0.00    +0.000 C 
BRANCH   8   9
ATOM      9  C   UNL     1      42.900   4.544  11.514  0.00  0.00    +0.000 C 
BRANCH   9  10
ATOM     10  C   UNL     1      43.551   3.180  11.263  0.00  0.00    +0.000 C 
BRANCH  10  11
ATOM     11  C   UNL     1      44.414   3.218  10.033  0.00  0.00    +0.000 A 
ATOM     12  N   UNL     1      44.822   2.043   9.513  0.00  0.00    +0.000 NA
ATOM     13  C   UNL     1      45.598   2.108   8.421  0.00  0.00    +0.000 A 
ATOM     14  C   UNL     1      45.975   3.288   7.834  0.00  0.00    +0.000 A 
ATOM     15  C   UNL     1      45.532   4.430   8.446  0.00  0.00    +0.000 A 
ATOM     16  N   UNL     1      44.746   4.430   9.539  0.00  0.00    +0.000 NA
ENDBRANCH  10  11
ENDBRANCH   9  10
ENDBRANCH   8   9
ENDBRANCH   5   8
ENDBRANCH   1   2
BRANCH   1  19
ATOM     17  O   UNL     1      48.736   8.436  15.492  0.00  0.00    +0.000 OA
ATOM     18  C   UNL     1      49.330   7.395  15.237  0.00  0.00    +0.000 C 
ATOM     19  N   UNL     1      49.507   6.905  13.960  0.00  0.00    +0.000 N 
ATOM     20  H   UNL     1      49.921   5.976  13.920  0.00  0.00    +0.000 HD
BRANCH  18  21
ATOM     21  C   UNL     1      49.821   6.454  16.259  0.00  0.00    +0.000 A 
ATOM     22  N   UNL     1      51.116   6.481  16.654  0.00  0.00    +0.000 NA
ATOM     23  N   UNL     1      51.264   5.337  17.337  0.00  0.00    +0.000 N 
ATOM     24  C   UNL     1      50.150   4.547  17.355  0.00  0.00    +0.000 A 
ATOM     25  C   UNL     1      49.951   3.229  17.772  0.00  0.00    +0.000 A 
ATOM     26  C   UNL     1      48.646   2.733  17.708  0.00  0.00    +0.000 A 
ATOM     27  C   UNL     1      47.586   3.542  17.297  0.00  0.00    +0.000 A 
ATOM     28  C   UNL     1      47.816   4.845  16.834  0.00  0.00    +0.000 A 
ATOM     29  C   UNL     1      49.135   5.336  16.819  0.00  0.00    +0.000 A 
ATOM     30  H   UNL     1      52.173   5.129  17.735  0.00  0.00    +0.000 HD
ENDBRANCH  18  21
ENDBRANCH   1  19
TORSDOF 7
ENDMDL
MODEL 3
REMARK VINA RESULT:    -7.195      3.452      4.891
REMARK INTER + INTRA:         -11.260
REMARK INTER:                 -10.233
REMARK INTRA:                  -1.027
REMARK UNBOUND:                -1.120
REMARK  Name = 
REMARK  7 active torsions:
REMARK  status: ('A' for Active; 'I' for Inactive)
REMARK    1  A    between atoms: C_2  and  C_20
REMARK    2  A    between atoms: N_3  and  C_4
REMARK    3  A    between atoms: C_4  and  C_5
REMARK    4  A    between atoms: C_8  and  C_9
REMARK    5  A    between atoms: C_9  and  C_10
REMARK    6  A    between atoms: C_10  and  C_11
REMARK    7  A    between atoms: C_11  and  C_12
REMARK                            x       y       z     vdW  Elec       q    Type
REMARK                         _______ _______ _______ _____ _____    ______ ____
ROOT
ATOM      1  C   UNL     1      44.449   5.760  12.956  0.00  0.00    +0.000 C 
ENDROOT
BRANCH   1   2
ATOM      2  C   UNL     1      45.859   6.278  12.839  0.00  0.00    +0.000 A 
ATOM      3  C   UNL     1      46.199   7.249  11.887  0.00  0.00    +0.000 A 
ATOM      4  C   UNL     1      47.518   7.709  11.775  0.00  0.00    +0.000 A 
ATOM      5  C   UNL     1      48.519   7.215  12.617  0.00  0.00    +0.000 A 
ATOM      6  C   UNL     1      48.185   6.222  13.545  0.00  0.00    +0.000 A 
ATOM      7  C   UNL     1      46.870   5.755  13.655  0.00  0.00    +0.000 A 
BRANCH   5   8
ATOM      8  C   UNL     1      49.936   7.726  12.534  0.00  0.00    +0.000 C 
BRANCH   8   9
ATOM      9  C   UNL     1      50.536   7.703  11.124  0.00  0.00    +0.000 C 
BRANCH   9  10
ATOM     10  C   UNL     1      52.014   8.105  11.098  0.00  0.00    +0.000 C 
BRANCH  10  11
ATOM     11  C   UNL     1      52.792   7.223  10.163  0.00  0.00    +0.000 A 
ATOM     12  N   UNL     1      52.322   7.064   8.909  0.00  0.00    +0.000 NA
ATOM     13  C   UNL     1      53.033   6.264   8.100  0.00  0.00    +0.000 A 
ATOM     14  C   UNL     1      54.181   5.626   8.491  0.00  0.00    +0.000 A 
ATOM     15  C   UNL     1      54.568   5.828   9.789  0.00  0.00    +0.000 A 
ATOM     16  N   UNL     1      53.902   6.624  10.646  0.00  0.00    +0.000 NA
ENDBRANCH  10  11
ENDBRANCH   9  10
ENDBRANCH   8   9
ENDBRANCH   5   8
ENDBRANCH   1   2
BRANCH   1  19
ATOM     17  O   UNL     1      43.177   5.684  10.404  0.00  0.00    +0.000 OA
ATOM     18  C   UNL     1      43.756   4.696  10.840  0.00  0.00    +0.000 C 
ATOM     19  N   UNL     1      44.265   4.606  12.118  0.00  0.00    +0.000 N 
ATOM     20  H   UNL     1      44.814   3.768  12.294  0.00  0.00    +0.000 HD
BRANCH  18  21
ATOM     21  C   UNL     1      44.106   3.519  10.025  0.00  0.00    +0.000 A 
ATOM     22  N   UNL     1      43.704   2.281  10.397  0.00  0.00    +0.000 NA
ATOM     23  N   UNL     1      44.432   1.464   9.621  0.00  0.00    +0.000 N 
ATOM     24  C   UNL     1      45.322   2.108   8.811  0.00  0.00    +0.000 A 
ATOM     25  C   UNL     1      46.373   1.634   8.022  0.00  0.00    +0.000 A 
ATOM     26  C   UNL     1      47.065   2.575   7.254  0.00  0.00    +0.000 A 
ATOM     27  C   UNL     1      46.682   3.917   7.240  0.00  0.00    +0.000 A 
ATOM     28  C   UNL     1      45.659   4.379   8.078  0.00  0.00    +0.000 A 
ATOM     29  C   UNL     1      45.001   3.459   8.916  0.00  0.00    +0.000 A 
ATOM     30  H   UNL     1      44.305   0.464   9.725  0.00  0.00    +0.000 HD
ENDBRANCH  18  21
ENDBRANCH   1  19
TORSDOF 7
ENDMDL
MODEL 4
REMARK VINA RESULT:    -7.072      2.542      9.059
REMARK INTER + INTRA:         -11.086
REMARK INTER:                 -10.245
REMARK INTRA:                  -0.841
REMARK UNBOUND:                -1.120
REMARK  Name = 
REMARK  7 active torsions:
REMARK  status: ('A' for Active; 'I' for Inactive)
REMARK    1  A    between atoms: C_2  and  C_20
REMARK    2  A    between atoms: N_3  and  C_4
REMARK    3  A    between atoms: C_4  and  C_5
REMARK    4  A    between atoms: C_8  and  C_9
REMARK    5  A    between atoms: C_9  and  C_10
REMARK    6  A    between atoms: C_10  and  C_11
REMARK    7  A    between atoms: C_11  and  C_12
REMARK                            x       y       z     vdW  Elec       q    Type
REMARK                         _______ _______ _______ _____ _____    ______ ____
ROOT
ATOM      1  C   UNL     1      47.341   7.701  13.675  0.00  0.00    +0.000 C 
ENDROOT
BRANCH   1   2
ATOM      2  C   UNL     1      46.404   6.859  12.849  0.00  0.00    +0.000 A 
ATOM      3  C   UNL     1      46.395   5.461  12.960  0.00  0.00    +0.000 A 
ATOM      4  C   UNL     1      45.532   4.687  12.172  0.00  0.00    +0.000 A 
ATOM      5  C   UNL     1      44.657   5.294  11.267  0.00  0.00    +0.000 A 
ATOM      6  C   UNL     1      44.689   6.687  11.134  0.00  0.00    +0.000 A 
ATOM      7  C   UNL     1      45.554   7.463  11.915  0.00  0.00    +0.000 A 
BRANCH   5   8
ATOM      8  C   UNL     1      43.696   4.478  10.438  0.00  0.00    +0.000 C 
BRANCH   8   9
ATOM      9  C   UNL     1      44.276   3.971   9.113  0.00  0.00    +0.000 C 
BRANCH   9  10
ATOM     10  C   UNL     1      44.847   2.553   9.216  0.00  0.00    +0.000 C 
BRANCH  10  11
ATOM     11  C   UNL     1      45.829   2.290   8.109  0.00  0.00    +0.000 A 
ATOM     12  N   UNL     1      46.009   3.255   7.184  0.00  0.00    +0.000 NA
ATOM     13  C   UNL     1      46.884   2.988   6.203  0.00  0.00    +0.000 A 
ATOM     14  C   UNL     1      47.580   1.811   6.115  0.00  0.00    +0.000 A 
ATOM     15  C   UNL     1      47.314   0.882   7.086  0.00  0.00    +0.000 A 
ATOM     16  N   UNL     1      46.453   1.093   8.098  0.00  0.00    +0.000 NA
ENDBRANCH  10  11
ENDBRANCH   9  10
ENDBRANCH   8   9
ENDBRANCH   5   8
ENDBRANCH   1   2
BRANCH   1  19
ATOM     17  O   UNL     1      50.060   7.582  14.528  0.00  0.00    +0.000 OA
ATOM     18  C   UNL     1      49.178   7.050  15.190  0.00  0.00    +0.000 C 
ATOM     19  N   UNL     1      47.868   6.937  14.774  0.00  0.00    +0.000 N 
ATOM     20  H   UNL     1      47.232   6.572  15.480  0.00  0.00    +0.000 HD
BRANCH  18  21
ATOM     21  C   UNL     1      49.356   6.576  16.574  0.00  0.00    +0.000 A 
ATOM     22  N   UNL     1      49.948   5.384  16.822  0.00  0.00    +0.000 NA
ATOM     23  N   UNL     1      49.674   5.156  18.115  0.00  0.00    +0.000 N 
ATOM     24  C   UNL     1      48.890   6.110  18.697  0.00  0.00    +0.000 A 
ATOM     25  C   UNL     1      48.232   6.147  19.929  0.00  0.00    +0.000 A 
ATOM     26  C   UNL     1      47.548   7.323  20.248  0.00  0.00    +0.000 A 
ATOM     27  C   UNL     1      47.570   8.425  19.391  0.00  0.00    +0.000 A 
ATOM     28  C   UNL     1      48.192   8.347  18.139  0.00  0.00    +0.000 A 
ATOM     29  C   UNL     1      48.822   7.144  17.768  0.00  0.00    +0.000 A 
ATOM     30  H   UNL     1      50.018   4.300  18.535  0.00  0.00    +0.000 HD
ENDBRANCH  18  21
ENDBRANCH   1  19
TORSDOF 7
ENDMDL
MODEL 5
REMARK VINA RESULT:    -6.891      1.681      2.230
REMARK INTER + INTRA:         -10.831
REMARK INTER:                 -10.035
REMARK INTRA:                  -0.796
REMARK UNBOUND:                -1.120
REMARK  Name = 
REMARK  7 active torsions:
REMARK  status: ('A' for Active; 'I' for Inactive)
REMARK    1  A    between atoms: C_2  and  C_20
REMARK    2  A    between atoms: N_3  and  C_4
REMARK    3  A    between atoms: C_4  and  C_5
REMARK    4  A    between atoms: C_8  and  C_9
REMARK    5  A    between atoms: C_9  and  C_10
REMARK    6  A    between atoms: C_10  and  C_11
REMARK    7  A    between atoms: C_11  and  C_12
REMARK                            x       y       z     vdW  Elec       q    Type
REMARK                         _______ _______ _______ _____ _____    ______ ____
ROOT
ATOM      1  C   UNL     1      45.233   7.041  11.394  0.00  0.00    +0.000 C 
ENDROOT
BRANCH   1   2
ATOM      2  C   UNL     1      46.361   7.318  12.353  0.00  0.00    +0.000 A 
ATOM      3  C   UNL     1      46.404   8.502  13.101  0.00  0.00    +0.000 A 
ATOM      4  C   UNL     1      47.469   8.757  13.976  0.00  0.00    +0.000 A 
ATOM      5  C   UNL     1      48.505   7.830  14.126  0.00  0.00    +0.000 A 
ATOM      6  C   UNL     1      48.478   6.663  13.354  0.00  0.00    +0.000 A 
ATOM      7  C   UNL     1      47.419   6.409  12.475  0.00  0.00    +0.000 A 
BRANCH   5   8
ATOM      8  C   UNL     1      49.640   8.072  15.091  0.00  0.00    +0.000 C 
BRANCH   8   9
ATOM      9  C   UNL     1      50.107   6.822  15.845  0.00  0.00    +0.000 C 
BRANCH   9  10
ATOM     10  C   UNL     1      50.562   7.125  17.276  0.00  0.00    +0.000 C 
BRANCH  10  11
ATOM     11  C   UNL     1      49.430   7.685  18.090  0.00  0.00    +0.000 A 
ATOM     12  N   UNL     1      49.506   8.976  18.471  0.00  0.00    +0.000 NA
ATOM     13  C   UNL     1      48.485   9.445  19.204  0.00  0.00    +0.000 A 
ATOM     14  C   UNL     1      47.404   8.684  19.564  0.00  0.00    +0.000 A 
ATOM     15  C   UNL     1      47.425   7.378  19.150  0.00  0.00    +0.000 A 
ATOM     16  N   UNL     1      48.416   6.851  18.408  0.00  0.00    +0.000 NA
ENDBRANCH  10  11
ENDBRANCH   9  10
ENDBRANCH   8   9
ENDBRANCH   5   8
ENDBRANCH   1   2
BRANCH   1  19
ATOM     17  O   UNL     1      42.865   5.529  10.899  0.00  0.00    +0.000 OA
ATOM     18  C   UNL     1      43.970   5.022  10.747  0.00  0.00    +0.000 C 
ATOM     19  N   UNL     1      45.152   5.635  11.103  0.00  0.00    +0.000 N 
ATOM     20  H   UNL     1      45.990   5.136  10.812  0.00  0.00    +0.000 HD
BRANCH  18  21
ATOM     21  C   UNL     1      44.203   3.748  10.042  0.00  0.00    +0.000 A 
ATOM     22  N   UNL     1      43.707   2.589  10.535  0.00  0.00    +0.000 NA
ATOM     23  N   UNL     1      44.346   1.645   9.830  0.00  0.00    +0.000 N 
ATOM     24  C   UNL     1      45.270   2.132   8.951  0.00  0.00    +0.000 A 
ATOM     25  C   UNL     1      46.260   1.498   8.196  0.00  0.00    +0.000 A 
ATOM     26  C   UNL     1      47.012   2.301   7.333  0.00  0.00    +0.000 A 
ATOM     27  C   UNL     1      46.743   3.664   7.198  0.00  0.00    +0.000 A 
ATOM     28  C   UNL     1      45.781   4.288   8.002  0.00  0.00    +0.000 A 
ATOM     29  C   UNL     1      45.066   3.509   8.932  0.00  0.00    +0.000 A 
ATOM     30  H   UNL     1      44.139   0.673  10.030  0.00  0.00    +0.000 HD
ENDBRANCH  18  21
ENDBRANCH   1  19
TORSDOF 7
ENDMDL
MODEL 6
REMARK VINA RESULT:    -6.880      3.034      3.912
REMARK INTER + INTRA:         -10.816
REMARK INTER:                  -9.996
REMARK INTRA:                  -0.820
REMARK UNBOUND:                -1.120
REMARK  Name = 
REMARK  7 active torsions:
REMARK  status: ('A' for Active; 'I' for Inactive)
REMARK    1  A    between atoms: C_2  and  C_20
REMARK    2  A    between atoms: N_3  and  C_4
REMARK    3  A    between atoms: C_4  and  C_5
REMARK    4  A    between atoms: C_8  and  C_9
REMARK    5  A    between atoms: C_9  and  C_10
REMARK    6  A    between atoms: C_10  and  C_11
REMARK    7  A    between atoms: C_11  and  C_12
REMARK                            x       y       z     vdW  Elec       q    Type
REMARK                         _______ _______ _______ _____ _____    ______ ____
ROOT
ATOM      1  C   UNL     1      47.152   6.144  13.443  0.00  0.00    +0.000 C 
ENDROOT
BRANCH   1   2
ATOM      2  C   UNL     1      47.796   5.804  14.762  0.00  0.00    +0.000 A 
ATOM      3  C   UNL     1      48.837   6.584  15.284  0.00  0.00    +0.000 A 
ATOM      4  C   UNL     1      49.442   6.247  16.503  0.00  0.00    +0.000 A 
ATOM      5  C   UNL     1      49.012   5.131  17.226  0.00  0.00    +0.000 A 
ATOM      6  C   UNL     1      47.995   4.334  16.688  0.00  0.00    +0.000 A 
ATOM      7  C   UNL     1      47.393   4.665  15.468  0.00  0.00    +0.000 A 
BRANCH   5   8
ATOM      8  C   UNL     1      49.627   4.775  18.558  0.00  0.00    +0.000 C 
BRANCH   8   9
ATOM      9  C   UNL     1      51.039   4.188  18.465  0.00  0.00    +0.000 C 
BRANCH   9  10
ATOM     10  C   UNL     1      51.093   2.889  17.655  0.00  0.00    +0.000 C 
BRANCH  10  11
ATOM     11  C   UNL     1      52.366   2.139  17.929  0.00  0.00    +0.000 A 
ATOM     12  N   UNL     1      52.515   0.923  17.369  0.00  0.00    +0.000 NA
ATOM     13  C   UNL     1      53.658   0.274  17.639  0.00  0.00    +0.000 A 
ATOM     14  C   UNL     1      54.646   0.790  18.436  0.00  0.00    +0.000 A 
ATOM     15  C   UNL     1      54.396   2.021  18.980  0.00  0.00    +0.000 A 
ATOM     16  N   UNL     1      53.273   2.724  18.742  0.00  0.00    +0.000 NA
ENDBRANCH  10  11
ENDBRANCH   9  10
ENDBRANCH   8   9
ENDBRANCH   5   8
ENDBRANCH   1   2
BRANCH   1  19
ATOM     17  O   UNL     1      44.303   6.034  13.342  0.00  0.00    +0.000 OA
ATOM     18  C   UNL     1      44.978   5.140  12.844  0.00  0.00    +0.000 C 
ATOM     19  N   UNL     1      46.347   5.047  12.978  0.00  0.00    +0.000 N 
ATOM     20  H   UNL     1      46.776   4.315  12.416  0.00  0.00    +0.000 HD
BRANCH  18  21
ATOM     21  C   UNL     1      44.446   4.119  11.924  0.00  0.00    +0.000 A 
ATOM     22  N   UNL     1      43.751   3.060  12.401  0.00  0.00    +0.000 NA
ATOM     23  N   UNL     1      43.692   2.222  11.356  0.00  0.00    +0.000 N 
ATOM     24  C   UNL     1      44.361   2.660  10.249  0.00  0.00    +0.000 A 
ATOM     25  C   UNL     1      44.702   2.020   9.055  0.00  0.00    +0.000 A 
ATOM     26  C   UNL     1      45.350   2.790   8.085  0.00  0.00    +0.000 A 
ATOM     27  C   UNL     1      45.592   4.150   8.287  0.00  0.00    +0.000 A 
ATOM     28  C   UNL     1      45.288   4.758   9.511  0.00  0.00    +0.000 A 
ATOM     29  C   UNL     1      44.704   3.980  10.529  0.00  0.00    +0.000 A 
ATOM     30  H   UNL     1      43.213   1.337  11.476  0.00  0.00    +0.000 HD
ENDBRANCH  18  21
ENDBRANCH   1  19
TORSDOF 7
ENDMDL
MODEL 7
REMARK VINA RESULT:    -6.826      3.382      6.055
REMARK INTER + INTRA:         -10.739
REMARK INTER:                  -9.760
REMARK INTRA:                  -0.980
REMARK UNBOUND:                -1.120
REMARK  Name = 
REMARK  7 active torsions:
REMARK  status: ('A' for Active; 'I' for Inactive)
REMARK    1  A    between atoms: C_2  and  C_20
REMARK    2  A    between atoms: N_3  and  C_4
REMARK    3  A    between atoms: C_4  and  C_5
REMARK    4  A    between atoms: C_8  and  C_9
REMARK    5  A    between atoms: C_9  and  C_10
REMARK    6  A    between atoms: C_10  and  C_11
REMARK    7  A    between atoms: C_11  and  C_12
REMARK                            x       y       z     vdW  Elec       q    Type
REMARK                         _______ _______ _______ _____ _____    ______ ____
ROOT
ATOM      1  C   UNL     1      44.913   3.394  11.792  0.00  0.00    +0.000 C 
ENDROOT
BRANCH   1   2
ATOM      2  C   UNL     1      45.213   4.830  12.132  0.00  0.00    +0.000 A 
ATOM      3  C   UNL     1      46.340   5.176  12.891  0.00  0.00    +0.000 A 
ATOM      4  C   UNL     1      46.599   6.515  13.217  0.00  0.00    +0.000 A 
ATOM      5  C   UNL     1      45.742   7.532  12.784  0.00  0.00    +0.000 A 
ATOM      6  C   UNL     1      44.600   7.182  12.055  0.00  0.00    +0.000 A 
ATOM      7  C   UNL     1      44.336   5.846  11.733  0.00  0.00    +0.000 A 
BRANCH   5   8
ATOM      8  C   UNL     1      46.026   8.981  13.096  0.00  0.00    +0.000 C 
BRANCH   8   9
ATOM      9  C   UNL     1      46.533   9.797  11.901  0.00  0.00    +0.000 C 
BRANCH   9  10
ATOM     10  C   UNL     1      45.905  11.192  11.823  0.00  0.00    +0.000 C 
BRANCH  10  11
ATOM     11  C   UNL     1      44.496  11.116  11.304  0.00  0.00    +0.000 A 
ATOM     12  N   UNL     1      43.552  11.843  11.935  0.00  0.00    +0.000 NA
ATOM     13  C   UNL     1      42.303  11.748  11.455  0.00  0.00    +0.000 A 
ATOM     14  C   UNL     1      41.966  10.965  10.382  0.00  0.00    +0.000 A 
ATOM     15  C   UNL     1      42.987  10.245   9.821  0.00  0.00    +0.000 A 
ATOM     16  N   UNL     1      44.261  10.302  10.252  0.00  0.00    +0.000 NA
ENDBRANCH  10  11
ENDBRANCH   9  10
ENDBRANCH   8   9
ENDBRANCH   5   8
ENDBRANCH   1   2
BRANCH   1  19
ATOM     17  O   UNL     1      43.742   3.674   9.206  0.00  0.00    +0.000 OA
ATOM     18  C   UNL     1      44.914   3.338   9.324  0.00  0.00    +0.000 C 
ATOM     19  N   UNL     1      45.509   3.040  10.532  0.00  0.00    +0.000 N 
ATOM     20  H   UNL     1      46.513   2.886  10.480  0.00  0.00    +0.000 HD
BRANCH  18  21
ATOM     21  C   UNL     1      45.887   3.332   8.217  0.00  0.00    +0.000 A 
ATOM     22  N   UNL     1      46.206   4.481   7.577  0.00  0.00    +0.000 NA
ATOM     23  N   UNL     1      46.857   4.064   6.481  0.00  0.00    +0.000 N 
ATOM     24  C   UNL     1      46.922   2.706   6.352  0.00  0.00    +0.000 A 
ATOM     25  C   UNL     1      47.322   1.892   5.290  0.00  0.00    +0.000 A 
ATOM     26  C   UNL     1      47.323   0.512   5.514  0.00  0.00    +0.000 A 
ATOM     27  C   UNL     1      46.990  -0.016   6.762  0.00  0.00    +0.000 A 
ATOM     28  C   UNL     1      46.542   0.815   7.796  0.00  0.00    +0.000 A 
ATOM     29  C   UNL     1      46.462   2.202   7.565  0.00  0.00    +0.000 A 
ATOM     30  H   UNL     1      47.197   4.762   5.829  0.00  0.00    +0.000 HD
ENDBRANCH  18  21
ENDBRANCH   1  19
TORSDOF 7
ENDMDL
MODEL 8
REMARK VINA RESULT:    -6.757      3.486      8.073
REMARK INTER + INTRA:         -10.642
REMARK INTER:                  -9.358
REMARK INTRA:                  -1.284
REMARK UNBOUND:                -1.120
REMARK  Name = 
REMARK  7 active torsions:
REMARK  status: ('A' for Active; 'I' for Inactive)
REMARK    1  A    between atoms: C_2  and  C_20
REMARK    2  A    between atoms: N_3  and  C_4
REMARK    3  A    between atoms: C_4  and  C_5
REMARK    4  A    between atoms: C_8  and  C_9
REMARK    5  A    between atoms: C_9  and  C_10
REMARK    6  A    between atoms: C_10  and  C_11
REMARK    7  A    between atoms: C_11  and  C_12
REMARK                            x       y       z     vdW  Elec       q    Type
REMARK                         _______ _______ _______ _____ _____    ______ ____
ROOT
ATOM      1  C   UNL     1      45.701   5.004  13.032  0.00  0.00    +0.000 C 
ENDROOT
BRANCH   1   2
ATOM      2  C   UNL     1      46.213   6.377  12.687  0.00  0.00    +0.000 A 
ATOM      3  C   UNL     1      47.567   6.595  12.398  0.00  0.00    +0.000 A 
ATOM      4  C   UNL     1      48.036   7.882  12.096  0.00  0.00    +0.000 A 
ATOM      5  C   UNL     1      47.159   8.971  12.069  0.00  0.00    +0.000 A 
ATOM      6  C   UNL     1      45.814   8.757  12.390  0.00  0.00    +0.000 A 
ATOM      7  C   UNL     1      45.344   7.475  12.698  0.00  0.00    +0.000 A 
BRANCH   5   8
ATOM      8  C   UNL     1      47.641  10.356  11.711  0.00  0.00    +0.000 C 
BRANCH   8   9
ATOM      9  C   UNL     1      46.632  11.472  12.004  0.00  0.00    +0.000 C 
BRANCH   9  10
ATOM     10  C   UNL     1      46.011  12.062  10.735  0.00  0.00    +0.000 C 
BRANCH  10  11
ATOM     11  C   UNL     1      44.603  11.568  10.549  0.00  0.00    +0.000 A 
ATOM     12  N   UNL     1      44.243  11.139   9.323  0.00  0.00    +0.000 NA
ATOM     13  C   UNL     1      42.978  10.712   9.185  0.00  0.00    +0.000 A 
ATOM     14  C   UNL     1      42.073  10.696  10.213  0.00  0.00    +0.000 A 
ATOM     15  C   UNL     1      42.523  11.171  11.416  0.00  0.00    +0.000 A 
ATOM     16  N   UNL     1      43.780  11.607  11.619  0.00  0.00    +0.000 NA
ENDBRANCH  10  11
ENDBRANCH   9  10
ENDBRANCH   8   9
ENDBRANCH   5   8
ENDBRANCH   1   2
BRANCH   1  19
ATOM     17  O   UNL     1      47.655   3.194  14.054  0.00  0.00    +0.000 OA
ATOM     18  C   UNL     1      47.016   3.913  14.814  0.00  0.00    +0.000 C 
ATOM     19  N   UNL     1      45.958   4.703  14.415  0.00  0.00    +0.000 N 
ATOM     20  H   UNL     1      45.603   5.325  15.136  0.00  0.00    +0.000 HD
BRANCH  18  21
ATOM     21  C   UNL     1      47.367   4.139  16.227  0.00  0.00    +0.000 A 
ATOM     22  N   UNL     1      46.886   3.322  17.194  0.00  0.00    +0.000 NA
ATOM     23  N   UNL     1      47.153   3.983  18.330  0.00  0.00    +0.000 N 
ATOM     24  C   UNL     1      47.728   5.207  18.143  0.00  0.00    +0.000 A 
ATOM     25  C   UNL     1      47.973   6.263  19.024  0.00  0.00    +0.000 A 
ATOM     26  C   UNL     1      48.646   7.376  18.510  0.00  0.00    +0.000 A 
ATOM     27  C   UNL     1      49.097   7.399  17.189  0.00  0.00    +0.000 A 
ATOM     28  C   UNL     1      48.795   6.351  16.310  0.00  0.00    +0.000 A 
ATOM     29  C   UNL     1      48.052   5.256  16.790  0.00  0.00    +0.000 A 
ATOM     30  H   UNL     1      46.875   3.561  19.208  0.00  0.00    +0.000 HD
ENDBRANCH  18  21
ENDBRANCH   1  19
TORSDOF 7
ENDMDL
MODEL 9
REMARK VINA RESULT:    -6.552      1.257      1.906
REMARK INTER + INTRA:         -10.354
REMARK INTER:                  -9.589
REMARK INTRA:                  -0.765
REMARK UNBOUND:                -1.120
REMARK  Name = 
REMARK  7 active torsions:
REMARK  status: ('A' for Active; 'I' for Inactive)
REMARK    1  A    between atoms: C_2  and  C_20
REMARK    2  A    between atoms: N_3  and  C_4
REMARK    3  A    between atoms: C_4  and  C_5
REMARK    4  A    between atoms: C_8  and  C_9
REMARK    5  A    between atoms: C_9  and  C_10
REMARK    6  A    between atoms: C_10  and  C_11
REMARK    7  A    between atoms: C_11  and  C_12
REMARK                            x       y       z     vdW  Elec       q    Type
REMARK                         _______ _______ _______ _____ _____    ______ ____
ROOT
ATOM      1  C   UNL     1      45.497   7.626  11.993  0.00  0.00    +0.000 C 
ENDROOT
BRANCH   1   2
ATOM      2  C   UNL     1      46.888   7.900  12.503  0.00  0.00    +0.000 A 
ATOM      3  C   UNL     1      47.893   6.926  12.430  0.00  0.00    +0.000 A 
ATOM      4  C   UNL     1      49.178   7.186  12.926  0.00  0.00    +0.000 A 
ATOM      5  C   UNL     1      49.485   8.426  13.494  0.00  0.00    +0.000 A 
ATOM      6  C   UNL     1      48.472   9.386  13.596  0.00  0.00    +0.000 A 
ATOM      7  C   UNL     1      47.186   9.127  13.108  0.00  0.00    +0.000 A 
BRANCH   5   8
ATOM      8  C   UNL     1      50.873   8.736  13.999  0.00  0.00    +0.000 C 
BRANCH   8   9
ATOM      9  C   UNL     1      51.048   8.568  15.513  0.00  0.00    +0.000 C 
BRANCH   9  10
ATOM     10  C   UNL     1      51.326   7.119  15.923  0.00  0.00    +0.000 C 
BRANCH  10  11
ATOM     11  C   UNL     1      50.178   6.557  16.714  0.00  0.00    +0.000 A 
ATOM     12  N   UNL     1      49.448   7.412  17.458  0.00  0.00    +0.000 NA
ATOM     13  C   UNL     1      48.435   6.881  18.160  0.00  0.00    +0.000 A 
ATOM     14  C   UNL     1      48.128   5.546  18.145  0.00  0.00    +0.000 A 
ATOM     15  C   UNL     1      48.939   4.752  17.379  0.00  0.00    +0.000 A 
ATOM     16  N   UNL     1      49.965   5.225  16.648  0.00  0.00    +0.000 NA
ENDBRANCH  10  11
ENDBRANCH   9  10
ENDBRANCH   8   9
ENDBRANCH   5   8
ENDBRANCH   1   2
BRANCH   1  19
ATOM     17  O   UNL     1      43.722   5.750  13.203  0.00  0.00    +0.000 OA
ATOM     18  C   UNL     1      44.368   5.442  12.209  0.00  0.00    +0.000 C 
ATOM     19  N   UNL     1      45.350   6.236  11.655  0.00  0.00    +0.000 N 
ATOM     20  H   UNL     1      45.717   5.895  10.770  0.00  0.00    +0.000 HD
BRANCH  18  21
ATOM     21  C   UNL     1      44.100   4.248  11.388  0.00  0.00    +0.000 A 
ATOM     22  N   UNL     1      43.448   3.184  11.914  0.00  0.00    +0.000 NA
ATOM     23  N   UNL     1      43.646   2.212  11.011  0.00  0.00    +0.000 N 
ATOM     24  C   UNL     1      44.439   2.577   9.961  0.00  0.00    +0.000 A 
ATOM     25  C   UNL     1      45.034   1.829   8.942  0.00  0.00    +0.000 A 
ATOM     26  C   UNL     1      45.750   2.536   7.972  0.00  0.00    +0.000 A 
ATOM     27  C   UNL     1      45.817   3.930   7.997  0.00  0.00    +0.000 A 
ATOM     28  C   UNL     1      45.256   4.655   9.056  0.00  0.00    +0.000 A 
ATOM     29  C   UNL     1      44.596   3.955  10.083  0.00  0.00    +0.000 A 
ATOM     30  H   UNL     1      43.247   1.299  11.193  0.00  0.00    +0.000 HD
ENDBRANCH  18  21
ENDBRANCH   1  19
TORSDOF 7
ENDMDL
