MODEL 1
REMARK VINA RESULT:    -7.990      0.000      0.000
REMARK INTER + INTRA:         -12.623
REMARK INTER:                 -11.260
REMARK INTRA:                  -1.363
REMARK UNBOUND:                -1.363
REMARK  Name = 
REMARK  8 active torsions:
REMARK  status: ('A' for Active; 'I' for Inactive)
REMARK    1  A    between atoms: C_1  and  N_2
REMARK    2  A    between atoms: C_4  and  C_5
REMARK    3  A    between atoms: N_7  and  C_8
REMARK    4  A    between atoms: C_8  and  C_9
REMARK    5  A    between atoms: C_12  and  C_13
REMARK    6  A    between atoms: C_13  and  C_14
REMARK    7  A    between atoms: C_14  and  O_15
REMARK    8  A    between atoms: O_15  and  C_16
REMARK                            x       y       z     vdW  Elec       q    Type
REMARK                         _______ _______ _______ _____ _____    ______ ____
ROOT
ATOM      1  C   UNL     1      46.887   8.149  13.144  0.00  0.00    +0.000 C 
ENDROOT
BRANCH   1   2
ATOM      2  C   UNL     1      46.095   7.088  12.441  0.00  0.00    +0.000 A 
ATOM      3  C   UNL     1      46.545   6.511  11.257  0.00  0.00    +0.000 A 
ATOM      4  C   UNL     1      45.795   5.509  10.645  0.00  0.00    +0.000 A 
ATOM      5  C   UNL     1      44.593   5.096  11.222  0.00  0.00    +0.000 A 
ATOM      6  N   UNL     1      44.134   5.661  12.364  0.00  0.00    +0.000 NA
ATOM      7  C   UNL     1      44.878   6.638  12.940  0.00  0.00    +0.000 A 
BRANCH   5   8
ATOM      8  C   UNL     1      43.727   3.999  10.638  0.00  0.00    +0.000 C 
BRANCH   8   9
ATOM      9  C   UNL     1      44.466   2.691  10.360  0.00  0.00    +0.000 C 
BRANCH   9  10
ATOM     10  O   UNL     1      44.285   2.267   9.008  0.00  0.00    +0.000 OA
BRANCH  10  11
ATOM     11  C   UNL     1      45.444   2.210   8.272  0.00  0.00    +0.000 A 
ATOM     12  C   UNL     1      46.223   1.057   8.107  0.00  0.00    +0.000 A 
ATOM     13  C   UNL     1      47.384   1.090   7.327  0.00  0.00    +0.000 A 
ATOM     14  C   UNL     1      47.774   2.269   6.699  0.00  0.00    +0.000 A 
ATOM     15  C   UNL     1      47.000   3.419   6.845  0.00  0.00    +0.000 A 
ATOM     16  C   UNL     1      45.843   3.380   7.622  0.00  0.00    +0.000 A 
ATOM     17  F   UNL     1      45.121   4.504   7.753  0.00  0.00    +0.000 F 
ENDBRANCH  10  11
ENDBRANCH   9  10
ENDBRANCH   8   9
ENDBRANCH   5   8
ENDBRANCH   1   2
BRANCH   1  20
ATOM     18  C   UNL     1      48.567   7.042  14.554  0.00  0.00    +0.000 C 
ATOM     19  O   UNL     1      49.299   6.829  13.596  0.00  0.00    +0.000 OA
ATOM     20  N   UNL     1      47.368   7.710  14.432  0.00  0.00    +0.000 N 
ATOM     21  H   UNL     1      46.747   7.756  15.227  0.00  0.00    +0.000 HD
BRANCH  18  25
ATOM     22  C   UNL     1      50.671   7.036  19.077  0.00  0.00    +0.000 C 
ATOM     23  N   UNL     1      49.875   6.646  17.936  0.00  0.00    +0.000 N 
ATOM     24  C   UNL     1      49.708   7.370  16.787  0.00  0.00    +0.000 A 
ATOM     25  C   UNL     1      48.909   6.636  15.915  0.00  0.00    +0.000 A 
ATOM     26  C   UNL     1      48.568   5.415  16.598  0.00  0.00    +0.000 A 
ATOM     27  C   UNL     1      47.824   4.256  16.391  0.00  0.00    +0.000 A 
ATOM     28 CL   UNL     1      46.908   4.032  14.982  0.00  0.00    +0.000 Cl
ATOM     29  N   UNL     1      47.731   3.286  17.317  0.00  0.00    +0.000 NA
ATOM     30  C   UNL     1      48.394   3.476  18.464  0.00  0.00    +0.000 A 
ATOM     31  N   UNL     1      49.141   4.533  18.811  0.00  0.00    +0.000 NA
ATOM     32  C   UNL     1      49.189   5.467  17.844  0.00  0.00    +0.000 A 
ENDBRANCH  18  25
ENDBRANCH   1  20
TORSDOF 7
ENDMDL
MODEL 2
REMARK VINA RESULT:    -7.657      1.852      2.206
REMARK INTER + INTRA:         -12.153
REMARK INTER:                 -11.057
REMARK INTRA:                  -1.097
REMARK UNBOUND:                -1.363
REMARK  Name = 
REMARK  8 active torsions:
REMARK  status: ('A' for Active; 'I' for Inactive)
REMARK    1  A    between atoms: C_1  and  N_2
REMARK    2  A    between atoms: C_4  and  C_5
REMARK    3  A    between atoms: N_7  and  C_8
REMARK    4  A    between atoms: C_8  and  C_9
REMARK    5  A    between atoms: C_12  and  C_13
REMARK    6  A    between atoms: C_13  and  C_14
REMARK    7  A    between atoms: C_14  and  O_15
REMARK    8  A    between atoms: O_15  and  C_16
REMARK                            x       y       z     vdW  Elec       q    Type
REMARK                         _______ _______ _______ _____ _____    ______ ____
ROOT
ATOM      1  C   UNL     1      48.301   6.586  13.769  0.00  0.00    +0.000 C 
ENDROOT
BRANCH   1   2
ATOM      2  C   UNL     1      47.213   5.729  13.196  0.00  0.00    +0.000 A 
ATOM      3  C   UNL     1      46.468   6.143  12.096  0.00  0.00    +0.000 A 
ATOM      4  C   UNL     1      45.481   5.309  11.573  0.00  0.00    +0.000 A 
ATOM      5  C   UNL     1      45.244   4.066  12.162  0.00  0.00    +0.000 A 
ATOM      6  N   UNL     1      45.949   3.658  13.244  0.00  0.00    +0.000 NA
ATOM      7  C   UNL     1      46.901   4.489  13.739  0.00  0.00    +0.000 A 
BRANCH   5   8
ATOM      8  C   UNL     1      44.209   3.088  11.645  0.00  0.00    +0.000 C 
BRANCH   8   9
ATOM      9  C   UNL     1      43.951   3.176  10.142  0.00  0.00    +0.000 C 
BRANCH   9  10
ATOM     10  O   UNL     1      44.544   2.078   9.447  0.00  0.00    +0.000 OA
BRANCH  10  11
ATOM     11  C   UNL     1      45.513   2.438   8.541  0.00  0.00    +0.000 A 
ATOM     12  C   UNL     1      45.809   3.759   8.180  0.00  0.00    +0.000 A 
ATOM     13  C   UNL     1      46.824   4.031   7.257  0.00  0.00    +0.000 A 
ATOM     14  C   UNL     1      47.558   2.992   6.692  0.00  0.00    +0.000 A 
ATOM     15  C   UNL     1      47.281   1.674   7.054  0.00  0.00    +0.000 A 
ATOM     16  C   UNL     1      46.269   1.408   7.976  0.00  0.00    +0.000 A 
ATOM     17  F   UNL     1      46.017   0.130   8.300  0.00  0.00    +0.000 F 
ENDBRANCH  10  11
ENDBRANCH   9  10
ENDBRANCH   8   9
ENDBRANCH   5   8
ENDBRANCH   1   2
BRANCH   1  20
ATOM     18  C   UNL     1      49.293   6.795  16.008  0.00  0.00    +0.000 C 
ATOM     19  O   UNL     1      50.431   6.759  15.557  0.00  0.00    +0.000 OA
ATOM     20  N   UNL     1      48.178   6.742  15.199  0.00  0.00    +0.000 N 
ATOM     21  H   UNL     1      47.266   6.655  15.623  0.00  0.00    +0.000 HD
BRANCH  18  25
ATOM     22  C   UNL     1      48.573   8.854  20.494  0.00  0.00    +0.000 C 
ATOM     23  N   UNL     1      48.705   7.872  19.442  0.00  0.00    +0.000 N 
ATOM     24  C   UNL     1      48.887   8.136  18.112  0.00  0.00    +0.000 A 
ATOM     25  C   UNL     1      49.011   6.927  17.435  0.00  0.00    +0.000 A 
ATOM     26  C   UNL     1      48.875   5.886  18.421  0.00  0.00    +0.000 A 
ATOM     27  C   UNL     1      48.865   4.495  18.501  0.00  0.00    +0.000 A 
ATOM     28 CL   UNL     1      48.979   3.528  17.114  0.00  0.00    +0.000 Cl
ATOM     29  N   UNL     1      48.696   3.844  19.665  0.00  0.00    +0.000 NA
ATOM     30  C   UNL     1      48.538   4.593  20.762  0.00  0.00    +0.000 A 
ATOM     31  N   UNL     1      48.518   5.931  20.844  0.00  0.00    +0.000 NA
ATOM     32  C   UNL     1      48.688   6.520  19.647  0.00  0.00    +0.000 A 
ENDBRANCH  18  25
ENDBRANCH   1  20
TORSDOF 7
ENDMDL
MODEL 3
REMARK VINA RESULT:    -7.525      2.396      3.042
REMARK INTER + INTRA:         -11.968
REMARK INTER:                 -11.008
REMARK INTRA:                  -0.960
REMARK UNBOUND:                -1.363
REMARK  Name = 
REMARK  8 active torsions:
REMARK  status: ('A' for Active; 'I' for Inactive)
REMARK    1  A    between atoms: C_1  and  N_2
REMARK    2  A    between atoms: C_4  and  C_5
REMARK    3  A    between atoms: N_7  and  C_8
REMARK    4  A    between atoms: C_8  and  C_9
REMARK    5  A    between atoms: C_12  and  C_13
REMARK    6  A    between atoms: C_13  and  C_14
REMARK    7  A    between atoms: C_14  and  O_15
REMARK    8  A    between atoms: O_15  and  C_16
REMARK                            x       y       z     vdW  Elec       q    Type
REMARK                         _______ _______ _______ _____ _____    ______ ____
ROOT
ATOM      1  C   UNL     1      48.186   6.348  14.024  0.00  0.00    +0.000 C 
ENDROOT
BRANCH   1   2
ATOM      2  C   UNL     1      47.114   5.547  13.348  0.00  0.00    +0.000 A 
ATOM      3  C   UNL     1      46.424   6.044  12.246  0.00  0.00    +0.000 A 
ATOM      4  C   UNL     1      45.451   5.261  11.628  0.00  0.00    +0.000 A 
ATOM      5  C   UNL     1      45.171   3.987  12.123  0.00  0.00    +0.000 A 
ATOM      6  N   UNL     1      45.822   3.499  13.205  0.00  0.00    +0.000 NA
ATOM      7  C   UNL     1      46.761   4.280  13.795  0.00  0.00    +0.000 A 
BRANCH   5   8
ATOM      8  C   UNL     1      44.148   3.061  11.499  0.00  0.00    +0.000 C 
BRANCH   8   9
ATOM      9  C   UNL     1      44.235   2.957   9.977  0.00  0.00    +0.000 C 
BRANCH   9  10
ATOM     10  O   UNL     1      45.239   2.025   9.575  0.00  0.00    +0.000 OA
BRANCH  10  11
ATOM     11  C   UNL     1      45.855   2.333   8.385  0.00  0.00    +0.000 A 
ATOM     12  C   UNL     1      45.930   3.623   7.843  0.00  0.00    +0.000 A 
ATOM     13  C   UNL     1      46.589   3.845   6.629  0.00  0.00    +0.000 A 
ATOM     14  C   UNL     1      47.185   2.786   5.950  0.00  0.00    +0.000 A 
ATOM     15  C   UNL     1      47.127   1.501   6.487  0.00  0.00    +0.000 A 
ATOM     16  C   UNL     1      46.471   1.285   7.697  0.00  0.00    +0.000 A 
ATOM     17  F   UNL     1      46.422   0.036   8.187  0.00  0.00    +0.000 F 
ENDBRANCH  10  11
ENDBRANCH   9  10
ENDBRANCH   8   9
ENDBRANCH   5   8
ENDBRANCH   1   2
BRANCH   1  20
ATOM     18  C   UNL     1      49.180   6.581  16.259  0.00  0.00    +0.000 C 
ATOM     19  O   UNL     1      50.247   6.963  15.795  0.00  0.00    +0.000 OA
ATOM     20  N   UNL     1      48.097   6.278  15.463  0.00  0.00    +0.000 N 
ATOM     21  H   UNL     1      47.281   5.855  15.882  0.00  0.00    +0.000 HD
BRANCH  18  25
ATOM     22  C   UNL     1      48.920   4.547  20.807  0.00  0.00    +0.000 C 
ATOM     23  N   UNL     1      48.826   5.501  19.725  0.00  0.00    +0.000 N 
ATOM     24  C   UNL     1      49.256   5.305  18.441  0.00  0.00    +0.000 A 
ATOM     25  C   UNL     1      48.947   6.438  17.694  0.00  0.00    +0.000 A 
ATOM     26  C   UNL     1      48.314   7.365  18.595  0.00  0.00    +0.000 A 
ATOM     27  C   UNL     1      47.773   8.649  18.590  0.00  0.00    +0.000 A 
ATOM     28 CL   UNL     1      47.824   9.624  17.205  0.00  0.00    +0.000 Cl
ATOM     29  N   UNL     1      47.249   9.213  19.692  0.00  0.00    +0.000 NA
ATOM     30  C   UNL     1      47.261   8.482  20.813  0.00  0.00    +0.000 A 
ATOM     31  N   UNL     1      47.748   7.244  20.976  0.00  0.00    +0.000 NA
ATOM     32  C   UNL     1      48.260   6.740  19.839  0.00  0.00    +0.000 A 
ENDBRANCH  18  25
ENDBRANCH   1  20
TORSDOF 7
ENDMDL
MODEL 4
REMARK VINA RESULT:    -7.053      2.289      2.756
REMARK INTER + INTRA:         -11.302
REMARK INTER:                 -10.006
REMARK INTRA:                  -1.295
REMARK UNBOUND:                -1.363
REMARK  Name = 
REMARK  8 active torsions:
REMARK  status: ('A' for Active; 'I' for Inactive)
REMARK    1  A    between atoms: C_1  and  N_2
REMARK    2  A    between atoms: C_4  and  C_5
REMARK    3  A    between atoms: N_7  and  C_8
REMARK    4  A    between atoms: C_8  and  C_9
REMARK    5  A    between atoms: C_12  and  C_13
REMARK    6  A    between atoms: C_13  and  C_14
REMARK    7  A    between atoms: C_14  and  O_15
REMARK    8  A    between atoms: O_15  and  C_16
REMARK                            x       y       z     vdW  Elec       q    Type
REMARK                         _______ _______ _______ _____ _____    ______ ____
ROOT
ATOM      1  C   UNL     1      48.337   7.796  13.498  0.00  0.00    +0.000 C 
ENDROOT
BRANCH   1   2
ATOM      2  C   UNL     1      47.184   6.853  13.324  0.00  0.00    +0.000 A 
ATOM      3  C   UNL     1      47.310   5.496  13.604  0.00  0.00    +0.000 A 
ATOM      4  C   UNL     1      46.210   4.653  13.454  0.00  0.00    +0.000 A 
ATOM      5  C   UNL     1      44.992   5.176  13.019  0.00  0.00    +0.000 A 
ATOM      6  N   UNL     1      44.861   6.492  12.726  0.00  0.00    +0.000 NA
ATOM      7  C   UNL     1      45.946   7.293  12.873  0.00  0.00    +0.000 A 
BRANCH   5   8
ATOM      8  C   UNL     1      43.742   4.339  12.853  0.00  0.00    +0.000 C 
BRANCH   8   9
ATOM      9  C   UNL     1      43.933   3.078  12.012  0.00  0.00    +0.000 C 
BRANCH   9  10
ATOM     10  O   UNL     1      43.418   3.249  10.690  0.00  0.00    +0.000 OA
BRANCH  10  11
ATOM     11  C   UNL     1      44.380   3.445   9.729  0.00  0.00    +0.000 A 
ATOM     12  C   UNL     1      44.981   4.679   9.449  0.00  0.00    +0.000 A 
ATOM     13  C   UNL     1      45.963   4.782   8.458  0.00  0.00    +0.000 A 
ATOM     14  C   UNL     1      46.361   3.655   7.744  0.00  0.00    +0.000 A 
ATOM     15  C   UNL     1      45.779   2.420   8.023  0.00  0.00    +0.000 A 
ATOM     16  C   UNL     1      44.802   2.323   9.012  0.00  0.00    +0.000 A 
ATOM     17  F   UNL     1      44.252   1.122   9.254  0.00  0.00    +0.000 F 
ENDBRANCH  10  11
ENDBRANCH   9  10
ENDBRANCH   8   9
ENDBRANCH   5   8
ENDBRANCH   1   2
BRANCH   1  20
ATOM     18  C   UNL     1      49.912   7.761  15.384  0.00  0.00    +0.000 C 
ATOM     19  O   UNL     1      49.415   8.765  15.878  0.00  0.00    +0.000 OA
ATOM     20  N   UNL     1      49.431   7.195  14.223  0.00  0.00    +0.000 N 
ATOM     21  H   UNL     1      49.947   6.441  13.793  0.00  0.00    +0.000 HD
BRANCH  18  25
ATOM     22  C   UNL     1      54.592   6.496  16.560  0.00  0.00    +0.000 C 
ATOM     23  N   UNL     1      53.148   6.497  16.494  0.00  0.00    +0.000 N 
ATOM     24  C   UNL     1      52.373   7.432  15.864  0.00  0.00    +0.000 A 
ATOM     25  C   UNL     1      51.039   7.056  15.990  0.00  0.00    +0.000 A 
ATOM     26  C   UNL     1      51.025   5.837  16.756  0.00  0.00    +0.000 A 
ATOM     27  C   UNL     1      50.113   4.922  17.279  0.00  0.00    +0.000 A 
ATOM     28 CL   UNL     1      48.441   5.157  17.130  0.00  0.00    +0.000 Cl
ATOM     29  N   UNL     1      50.499   3.848  17.988  0.00  0.00    +0.000 NA
ATOM     30  C   UNL     1      51.814   3.683  18.173  0.00  0.00    +0.000 A 
ATOM     31  N   UNL     1      52.807   4.474  17.741  0.00  0.00    +0.000 NA
ATOM     32  C   UNL     1      52.353   5.531  17.044  0.00  0.00    +0.000 A 
ENDBRANCH  18  25
ENDBRANCH   1  20
TORSDOF 7
ENDMDL
MODEL 5
REMARK VINA RESULT:    -6.983      2.881      3.683
REMARK INTER + INTRA:         -11.203
REMARK INTER:                 -10.460
REMARK INTRA:                  -0.743
REMARK UNBOUND:                -1.363
REMARK  Name = 
REMARK  8 active torsions:
REMARK  status: ('A' for Active; 'I' for Inactive)
REMARK    1  A    between atoms: C_1  and  N_2
REMARK    2  A    between atoms: C_4  and  C_5
REMARK    3  A    between atoms: N_7  and  C_8
REMARK    4  A    between atoms: C_8  and  C_9
REMARK    5  A    between atoms: C_12  and  C_13
REMARK    6  A    between atoms: C_13  and  C_14
REMARK    7  A    between atoms: C_14  and  O_15
REMARK    8  A    between atoms: O_15  and  C_16
REMARK                            x       y       z     vdW  Elec       q    Type
REMARK                         _______ _______ _______ _____ _____    ______ ____
ROOT
ATOM      1  C   UNL     1      48.872   6.603  16.132  0.00  0.00    +0.000 C 
ENDROOT
BRANCH   1   2
ATOM      2  C   UNL     1      48.007   5.853  15.165  0.00  0.00    +0.000 A 
ATOM      3  C   UNL     1      47.820   6.302  13.861  0.00  0.00    +0.000 A 
ATOM      4  C   UNL     1      47.029   5.566  12.981  0.00  0.00    +0.000 A 
ATOM      5  C   UNL     1      46.425   4.385  13.417  0.00  0.00    +0.000 A 
ATOM      6  N   UNL     1      46.585   3.946  14.688  0.00  0.00    +0.000 NA
ATOM      7  C   UNL     1      47.354   4.682  15.529  0.00  0.00    +0.000 A 
BRANCH   5   8
ATOM      8  C   UNL     1      45.571   3.512  12.522  0.00  0.00    +0.000 C 
BRANCH   8   9
ATOM      9  C   UNL     1      44.074   3.807  12.593  0.00  0.00    +0.000 C 
BRANCH   9  10
ATOM     10  O   UNL     1      43.567   4.239  11.329  0.00  0.00    +0.000 OA
BRANCH  10  11
ATOM     11  C   UNL     1      44.310   3.824  10.249  0.00  0.00    +0.000 A 
ATOM     12  C   UNL     1      44.271   2.531   9.711  0.00  0.00    +0.000 A 
ATOM     13  C   UNL     1      45.054   2.202   8.599  0.00  0.00    +0.000 A 
ATOM     14  C   UNL     1      45.876   3.159   8.011  0.00  0.00    +0.000 A 
ATOM     15  C   UNL     1      45.913   4.452   8.531  0.00  0.00    +0.000 A 
ATOM     16  C   UNL     1      45.129   4.775   9.638  0.00  0.00    +0.000 A 
ATOM     17  F   UNL     1      45.190   6.025  10.123  0.00  0.00    +0.000 F 
ENDBRANCH  10  11
ENDBRANCH   9  10
ENDBRANCH   8   9
ENDBRANCH   5   8
ENDBRANCH   1   2
BRANCH   1  20
ATOM     18  C   UNL     1      49.968   5.400  17.973  0.00  0.00    +0.000 C 
ATOM     19  O   UNL     1      49.067   5.682  18.754  0.00  0.00    +0.000 OA
ATOM     20  N   UNL     1      49.946   5.790  16.652  0.00  0.00    +0.000 N 
ATOM     21  H   UNL     1      50.763   5.637  16.080  0.00  0.00    +0.000 HD
BRANCH  18  25
ATOM     22  C   UNL     1      54.428   4.181  19.844  0.00  0.00    +0.000 C 
ATOM     23  N   UNL     1      53.141   4.081  19.194  0.00  0.00    +0.000 N 
ATOM     24  C   UNL     1      52.212   5.080  19.093  0.00  0.00    +0.000 A 
ATOM     25  C   UNL     1      51.129   4.604  18.360  0.00  0.00    +0.000 A 
ATOM     26  C   UNL     1      51.430   3.236  18.024  0.00  0.00    +0.000 A 
ATOM     27  C   UNL     1      50.854   2.155  17.359  0.00  0.00    +0.000 A 
ATOM     28 CL   UNL     1      49.289   2.245  16.715  0.00  0.00    +0.000 Cl
ATOM     29  N   UNL     1      51.470   0.966  17.252  0.00  0.00    +0.000 NA
ATOM     30  C   UNL     1      52.680   0.856  17.813  0.00  0.00    +0.000 A 
ATOM     31  N   UNL     1      53.358   1.797  18.487  0.00  0.00    +0.000 NA
ATOM     32  C   UNL     1      52.685   2.959  18.561  0.00  0.00    +0.000 A 
ENDBRANCH  18  25
ENDBRANCH   1  20
TORSDOF 7
ENDMDL
MODEL 6
REMARK VINA RESULT:    -6.950      2.320      3.022
REMARK INTER + INTRA:         -11.157
REMARK INTER:                 -10.134
REMARK INTRA:                  -1.023
REMARK UNBOUND:                -1.363
REMARK  Name = 
REMARK  8 active torsions:
REMARK  status: ('A' for Active; 'I' for Inactive)
REMARK    1  A    between atoms: C_1  and  N_2
REMARK    2  A    between atoms: C_4  and  C_5
REMARK    3  A    between atoms: N_7  and  C_8
REMARK    4  A    between atoms: C_8  and  C_9
REMARK    5  A    between atoms: C_12  and  C_13
REMARK    6  A    between atoms: C_13  and  C_14
REMARK    7  A    between atoms: C_14  and  O_15
REMARK    8  A    between atoms: O_15  and  C_16
REMARK                            x       y       z     vdW  Elec       q    Type
REMARK                         _______ _______ _______ _____ _____    ______ ____
ROOT
ATOM      1  C   UNL     1      48.870   7.964  15.499  0.00  0.00    +0.000 C 
ENDROOT
BRANCH   1   2
ATOM      2  C   UNL     1      48.038   7.506  14.338  0.00  0.00    +0.000 A 
ATOM      3  C   UNL     1      47.944   6.159  14.002  0.00  0.00    +0.000 A 
ATOM      4  C   UNL     1      47.142   5.766  12.932  0.00  0.00    +0.000 A 
ATOM      5  C   UNL     1      46.443   6.729  12.202  0.00  0.00    +0.000 A 
ATOM      6  N   UNL     1      46.540   8.045  12.507  0.00  0.00    +0.000 NA
ATOM      7  C   UNL     1      47.331   8.405  13.549  0.00  0.00    +0.000 A 
BRANCH   5   8
ATOM      8  C   UNL     1      45.531   6.389  11.042  0.00  0.00    +0.000 C 
BRANCH   8   9
ATOM      9  C   UNL     1      44.884   5.008  11.129  0.00  0.00    +0.000 C 
BRANCH   9  10
ATOM     10  O   UNL     1      44.252   4.650   9.900  0.00  0.00    +0.000 OA
BRANCH  10  11
ATOM     11  C   UNL     1      45.027   3.880   9.067  0.00  0.00    +0.000 A 
ATOM     12  C   UNL     1      45.913   4.393   8.109  0.00  0.00    +0.000 A 
ATOM     13  C   UNL     1      46.673   3.531   7.312  0.00  0.00    +0.000 A 
ATOM     14  C   UNL     1      46.565   2.152   7.468  0.00  0.00    +0.000 A 
ATOM     15  C   UNL     1      45.697   1.631   8.426  0.00  0.00    +0.000 A 
ATOM     16  C   UNL     1      44.942   2.494   9.219  0.00  0.00    +0.000 A 
ATOM     17  F   UNL     1      44.108   1.965  10.127  0.00  0.00    +0.000 F 
ENDBRANCH  10  11
ENDBRANCH   9  10
ENDBRANCH   8   9
ENDBRANCH   5   8
ENDBRANCH   1   2
BRANCH   1  20
ATOM     18  C   UNL     1      49.648   6.347  17.178  0.00  0.00    +0.000 C 
ATOM     19  O   UNL     1      48.716   6.608  17.928  0.00  0.00    +0.000 OA
ATOM     20  N   UNL     1      49.792   6.948  15.946  0.00  0.00    +0.000 N 
ATOM     21  H   UNL     1      50.638   6.790  15.417  0.00  0.00    +0.000 HD
BRANCH  18  25
ATOM     22  C   UNL     1      54.040   4.375  18.479  0.00  0.00    +0.000 C 
ATOM     23  N   UNL     1      52.658   4.495  18.077  0.00  0.00    +0.000 N 
ATOM     24  C   UNL     1      51.954   5.662  17.954  0.00  0.00    +0.000 A 
ATOM     25  C   UNL     1      50.673   5.359  17.503  0.00  0.00    +0.000 A 
ATOM     26  C   UNL     1      50.610   3.927  17.371  0.00  0.00    +0.000 A 
ATOM     27  C   UNL     1      49.702   2.933  17.011  0.00  0.00    +0.000 A 
ATOM     28 CL   UNL     1      48.094   3.302  16.626  0.00  0.00    +0.000 Cl
ATOM     29  N   UNL     1      50.025   1.628  17.017  0.00  0.00    +0.000 NA
ATOM     30  C   UNL     1      51.273   1.313  17.383  0.00  0.00    +0.000 A 
ATOM     31  N   UNL     1      52.251   2.149  17.760  0.00  0.00    +0.000 NA
ATOM     32  C   UNL     1      51.862   3.436  17.736  0.00  0.00    +0.000 A 
ENDBRANCH  18  25
ENDBRANCH   1  20
TORSDOF 7
ENDMDL
MODEL 7
REMARK VINA RESULT:    -6.913      3.543      4.842
REMARK INTER + INTRA:         -11.106
REMARK INTER:                 -10.094
REMARK INTRA:                  -1.012
REMARK UNBOUND:                -1.363
REMARK  Name = 
REMARK  8 active torsions:
REMARK  status: ('A' for Active; 'I' for Inactive)
REMARK    1  A    between atoms: C_1  and  N_2
REMARK    2  A    between atoms: C_4  and  C_5
REMARK    3  A    between atoms: N_7  and  C_8
REMARK    4  A    between atoms: C_8  and  C_9
REMARK    5  A    between atoms: C_12  and  C_13
REMARK    6  A    between atoms: C_13  and  C_14
REMARK    7  A    between atoms: C_14  and  O_15
REMARK    8  A    between atoms: O_15  and  C_16
REMARK                            x       y       z     vdW  Elec       q    Type
REMARK                         _______ _______ _______ _____ _____    ______ ____
ROOT
ATOM      1  C   UNL     1      47.069   7.247  13.470  0.00  0.00    +0.000 C 
ENDROOT
BRANCH   1   2
ATOM      2  C   UNL     1      46.324   6.146  12.777  0.00  0.00    +0.000 A 
ATOM      3  C   UNL     1      45.915   6.270  11.452  0.00  0.00    +0.000 A 
ATOM      4  C   UNL     1      45.247   5.217  10.832  0.00  0.00    +0.000 A 
ATOM      5  C   UNL     1      44.987   4.046  11.547  0.00  0.00    +0.000 A 
ATOM      6  N   UNL     1      45.363   3.919  12.841  0.00  0.00    +0.000 NA
ATOM      7  C   UNL     1      46.008   4.960  13.427  0.00  0.00    +0.000 A 
BRANCH   5   8
ATOM      8  C   UNL     1      44.289   2.845  10.945  0.00  0.00    +0.000 C 
BRANCH   8   9
ATOM      9  C   UNL     1      44.455   2.709   9.432  0.00  0.00    +0.000 C 
BRANCH   9  10
ATOM     10  O   UNL     1      45.485   1.776   9.102  0.00  0.00    +0.000 OA
BRANCH  10  11
ATOM     11  C   UNL     1      46.119   2.030   7.910  0.00  0.00    +0.000 A 
ATOM     12  C   UNL     1      46.127   3.275   7.266  0.00  0.00    +0.000 A 
ATOM     13  C   UNL     1      46.812   3.444   6.058  0.00  0.00    +0.000 A 
ATOM     14  C   UNL     1      47.500   2.378   5.485  0.00  0.00    +0.000 A 
ATOM     15  C   UNL     1      47.509   1.138   6.123  0.00  0.00    +0.000 A 
ATOM     16  C   UNL     1      46.826   0.976   7.328  0.00  0.00    +0.000 A 
ATOM     17  F   UNL     1      46.844  -0.231   7.917  0.00  0.00    +0.000 F 
ENDBRANCH  10  11
ENDBRANCH   9  10
ENDBRANCH   8   9
ENDBRANCH   5   8
ENDBRANCH   1   2
BRANCH   1  20
ATOM     18  C   UNL     1      48.904   8.287  12.209  0.00  0.00    +0.000 C 
ATOM     19  O   UNL     1      48.172   9.171  11.783  0.00  0.00    +0.000 OA
ATOM     20  N   UNL     1      48.454   7.308  13.069  0.00  0.00    +0.000 N 
ATOM     21  H   UNL     1      49.063   6.536  13.297  0.00  0.00    +0.000 HD
BRANCH  18  25
ATOM     22  C   UNL     1      53.108   7.104   9.800  0.00  0.00    +0.000 C 
ATOM     23  N   UNL     1      52.199   7.650  10.781  0.00  0.00    +0.000 N 
ATOM     24  C   UNL     1      50.832   7.614  10.719  0.00  0.00    +0.000 A 
ATOM     25  C   UNL     1      50.323   8.204  11.872  0.00  0.00    +0.000 A 
ATOM     26  C   UNL     1      51.455   8.630  12.652  0.00  0.00    +0.000 A 
ATOM     27  C   UNL     1      51.733   9.281  13.852  0.00  0.00    +0.000 A 
ATOM     28 CL   UNL     1      50.494   9.897  14.831  0.00  0.00    +0.000 Cl
ATOM     29  N   UNL     1      52.989   9.521  14.266  0.00  0.00    +0.000 NA
ATOM     30  C   UNL     1      53.981   9.100  13.473  0.00  0.00    +0.000 A 
ATOM     31  N   UNL     1      53.874   8.469  12.294  0.00  0.00    +0.000 NA
ATOM     32  C   UNL     1      52.594   8.265  11.937  0.00  0.00    +0.000 A 
ENDBRANCH  18  25
ENDBRANCH   1  20
TORSDOF 7
ENDMDL
MODEL 8
REMARK VINA RESULT:    -6.817      2.428      3.484
REMARK INTER + INTRA:         -10.970
REMARK INTER:                  -9.859
REMARK INTRA:                  -1.111
REMARK UNBOUND:                -1.363
REMARK  Name = 
REMARK  8 active torsions:
REMARK  status: ('A' for Active; 'I' for Inactive)
REMARK    1  A    between atoms: C_1  and  N_2
REMARK    2  A    between atoms: C_4  and  C_5
REMARK    3  A    between atoms: N_7  and  C_8
REMARK    4  A    between atoms: C_8  and  C_9
REMARK    5  A    between atoms: C_12  and  C_13
REMARK    6  A    between atoms: C_13  and  C_14
REMARK    7  A    between atoms: C_14  and  O_15
REMARK    8  A    between atoms: O_15  and  C_16
REMARK                            x       y       z     vdW  Elec       q    Type
REMARK                         _______ _______ _______ _____ _____    ______ ____
ROOT
ATOM      1  C   UNL     1      47.437   3.907  15.542  0.00  0.00    +0.000 C 
ENDROOT
BRANCH   1   2
ATOM      2  C   UNL     1      46.818   4.290  14.231  0.00  0.00    +0.000 A 
ATOM      3  C   UNL     1      46.272   3.333  13.381  0.00  0.00    +0.000 A 
ATOM      4  C   UNL     1      45.682   3.727  12.182  0.00  0.00    +0.000 A 
ATOM      5  C   UNL     1      45.649   5.080  11.839  0.00  0.00    +0.000 A 
ATOM      6  N   UNL     1      46.194   6.019  12.648  0.00  0.00    +0.000 NA
ATOM      7  C   UNL     1      46.768   5.612  13.808  0.00  0.00    +0.000 A 
BRANCH   5   8
ATOM      8  C   UNL     1      45.008   5.598  10.568  0.00  0.00    +0.000 C 
BRANCH   8   9
ATOM      9  C   UNL     1      45.815   5.331   9.299  0.00  0.00    +0.000 C 
BRANCH   9  10
ATOM     10  O   UNL     1      45.087   4.514   8.381  0.00  0.00    +0.000 OA
BRANCH  10  11
ATOM     11  C   UNL     1      45.687   3.311   8.094  0.00  0.00    +0.000 A 
ATOM     12  C   UNL     1      45.380   2.101   8.730  0.00  0.00    +0.000 A 
ATOM     13  C   UNL     1      46.035   0.921   8.363  0.00  0.00    +0.000 A 
ATOM     14  C   UNL     1      46.994   0.934   7.355  0.00  0.00    +0.000 A 
ATOM     15  C   UNL     1      47.298   2.130   6.706  0.00  0.00    +0.000 A 
ATOM     16  C   UNL     1      46.642   3.304   7.075  0.00  0.00    +0.000 A 
ATOM     17  F   UNL     1      46.961   4.443   6.440  0.00  0.00    +0.000 F 
ENDBRANCH  10  11
ENDBRANCH   9  10
ENDBRANCH   8   9
ENDBRANCH   5   8
ENDBRANCH   1   2
BRANCH   1  20
ATOM     18  C   UNL     1      48.518   5.538  17.028  0.00  0.00    +0.000 C 
ATOM     19  O   UNL     1      49.636   5.197  16.665  0.00  0.00    +0.000 OA
ATOM     20  N   UNL     1      47.372   4.976  16.510  0.00  0.00    +0.000 N 
ATOM     21  H   UNL     1      46.480   5.204  16.925  0.00  0.00    +0.000 HD
BRANCH  18  25
ATOM     22  C   UNL     1      47.456   7.778  21.357  0.00  0.00    +0.000 C 
ATOM     23  N   UNL     1      47.801   7.574  19.969  0.00  0.00    +0.000 N 
ATOM     24  C   UNL     1      48.038   6.367  19.368  0.00  0.00    +0.000 A 
ATOM     25  C   UNL     1      48.293   6.589  18.018  0.00  0.00    +0.000 A 
ATOM     26  C   UNL     1      48.221   8.012  17.813  0.00  0.00    +0.000 A 
ATOM     27  C   UNL     1      48.372   8.946  16.791  0.00  0.00    +0.000 A 
ATOM     28 CL   UNL     1      48.843   8.481  15.231  0.00  0.00    +0.000 Cl
ATOM     29  N   UNL     1      48.226  10.267  16.995  0.00  0.00    +0.000 NA
ATOM     30  C   UNL     1      47.919  10.658  18.238  0.00  0.00    +0.000 A 
ATOM     31  N   UNL     1      47.748   9.885  19.320  0.00  0.00    +0.000 NA
ATOM     32  C   UNL     1      47.913   8.579  19.048  0.00  0.00    +0.000 A 
ENDBRANCH  18  25
ENDBRANCH   1  20
TORSDOF 7
ENDMDL
MODEL 9
REMARK VINA RESULT:    -6.801      2.784      4.530
REMARK INTER + INTRA:         -10.947
REMARK INTER:                 -10.053
REMARK INTRA:                  -0.894
REMARK UNBOUND:                -1.363
REMARK  Name = 
REMARK  8 active torsions:
REMARK  status: ('A' for Active; 'I' for Inactive)
REMARK    1  A    between atoms: C_1  and  N_2
REMARK    2  A    between atoms: C_4  and  C_5
REMARK    3  A    between atoms: N_7  and  C_8
REMARK    4  A    between atoms: C_8  and  C_9
REMARK    5  A    between atoms: C_12  and  C_13
REMARK    6  A    between atoms: C_13  and  C_14
REMARK    7  A    between atoms: C_14  and  O_15
REMARK    8  A    between atoms: O_15  and  C_16
REMARK                            x       y       z     vdW  Elec       q    Type
REMARK                         _______ _______ _______ _____ _____    ______ ____
ROOT
ATOM      1  C   UNL     1      47.607   5.459  14.541  0.00  0.00    +0.000 C 
ENDROOT
BRANCH   1   2
ATOM      2  C   UNL     1      46.665   4.922  13.506  0.00  0.00    +0.000 A 
ATOM      3  C   UNL     1      46.471   3.554  13.344  0.00  0.00    +0.000 A 
ATOM      4  C   UNL     1      45.568   3.091  12.388  0.00  0.00    +0.000 A 
ATOM      5  C   UNL     1      44.870   4.004  11.596  0.00  0.00    +0.000 A 
ATOM      6  N   UNL     1      45.063   5.338  11.731  0.00  0.00    +0.000 NA
ATOM      7  C   UNL     1      45.951   5.766  12.664  0.00  0.00    +0.000 A 
BRANCH   5   8
ATOM      8  C   UNL     1      43.855   3.590  10.552  0.00  0.00    +0.000 C 
BRANCH   8   9
ATOM      9  C   UNL     1      44.416   3.470   9.137  0.00  0.00    +0.000 C 
BRANCH   9  10
ATOM     10  O   UNL     1      45.381   2.420   9.045  0.00  0.00    +0.000 OA
BRANCH  10  11
ATOM     11  C   UNL     1      46.077   2.392   7.861  0.00  0.00    +0.000 A 
ATOM     12  C   UNL     1      46.327   3.515   7.061  0.00  0.00    +0.000 A 
ATOM     13  C   UNL     1      47.058   3.394   5.875  0.00  0.00    +0.000 A 
ATOM     14  C   UNL     1      47.554   2.155   5.480  0.00  0.00    +0.000 A 
ATOM     15  C   UNL     1      47.322   1.032   6.274  0.00  0.00    +0.000 A 
ATOM     16  C   UNL     1      46.594   1.159   7.456  0.00  0.00    +0.000 A 
ATOM     17  F   UNL     1      46.378   0.061   8.197  0.00  0.00    +0.000 F 
ENDBRANCH  10  11
ENDBRANCH   9  10
ENDBRANCH   8   9
ENDBRANCH   5   8
ENDBRANCH   1   2
BRANCH   1  20
ATOM     18  C   UNL     1      49.038   7.441  14.795  0.00  0.00    +0.000 C 
ATOM     19  O   UNL     1      49.946   6.779  15.283  0.00  0.00    +0.000 OA
ATOM     20  N   UNL     1      47.855   6.872  14.375  0.00  0.00    +0.000 N 
ATOM     21  H   UNL     1      47.094   7.471  14.092  0.00  0.00    +0.000 HD
BRANCH  18  25
ATOM     22  C   UNL     1      49.291  12.329  15.755  0.00  0.00    +0.000 C 
ATOM     23  N   UNL     1      49.233  11.074  15.040  0.00  0.00    +0.000 N 
ATOM     24  C   UNL     1      49.251   9.827  15.603  0.00  0.00    +0.000 A 
ATOM     25  C   UNL     1      49.134   8.883  14.587  0.00  0.00    +0.000 A 
ATOM     26  C   UNL     1      49.061   9.616  13.350  0.00  0.00    +0.000 A 
ATOM     27  C   UNL     1      48.961   9.380  11.980  0.00  0.00    +0.000 A 
ATOM     28 CL   UNL     1      48.967   7.806  11.352  0.00  0.00    +0.000 Cl
ATOM     29  N   UNL     1      48.925  10.376  11.079  0.00  0.00    +0.000 NA
ATOM     30  C   UNL     1      48.987  11.626  11.554  0.00  0.00    +0.000 A 
ATOM     31  N   UNL     1      49.091  12.011  12.834  0.00  0.00    +0.000 NA
ATOM     32  C   UNL     1      49.126  10.967  13.681  0.00  0.00    +0.000 A 
ENDBRANCH  18  25
ENDBRANCH   1  20
TORSDOF 7
ENDMDL
