MODEL 1
REMARK VINA RESULT:    -8.006      0.000      0.000
REMARK INTER + INTRA:         -11.445
REMARK INTER:                 -10.814
REMARK INTRA:                  -0.631
REMARK UNBOUND:                -0.631
REMARK  Name = 
REMARK  6 active torsions:
REMARK  status: ('A' for Active; 'I' for Inactive)
REMARK    1  A    between atoms: C_2  and  C_4
REMARK    2  A    between atoms: C_7  and  C_8
REMARK    3  A    between atoms: C_8  and  C_9
REMARK    4  A    between atoms: C_9  and  N_10
REMARK    5  A    between atoms: C_15  and  O_16
REMARK    6  A    between atoms: O_16  and  C_17
REMARK                            x       y       z     vdW  Elec       q    Type
REMARK                         _______ _______ _______ _____ _____    ______ ____
ROOT
ATOM      1  N   UNL     1      44.986   5.834  11.652  0.00  0.00    +0.000 N 
ATOM      2  C   UNL     1      45.977   6.083  12.622  0.00  0.00    +0.000 A 
ATOM      3  C   UNL     1      46.542   7.353  12.697  0.00  0.00    +0.000 A 
ATOM      4  C   UNL     1      47.607   7.574  13.571  0.00  0.00    +0.000 A 
ATOM      5  C   UNL     1      48.066   6.528  14.363  0.00  0.00    +0.000 A 
ATOM      6  C   UNL     1      47.403   5.319  14.280  0.00  0.00    +0.000 A 
ATOM      7  N   UNL     1      46.389   5.082  13.423  0.00  0.00    +0.000 NA
ATOM      8  H   UNL     1      44.210   6.474  11.795  0.00  0.00    +0.000 HD
ENDROOT
BRANCH   1   9
ATOM      9  C   UNL     1      44.584   4.424  11.613  0.00  0.00    +0.000 C 
BRANCH   9  10
ATOM     10  C   UNL     1      43.858   4.094  10.309  0.00  0.00    +0.000 C 
BRANCH  10  14
ATOM     11  C   UNL     1      46.628   2.387   7.461  0.00  0.00    +0.000 A 
ATOM     12  C   UNL     1      45.945   1.558   8.360  0.00  0.00    +0.000 A 
ATOM     13  C   UNL     1      45.041   2.111   9.273  0.00  0.00    +0.000 A 
ATOM     14  C   UNL     1      44.809   3.492   9.299  0.00  0.00    +0.000 A 
ATOM     15  C   UNL     1      45.516   4.319   8.413  0.00  0.00    +0.000 A 
ATOM     16  C   UNL     1      46.423   3.769   7.504  0.00  0.00    +0.000 A 
BRANCH  11  18
ATOM     17  N   UNL     1      48.740   2.564   6.257  0.00  0.00    +0.000 N 
ATOM     18  C   UNL     1      47.595   1.846   6.468  0.00  0.00    +0.000 C 
ATOM     19  O   UNL     1      47.399   0.784   5.891  0.00  0.00    +0.000 OA
ATOM     20  H   UNL     1      49.436   2.113   5.672  0.00  0.00    +0.000 HD
ATOM     21  H   UNL     1      49.056   3.275   6.897  0.00  0.00    +0.000 HD
ENDBRANCH  11  18
ENDBRANCH  10  14
ENDBRANCH   9  10
ENDBRANCH   1   9
BRANCH   6  22
ATOM     22  O   UNL     1      47.819   4.295  15.107  0.00  0.00    +0.000 OA
BRANCH  22  23
ATOM     23  C   UNL     1      47.884   4.718  16.480  0.00  0.00    +0.000 C 
ATOM     24  C   UNL     1      49.252   4.355  17.035  0.00  0.00    +0.000 C 
ATOM     25  C   UNL     1      49.059   2.980  17.638  0.00  0.00    +0.000 C 
ATOM     26  N   UNL     1      47.691   2.946  18.152  0.00  0.00    +0.000 NA
ATOM     27  C   UNL     1      46.918   3.946  17.388  0.00  0.00    +0.000 C 
ATOM     28  H   UNL     1      47.681   3.200  19.140  0.00  0.00    +0.000 HD
ENDBRANCH  22  23
ENDBRANCH   6  22
TORSDOF 6
ENDMDL
MODEL 2
REMARK VINA RESULT:    -7.531      2.396      3.136
REMARK INTER + INTRA:         -10.803
REMARK INTER:                 -10.106
REMARK INTRA:                  -0.697
REMARK UNBOUND:                -0.631
REMARK  Name = 
REMARK  6 active torsions:
REMARK  status: ('A' for Active; 'I' for Inactive)
REMARK    1  A    between atoms: C_2  and  C_4
REMARK    2  A    between atoms: C_7  and  C_8
REMARK    3  A    between atoms: C_8  and  C_9
REMARK    4  A    between atoms: C_9  and  N_10
REMARK    5  A    between atoms: C_15  and  O_16
REMARK    6  A    between atoms: O_16  and  C_17
REMARK                            x       y       z     vdW  Elec       q    Type
REMARK                         _______ _______ _______ _____ _____    ______ ____
ROOT
ATOM      1  N   UNL     1      43.665   6.419  10.772  0.00  0.00    +0.000 N 
ATOM      2  C   UNL     1      44.285   7.527  11.384  0.00  0.00    +0.000 A 
ATOM      3  C   UNL     1      43.871   8.809  11.033  0.00  0.00    +0.000 A 
ATOM      4  C   UNL     1      44.561   9.910  11.542  0.00  0.00    +0.000 A 
ATOM      5  C   UNL     1      45.631   9.704  12.405  0.00  0.00    +0.000 A 
ATOM      6  C   UNL     1      45.930   8.403  12.759  0.00  0.00    +0.000 A 
ATOM      7  N   UNL     1      45.291   7.327  12.257  0.00  0.00    +0.000 NA
ATOM      8  H   UNL     1      42.667   6.450  10.960  0.00  0.00    +0.000 HD
ENDROOT
BRANCH   1   9
ATOM      9  C   UNL     1      44.295   5.149  11.146  0.00  0.00    +0.000 C 
BRANCH   9  10
ATOM     10  C   UNL     1      43.713   3.987  10.342  0.00  0.00    +0.000 C 
BRANCH  10  14
ATOM     11  C   UNL     1      46.656   2.476   7.558  0.00  0.00    +0.000 A 
ATOM     12  C   UNL     1      45.940   1.590   8.372  0.00  0.00    +0.000 A 
ATOM     13  C   UNL     1      44.980   2.080   9.264  0.00  0.00    +0.000 A 
ATOM     14  C   UNL     1      44.725   3.454   9.353  0.00  0.00    +0.000 A 
ATOM     15  C   UNL     1      45.465   4.337   8.553  0.00  0.00    +0.000 A 
ATOM     16  C   UNL     1      46.427   3.851   7.664  0.00  0.00    +0.000 A 
BRANCH  11  18
ATOM     17  N   UNL     1      48.686   2.875   6.269  0.00  0.00    +0.000 N 
ATOM     18  C   UNL     1      47.682   2.003   6.589  0.00  0.00    +0.000 C 
ATOM     19  O   UNL     1      47.657   0.870   6.127  0.00  0.00    +0.000 OA
ATOM     20  H   UNL     1      49.437   2.488   5.707  0.00  0.00    +0.000 HD
ATOM     21  H   UNL     1      48.889   3.691   6.824  0.00  0.00    +0.000 HD
ENDBRANCH  11  18
ENDBRANCH  10  14
ENDBRANCH   9  10
ENDBRANCH   1   9
BRANCH   6  22
ATOM     22  O   UNL     1      46.955   8.198  13.661  0.00  0.00    +0.000 OA
BRANCH  22  23
ATOM     23  C   UNL     1      47.680   6.989  13.371  0.00  0.00    +0.000 C 
ATOM     24  C   UNL     1      48.226   6.428  14.673  0.00  0.00    +0.000 C 
ATOM     25  C   UNL     1      49.609   7.034  14.792  0.00  0.00    +0.000 C 
ATOM     26  N   UNL     1      50.116   7.167  13.427  0.00  0.00    +0.000 NA
ATOM     27  C   UNL     1      48.942   7.237  12.535  0.00  0.00    +0.000 C 
ATOM     28  H   UNL     1      50.676   6.351  13.181  0.00  0.00    +0.000 HD
ENDBRANCH  22  23
ENDBRANCH   6  22
TORSDOF 6
ENDMDL
MODEL 3
REMARK VINA RESULT:    -7.418      2.322      4.287
REMARK INTER + INTRA:         -10.651
REMARK INTER:                  -9.900
REMARK INTRA:                  -0.751
REMARK UNBOUND:                -0.631
REMARK  Name = 
REMARK  6 active torsions:
REMARK  status: ('A' for Active; 'I' for Inactive)
REMARK    1  A    between atoms: C_2  and  C_4
REMARK    2  A    between atoms: C_7  and  C_8
REMARK    3  A    between atoms: C_8  and  C_9
REMARK    4  A    between atoms: C_9  and  N_10
REMARK    5  A    between atoms: C_15  and  O_16
REMARK    6  A    between atoms: O_16  and  C_17
REMARK                            x       y       z     vdW  Elec       q    Type
REMARK                         _______ _______ _______ _____ _____    ______ ____
ROOT
ATOM      1  N   UNL     1      44.904   4.671  12.298  0.00  0.00    +0.000 N 
ATOM      2  C   UNL     1      46.103   5.288  12.705  0.00  0.00    +0.000 A 
ATOM      3  C   UNL     1      46.637   4.966  13.950  0.00  0.00    +0.000 A 
ATOM      4  C   UNL     1      47.756   5.661  14.412  0.00  0.00    +0.000 A 
ATOM      5  C   UNL     1      48.325   6.644  13.610  0.00  0.00    +0.000 A 
ATOM      6  C   UNL     1      47.777   6.851  12.360  0.00  0.00    +0.000 A 
ATOM      7  N   UNL     1      46.682   6.207  11.908  0.00  0.00    +0.000 NA
ATOM      8  H   UNL     1      45.033   3.663  12.291  0.00  0.00    +0.000 HD
ENDROOT
BRANCH   1   9
ATOM      9  C   UNL     1      44.403   5.207  11.028  0.00  0.00    +0.000 C 
BRANCH   9  10
ATOM     10  C   UNL     1      43.747   4.111  10.188  0.00  0.00    +0.000 C 
BRANCH  10  14
ATOM     11  C   UNL     1      46.625   2.417   7.441  0.00  0.00    +0.000 A 
ATOM     12  C   UNL     1      45.947   1.590   8.346  0.00  0.00    +0.000 A 
ATOM     13  C   UNL     1      45.008   2.139   9.226  0.00  0.00    +0.000 A 
ATOM     14  C   UNL     1      44.736   3.513   9.213  0.00  0.00    +0.000 A 
ATOM     15  C   UNL     1      45.438   4.338   8.321  0.00  0.00    +0.000 A 
ATOM     16  C   UNL     1      46.379   3.793   7.445  0.00  0.00    +0.000 A 
BRANCH  11  18
ATOM     17  N   UNL     1      48.784   2.593   6.324  0.00  0.00    +0.000 N 
ATOM     18  C   UNL     1      47.627   1.880   6.481  0.00  0.00    +0.000 C 
ATOM     19  O   UNL     1      47.448   0.825   5.886  0.00  0.00    +0.000 OA
ATOM     20  H   UNL     1      49.500   2.144   5.763  0.00  0.00    +0.000 HD
ATOM     21  H   UNL     1      49.078   3.295   6.983  0.00  0.00    +0.000 HD
ENDBRANCH  11  18
ENDBRANCH  10  14
ENDBRANCH   9  10
ENDBRANCH   1   9
BRANCH   6  22
ATOM     22  O   UNL     1      48.375   7.787  11.539  0.00  0.00    +0.000 OA
BRANCH  22  23
ATOM     23  C   UNL     1      48.758   8.965  12.271  0.00  0.00    +0.000 C 
ATOM     24  C   UNL     1      47.530   9.838  12.462  0.00  0.00    +0.000 C 
ATOM     25  C   UNL     1      47.545  10.773  11.271  0.00  0.00    +0.000 C 
ATOM     26  N   UNL     1      48.954  11.018  10.961  0.00  0.00    +0.000 NA
ATOM     27  C   UNL     1      49.717   9.868  11.485  0.00  0.00    +0.000 C 
ATOM     28  H   UNL     1      49.271  11.870  11.424  0.00  0.00    +0.000 HD
ENDBRANCH  22  23
ENDBRANCH   6  22
TORSDOF 6
ENDMDL
MODEL 4
REMARK VINA RESULT:    -7.344      3.332      5.534
REMARK INTER + INTRA:         -10.551
REMARK INTER:                  -9.971
REMARK INTRA:                  -0.580
REMARK UNBOUND:                -0.631
REMARK  Name = 
REMARK  6 active torsions:
REMARK  status: ('A' for Active; 'I' for Inactive)
REMARK    1  A    between atoms: C_2  and  C_4
REMARK    2  A    between atoms: C_7  and  C_8
REMARK    3  A    between atoms: C_8  and  C_9
REMARK    4  A    between atoms: C_9  and  N_10
REMARK    5  A    between atoms: C_15  and  O_16
REMARK    6  A    between atoms: O_16  and  C_17
REMARK                            x       y       z     vdW  Elec       q    Type
REMARK                         _______ _______ _______ _____ _____    ______ ____
ROOT
ATOM      1  N   UNL     1      45.698   4.988  11.724  0.00  0.00    +0.000 N 
ATOM      2  C   UNL     1      46.048   6.347  11.839  0.00  0.00    +0.000 A 
ATOM      3  C   UNL     1      47.391   6.686  11.989  0.00  0.00    +0.000 A 
ATOM      4  C   UNL     1      47.735   8.018  12.224  0.00  0.00    +0.000 A 
ATOM      5  C   UNL     1      46.732   8.980  12.281  0.00  0.00    +0.000 A 
ATOM      6  C   UNL     1      45.434   8.571  12.049  0.00  0.00    +0.000 A 
ATOM      7  N   UNL     1      45.081   7.285  11.846  0.00  0.00    +0.000 NA
ATOM      8  H   UNL     1      46.176   4.586  10.924  0.00  0.00    +0.000 HD
ENDROOT
BRANCH   1   9
ATOM      9  C   UNL     1      44.245   4.785  11.703  0.00  0.00    +0.000 C 
BRANCH   9  10
ATOM     10  C   UNL     1      43.727   4.662  10.270  0.00  0.00    +0.000 C 
BRANCH  10  14
ATOM     11  C   UNL     1      46.481   2.477   7.753  0.00  0.00    +0.000 A 
ATOM     12  C   UNL     1      46.408   3.873   7.667  0.00  0.00    +0.000 A 
ATOM     13  C   UNL     1      45.524   4.579   8.490  0.00  0.00    +0.000 A 
ATOM     14  C   UNL     1      44.708   3.902   9.405  0.00  0.00    +0.000 A 
ATOM     15  C   UNL     1      44.768   2.502   9.466  0.00  0.00    +0.000 A 
ATOM     16  C   UNL     1      45.647   1.795   8.642  0.00  0.00    +0.000 A 
BRANCH  11  18
ATOM     17  N   UNL     1      48.516   2.324   6.419  0.00  0.00    +0.000 N 
ATOM     18  C   UNL     1      47.410   1.682   6.903  0.00  0.00    +0.000 C 
ATOM     19  O   UNL     1      47.218   0.494   6.677  0.00  0.00    +0.000 OA
ATOM     20  H   UNL     1      49.193   1.732   5.950  0.00  0.00    +0.000 HD
ATOM     21  H   UNL     1      48.843   3.197   6.801  0.00  0.00    +0.000 HD
ENDBRANCH  11  18
ENDBRANCH  10  14
ENDBRANCH   9  10
ENDBRANCH   1   9
BRANCH   6  22
ATOM     22  O   UNL     1      44.443   9.532  12.048  0.00  0.00    +0.000 OA
BRANCH  22  23
ATOM     23  C   UNL     1      44.024   9.858  10.711  0.00  0.00    +0.000 C 
ATOM     24  C   UNL     1      44.438  11.288  10.408  0.00  0.00    +0.000 C 
ATOM     25  C   UNL     1      43.239  12.120  10.811  0.00  0.00    +0.000 C 
ATOM     26  N   UNL     1      42.060  11.301  10.531  0.00  0.00    +0.000 NA
ATOM     27  C   UNL     1      42.498   9.891  10.557  0.00  0.00    +0.000 C 
ATOM     28  H   UNL     1      41.693  11.521   9.605  0.00  0.00    +0.000 HD
ENDBRANCH  22  23
ENDBRANCH   6  22
TORSDOF 6
ENDMDL
MODEL 5
REMARK VINA RESULT:    -7.022      1.811      7.841
REMARK INTER + INTRA:         -10.116
REMARK INTER:                  -9.904
REMARK INTRA:                  -0.212
REMARK UNBOUND:                -0.631
REMARK  Name = 
REMARK  6 active torsions:
REMARK  status: ('A' for Active; 'I' for Inactive)
REMARK    1  A    between atoms: C_2  and  C_4
REMARK    2  A    between atoms: C_7  and  C_8
REMARK    3  A    between atoms: C_8  and  C_9
REMARK    4  A    between atoms: C_9  and  N_10
REMARK    5  A    between atoms: C_15  and  O_16
REMARK    6  A    between atoms: O_16  and  C_17
REMARK                            x       y       z     vdW  Elec       q    Type
REMARK                         _______ _______ _______ _____ _____    ______ ____
ROOT
ATOM      1  N   UNL     1      45.931   7.195  11.852  0.00  0.00    +0.000 N 
ATOM      2  C   UNL     1      45.023   6.173  11.510  0.00  0.00    +0.000 A 
ATOM      3  C   UNL     1      43.659   6.401  11.675  0.00  0.00    +0.000 A 
ATOM      4  C   UNL     1      42.763   5.354  11.455  0.00  0.00    +0.000 A 
ATOM      5  C   UNL     1      43.248   4.115  11.054  0.00  0.00    +0.000 A 
ATOM      6  C   UNL     1      44.607   3.994  10.844  0.00  0.00    +0.000 A 
ATOM      7  N   UNL     1      45.490   4.986  11.076  0.00  0.00    +0.000 NA
ATOM      8  H   UNL     1      45.721   8.024  11.305  0.00  0.00    +0.000 HD
ENDROOT
BRANCH   1   9
ATOM      9  C   UNL     1      47.328   6.760  11.745  0.00  0.00    +0.000 C 
BRANCH   9  10
ATOM     10  C   UNL     1      48.152   7.254  12.933  0.00  0.00    +0.000 C 
BRANCH  10  14
ATOM     11  C   UNL     1      47.638   4.652  16.348  0.00  0.00    +0.000 A 
ATOM     12  C   UNL     1      48.471   5.774  16.439  0.00  0.00    +0.000 A 
ATOM     13  C   UNL     1      48.627   6.621  15.337  0.00  0.00    +0.000 A 
ATOM     14  C   UNL     1      47.956   6.359  14.136  0.00  0.00    +0.000 A 
ATOM     15  C   UNL     1      47.144   5.218  14.044  0.00  0.00    +0.000 A 
ATOM     16  C   UNL     1      46.990   4.369  15.142  0.00  0.00    +0.000 A 
BRANCH  11  18
ATOM     17  N   UNL     1      48.194   3.939  18.612  0.00  0.00    +0.000 N 
ATOM     18  C   UNL     1      47.435   3.725  17.494  0.00  0.00    +0.000 C 
ATOM     19  O   UNL     1      46.597   2.833  17.460  0.00  0.00    +0.000 OA
ATOM     20  H   UNL     1      47.949   3.376  19.419  0.00  0.00    +0.000 HD
ATOM     21  H   UNL     1      48.679   4.806  18.776  0.00  0.00    +0.000 HD
ENDBRANCH  11  18
ENDBRANCH  10  14
ENDBRANCH   9  10
ENDBRANCH   1   9
BRANCH   6  22
ATOM     22  O   UNL     1      45.086   2.781  10.390  0.00  0.00    +0.000 OA
BRANCH  22  23
ATOM     23  C   UNL     1      44.685   2.528   9.032  0.00  0.00    +0.000 C 
ATOM     24  C   UNL     1      45.723   1.631   8.379  0.00  0.00    +0.000 C 
ATOM     25  C   UNL     1      46.700   2.594   7.738  0.00  0.00    +0.000 C 
ATOM     26  N   UNL     1      45.915   3.751   7.312  0.00  0.00    +0.000 NA
ATOM     27  C   UNL     1      44.707   3.789   8.160  0.00  0.00    +0.000 C 
ATOM     28  H   UNL     1      45.636   3.645   6.336  0.00  0.00    +0.000 HD
ENDBRANCH  22  23
ENDBRANCH   6  22
TORSDOF 6
ENDMDL
MODEL 6
REMARK VINA RESULT:    -7.017      3.560      4.925
REMARK INTER + INTRA:         -10.110
REMARK INTER:                  -9.467
REMARK INTRA:                  -0.642
REMARK UNBOUND:                -0.631
REMARK  Name = 
REMARK  6 active torsions:
REMARK  status: ('A' for Active; 'I' for Inactive)
REMARK    1  A    between atoms: C_2  and  C_4
REMARK    2  A    between atoms: C_7  and  C_8
REMARK    3  A    between atoms: C_8  and  C_9
REMARK    4  A    between atoms: C_9  and  N_10
REMARK    5  A    between atoms: C_15  and  O_16
REMARK    6  A    between atoms: O_16  and  C_17
REMARK                            x       y       z     vdW  Elec       q    Type
REMARK                         _______ _______ _______ _____ _____    ______ ____
ROOT
ATOM      1  N   UNL     1      44.643   2.988   9.106  0.00  0.00    +0.000 N 
ATOM      2  C   UNL     1      44.418   3.679  10.313  0.00  0.00    +0.000 A 
ATOM      3  C   UNL     1      43.817   3.005  11.373  0.00  0.00    +0.000 A 
ATOM      4  C   UNL     1      43.480   3.714  12.527  0.00  0.00    +0.000 A 
ATOM      5  C   UNL     1      43.773   5.071  12.602  0.00  0.00    +0.000 A 
ATOM      6  C   UNL     1      44.435   5.646  11.536  0.00  0.00    +0.000 A 
ATOM      7  N   UNL     1      44.745   4.983  10.404  0.00  0.00    +0.000 NA
ATOM      8  H   UNL     1      45.230   2.180   9.289  0.00  0.00    +0.000 HD
ENDROOT
BRANCH   1   9
ATOM      9  C   UNL     1      45.162   3.864   8.049  0.00  0.00    +0.000 C 
BRANCH   9  10
ATOM     10  C   UNL     1      46.640   3.584   7.778  0.00  0.00    +0.000 C 
BRANCH  10  14
ATOM     11  C   UNL     1      47.041   0.648   4.630  0.00  0.00    +0.000 A 
ATOM     12  C   UNL     1      46.818   1.993   4.311  0.00  0.00    +0.000 A 
ATOM     13  C   UNL     1      46.700   2.943   5.330  0.00  0.00    +0.000 A 
ATOM     14  C   UNL     1      46.803   2.563   6.675  0.00  0.00    +0.000 A 
ATOM     15  C   UNL     1      47.001   1.210   6.987  0.00  0.00    +0.000 A 
ATOM     16  C   UNL     1      47.115   0.258   5.970  0.00  0.00    +0.000 A 
BRANCH  11  18
ATOM     17  N   UNL     1      46.686  -1.641   3.870  0.00  0.00    +0.000 N 
ATOM     18  C   UNL     1      47.181  -0.399   3.581  0.00  0.00    +0.000 C 
ATOM     19  O   UNL     1      47.678  -0.154   2.489  0.00  0.00    +0.000 OA
ATOM     20  H   UNL     1      46.680  -2.299   3.098  0.00  0.00    +0.000 HD
ATOM     21  H   UNL     1      46.041  -1.801   4.626  0.00  0.00    +0.000 HD
ENDBRANCH  11  18
ENDBRANCH  10  14
ENDBRANCH   9  10
ENDBRANCH   1   9
BRANCH   6  22
ATOM     22  O   UNL     1      44.778   6.980  11.632  0.00  0.00    +0.000 OA
BRANCH  22  23
ATOM     23  C   UNL     1      45.655   7.222  12.746  0.00  0.00    +0.000 C 
ATOM     24  C   UNL     1      45.674   8.714  13.033  0.00  0.00    +0.000 C 
ATOM     25  C   UNL     1      46.836   9.239  12.215  0.00  0.00    +0.000 C 
ATOM     26  N   UNL     1      47.838   8.174  12.198  0.00  0.00    +0.000 NA
ATOM     27  C   UNL     1      47.122   6.903  12.430  0.00  0.00    +0.000 C 
ATOM     28  H   UNL     1      48.515   8.318  12.947  0.00  0.00    +0.000 HD
ENDBRANCH  22  23
ENDBRANCH   6  22
TORSDOF 6
ENDMDL
MODEL 7
REMARK VINA RESULT:    -6.698      3.224      4.263
REMARK INTER + INTRA:          -9.678
REMARK INTER:                  -8.868
REMARK INTRA:                  -0.809
REMARK UNBOUND:                -0.631
REMARK  Name = 
REMARK  6 active torsions:
REMARK  status: ('A' for Active; 'I' for Inactive)
REMARK    1  A    between atoms: C_2  and  C_4
REMARK    2  A    between atoms: C_7  and  C_8
REMARK    3  A    between atoms: C_8  and  C_9
REMARK    4  A    between atoms: C_9  and  N_10
REMARK    5  A    between atoms: C_15  and  O_16
REMARK    6  A    between atoms: O_16  and  C_17
REMARK                            x       y       z     vdW  Elec       q    Type
REMARK                         _______ _______ _______ _____ _____    ______ ____
ROOT
ATOM      1  N   UNL     1      47.408   9.172  14.205  0.00  0.00    +0.000 N 
ATOM      2  C   UNL     1      48.070   8.587  15.303  0.00  0.00    +0.000 A 
ATOM      3  C   UNL     1      48.519   9.408  16.335  0.00  0.00    +0.000 A 
ATOM      4  C   UNL     1      49.281   8.854  17.364  0.00  0.00    +0.000 A 
ATOM      5  C   UNL     1      49.555   7.491  17.350  0.00  0.00    +0.000 A 
ATOM      6  C   UNL     1      49.011   6.736  16.329  0.00  0.00    +0.000 A 
ATOM      7  N   UNL     1      48.295   7.259  15.314  0.00  0.00    +0.000 NA
ATOM      8  H   UNL     1      46.589   9.673  14.538  0.00  0.00    +0.000 HD
ENDROOT
BRANCH   1   9
ATOM      9  C   UNL     1      47.113   8.199  13.148  0.00  0.00    +0.000 C 
BRANCH   9  10
ATOM     10  C   UNL     1      45.625   8.198  12.801  0.00  0.00    +0.000 C 
BRANCH  10  14
ATOM     11  C   UNL     1      44.355   4.256  11.558  0.00  0.00    +0.000 A 
ATOM     12  C   UNL     1      45.444   4.402  12.426  0.00  0.00    +0.000 A 
ATOM     13  C   UNL     1      45.846   5.677  12.836  0.00  0.00    +0.000 A 
ATOM     14  C   UNL     1      45.168   6.817  12.386  0.00  0.00    +0.000 A 
ATOM     15  C   UNL     1      44.095   6.664  11.496  0.00  0.00    +0.000 A 
ATOM     16  C   UNL     1      43.694   5.392  11.082  0.00  0.00    +0.000 A 
BRANCH  11  18
ATOM     17  N   UNL     1      44.549   2.354  10.046  0.00  0.00    +0.000 N 
ATOM     18  C   UNL     1      43.885   2.920  11.099  0.00  0.00    +0.000 C 
ATOM     19  O   UNL     1      42.971   2.331  11.661  0.00  0.00    +0.000 OA
ATOM     20  H   UNL     1      44.293   1.396   9.833  0.00  0.00    +0.000 HD
ATOM     21  H   UNL     1      45.456   2.674   9.746  0.00  0.00    +0.000 HD
ENDBRANCH  11  18
ENDBRANCH  10  14
ENDBRANCH   9  10
ENDBRANCH   1   9
BRANCH   6  22
ATOM     22  O   UNL     1      49.234   5.374  16.344  0.00  0.00    +0.000 OA
BRANCH  22  23
ATOM     23  C   UNL     1      48.815   4.782  17.586  0.00  0.00    +0.000 C 
ATOM     24  C   UNL     1      49.211   3.315  17.582  0.00  0.00    +0.000 C 
ATOM     25  C   UNL     1      47.998   2.601  17.023  0.00  0.00    +0.000 C 
ATOM     26  N   UNL     1      46.832   3.359  17.474  0.00  0.00    +0.000 NA
ATOM     27  C   UNL     1      47.289   4.738  17.740  0.00  0.00    +0.000 C 
ATOM     28  H   UNL     1      46.465   2.956  18.337  0.00  0.00    +0.000 HD
ENDBRANCH  22  23
ENDBRANCH   6  22
TORSDOF 6
ENDMDL
MODEL 8
REMARK VINA RESULT:    -6.590      3.336      4.516
REMARK INTER + INTRA:          -9.532
REMARK INTER:                  -8.646
REMARK INTRA:                  -0.887
REMARK UNBOUND:                -0.631
REMARK  Name = 
REMARK  6 active torsions:
REMARK  status: ('A' for Active; 'I' for Inactive)
REMARK    1  A    between atoms: C_2  and  C_4
REMARK    2  A    between atoms: C_7  and  C_8
REMARK    3  A    between atoms: C_8  and  C_9
REMARK    4  A    between atoms: C_9  and  N_10
REMARK    5  A    between atoms: C_15  and  O_16
REMARK    6  A    between atoms: O_16  and  C_17
REMARK                            x       y       z     vdW  Elec       q    Type
REMARK                         _______ _______ _______ _____ _____    ______ ____
ROOT
ATOM      1  N   UNL     1      49.709   8.257  13.327  0.00  0.00    +0.000 N 
ATOM      2  C   UNL     1      50.019   7.808  14.627  0.00  0.00    +0.000 A 
ATOM      3  C   UNL     1      50.821   8.604  15.441  0.00  0.00    +0.000 A 
ATOM      4  C   UNL     1      51.232   8.113  16.680  0.00  0.00    +0.000 A 
ATOM      5  C   UNL     1      50.814   6.851  17.085  0.00  0.00    +0.000 A 
ATOM      6  C   UNL     1      49.961   6.157  16.250  0.00  0.00    +0.000 A 
ATOM      7  N   UNL     1      49.574   6.605  15.039  0.00  0.00    +0.000 NA
ATOM      8  H   UNL     1      49.238   9.154  13.388  0.00  0.00    +0.000 HD
ENDROOT
BRANCH   1   9
ATOM      9  C   UNL     1      48.968   7.256  12.553  0.00  0.00    +0.000 C 
BRANCH   9  10
ATOM     10  C   UNL     1      47.532   7.710  12.296  0.00  0.00    +0.000 C 
BRANCH  10  14
ATOM     11  C   UNL     1      44.954   4.286  11.727  0.00  0.00    +0.000 A 
ATOM     12  C   UNL     1      45.757   4.378  12.871  0.00  0.00    +0.000 A 
ATOM     13  C   UNL     1      46.581   5.492  13.059  0.00  0.00    +0.000 A 
ATOM     14  C   UNL     1      46.614   6.523  12.111  0.00  0.00    +0.000 A 
ATOM     15  C   UNL     1      45.827   6.411  10.955  0.00  0.00    +0.000 A 
ATOM     16  C   UNL     1      45.006   5.297  10.763  0.00  0.00    +0.000 A 
BRANCH  11  18
ATOM     17  N   UNL     1      43.661   2.403  12.578  0.00  0.00    +0.000 N 
ATOM     18  C   UNL     1      44.056   3.124  11.485  0.00  0.00    +0.000 C 
ATOM     19  O   UNL     1      43.650   2.846  10.364  0.00  0.00    +0.000 OA
ATOM     20  H   UNL     1      42.954   1.697  12.403  0.00  0.00    +0.000 HD
ATOM     21  H   UNL     1      43.746   2.757  13.517  0.00  0.00    +0.000 HD
ENDBRANCH  11  18
ENDBRANCH  10  14
ENDBRANCH   9  10
ENDBRANCH   1   9
BRANCH   6  22
ATOM     22  O   UNL     1      49.498   4.928  16.675  0.00  0.00    +0.000 OA
BRANCH  22  23
ATOM     23  C   UNL     1      48.262   5.050  17.401  0.00  0.00    +0.000 C 
ATOM     24  C   UNL     1      48.430   4.391  18.759  0.00  0.00    +0.000 C 
ATOM     25  C   UNL     1      47.972   2.964  18.543  0.00  0.00    +0.000 C 
ATOM     26  N   UNL     1      46.905   3.023  17.545  0.00  0.00    +0.000 NA
ATOM     27  C   UNL     1      47.115   4.257  16.761  0.00  0.00    +0.000 C 
ATOM     28  H   UNL     1      45.996   3.070  18.006  0.00  0.00    +0.000 HD
ENDBRANCH  22  23
ENDBRANCH   6  22
TORSDOF 6
ENDMDL
MODEL 9
REMARK VINA RESULT:    -6.570      3.403      7.965
REMARK INTER + INTRA:          -9.505
REMARK INTER:                  -8.895
REMARK INTRA:                  -0.611
REMARK UNBOUND:                -0.631
REMARK  Name = 
REMARK  6 active torsions:
REMARK  status: ('A' for Active; 'I' for Inactive)
REMARK    1  A    between atoms: C_2  and  C_4
REMARK    2  A    between atoms: C_7  and  C_8
REMARK    3  A    between atoms: C_8  and  C_9
REMARK    4  A    between atoms: C_9  and  N_10
REMARK    5  A    between atoms: C_15  and  O_16
REMARK    6  A    between atoms: O_16  and  C_17
REMARK                            x       y       z     vdW  Elec       q    Type
REMARK                         _______ _______ _______ _____ _____    ______ ____
ROOT
ATOM      1  N   UNL     1      48.224   5.785  15.358  0.00  0.00    +0.000 N 
ATOM      2  C   UNL     1      47.891   6.191  14.050  0.00  0.00    +0.000 A 
ATOM      3  C   UNL     1      48.658   7.177  13.435  0.00  0.00    +0.000 A 
ATOM      4  C   UNL     1      48.263   7.669  12.191  0.00  0.00    +0.000 A 
ATOM      5  C   UNL     1      47.126   7.149  11.583  0.00  0.00    +0.000 A 
ATOM      6  C   UNL     1      46.464   6.123  12.227  0.00  0.00    +0.000 A 
ATOM      7  N   UNL     1      46.817   5.653  13.441  0.00  0.00    +0.000 NA
ATOM      8  H   UNL     1      49.179   5.439  15.367  0.00  0.00    +0.000 HD
ENDROOT
BRANCH   1   9
ATOM      9  C   UNL     1      47.251   4.838  15.914  0.00  0.00    +0.000 C 
BRANCH   9  10
ATOM     10  C   UNL     1      47.604   4.468  17.355  0.00  0.00    +0.000 C 
BRANCH  10  14
ATOM     11  C   UNL     1      51.332   2.290  17.585  0.00  0.00    +0.000 A 
ATOM     12  C   UNL     1      50.223   1.719  16.948  0.00  0.00    +0.000 A 
ATOM     13  C   UNL     1      49.021   2.430  16.864  0.00  0.00    +0.000 A 
ATOM     14  C   UNL     1      48.913   3.714  17.414  0.00  0.00    +0.000 A 
ATOM     15  C   UNL     1      50.020   4.269  18.073  0.00  0.00    +0.000 A 
ATOM     16  C   UNL     1      51.220   3.559  18.161  0.00  0.00    +0.000 A 
BRANCH  11  18
ATOM     17  N   UNL     1      52.592   0.253  18.036  0.00  0.00    +0.000 N 
ATOM     18  C   UNL     1      52.633   1.577  17.694  0.00  0.00    +0.000 C 
ATOM     19  O   UNL     1      53.695   2.134  17.448  0.00  0.00    +0.000 OA
ATOM     20  H   UNL     1      53.477  -0.239  17.981  0.00  0.00    +0.000 HD
ATOM     21  H   UNL     1      51.748  -0.293  17.975  0.00  0.00    +0.000 HD
ENDBRANCH  11  18
ENDBRANCH  10  14
ENDBRANCH   9  10
ENDBRANCH   1   9
BRANCH   6  22
ATOM     22  O   UNL     1      45.368   5.566  11.599  0.00  0.00    +0.000 OA
BRANCH  22  23
ATOM     23  C   UNL     1      44.745   4.560  12.416  0.00  0.00    +0.000 C 
ATOM     24  C   UNL     1      45.103   3.192  11.859  0.00  0.00    +0.000 C 
ATOM     25  C   UNL     1      43.978   2.874  10.897  0.00  0.00    +0.000 C 
ATOM     26  N   UNL     1      42.773   3.480  11.461  0.00  0.00    +0.000 NA
ATOM     27  C   UNL     1      43.213   4.588  12.332  0.00  0.00    +0.000 C 
ATOM     28  H   UNL     1      42.265   2.795  12.021  0.00  0.00    +0.000 HD
ENDBRANCH  22  23
ENDBRANCH   6  22
TORSDOF 6
ENDMDL
