MODEL 1
REMARK VINA RESULT:    -7.256      0.000      0.000
REMARK INTER + INTRA:          -9.789
REMARK INTER:                  -8.953
REMARK INTRA:                  -0.836
REMARK UNBOUND:                -0.836
REMARK  Name = 
REMARK  4 active torsions:
REMARK  status: ('A' for Active; 'I' for Inactive)
REMARK    1  A    between atoms: C_5  and  O_6
REMARK    2  A    between atoms: O_6  and  C_7
REMARK    3  A    between atoms: C_7  and  C_8
REMARK    4  A    between atoms: C_12  and  C_13
REMARK                            x       y       z     vdW  Elec       q    Type
REMARK                         _______ _______ _______ _____ _____    ______ ____
ROOT
ATOM      1  C   UNL     1      45.101   5.219  12.192  0.00  0.00    +0.000 A 
ATOM      2  C   UNL     1      45.633   4.269  13.072  0.00  0.00    +0.000 A 
ATOM      3  C   UNL     1      46.879   4.455  13.675  0.00  0.00    +0.000 A 
ATOM      4  C   UNL     1      47.633   5.595  13.391  0.00  0.00    +0.000 A 
ATOM      5  C   UNL     1      47.146   6.586  12.528  0.00  0.00    +0.000 A 
ATOM      6  C   UNL     1      45.862   6.390  11.980  0.00  0.00    +0.000 A 
ENDROOT
BRANCH   5   7
ATOM      7  C   UNL     1      47.968   7.748  12.128  0.00  0.00    +0.000 A 
ATOM      8  C   UNL     1      49.314   7.630  11.754  0.00  0.00    +0.000 A 
ATOM      9  C   UNL     1      50.069   8.763  11.446  0.00  0.00    +0.000 A 
ATOM     10  C   UNL     1      49.456  10.000  11.511  0.00  0.00    +0.000 A 
ATOM     11  N   UNL     1      48.166  10.173  11.851  0.00  0.00    +0.000 NA
ATOM     12  C   UNL     1      47.463   9.052  12.153  0.00  0.00    +0.000 A 
ENDBRANCH   5   7
BRANCH   1  13
ATOM     13  C   UNL     1      43.804   4.963  11.431  0.00  0.00    +0.000 C 
ATOM     14  C   UNL     1      42.490   5.294  12.145  0.00  0.00    +0.000 C 
ATOM     15  C   UNL     1      42.951   6.149  11.017  0.00  0.00    +0.000 C 
BRANCH  13  16
ATOM     16  O   UNL     1      43.700   3.725  10.687  0.00  0.00    +0.000 OA
BRANCH  16  21
ATOM     17 CL   UNL     1      47.508   2.598   6.410  0.00  0.00    +0.000 Cl
ATOM     18  C   UNL     1      46.376   2.914   7.659  0.00  0.00    +0.000 A 
ATOM     19  C   UNL     1      45.870   1.877   8.435  0.00  0.00    +0.000 A 
ATOM     20  C   UNL     1      44.963   2.175   9.451  0.00  0.00    +0.000 A 
ATOM     21  C   UNL     1      44.604   3.503   9.662  0.00  0.00    +0.000 A 
ATOM     22  N   UNL     1      45.077   4.527   8.918  0.00  0.00    +0.000 NA
ATOM     23  C   UNL     1      45.947   4.205   7.928  0.00  0.00    +0.000 A 
ENDBRANCH  16  21
ENDBRANCH  13  16
ENDBRANCH   1  13
TORSDOF 4
ENDMDL
MODEL 2
REMARK VINA RESULT:    -7.188      2.185      3.678
REMARK INTER + INTRA:          -9.706
REMARK INTER:                  -9.215
REMARK INTRA:                  -0.491
REMARK UNBOUND:                -0.836
REMARK  Name = 
REMARK  4 active torsions:
REMARK  status: ('A' for Active; 'I' for Inactive)
REMARK    1  A    between atoms: C_5  and  O_6
REMARK    2  A    between atoms: O_6  and  C_7
REMARK    3  A    between atoms: C_7  and  C_8
REMARK    4  A    between atoms: C_12  and  C_13
REMARK                            x       y       z     vdW  Elec       q    Type
REMARK                         _______ _______ _______ _____ _____    ______ ____
ROOT
ATOM      1  C   UNL     1      45.441   5.385  12.192  0.00  0.00    +0.000 A 
ATOM      2  C   UNL     1      46.158   6.417  11.574  0.00  0.00    +0.000 A 
ATOM      3  C   UNL     1      47.342   6.910  12.126  0.00  0.00    +0.000 A 
ATOM      4  C   UNL     1      47.826   6.392  13.328  0.00  0.00    +0.000 A 
ATOM      5  C   UNL     1      47.157   5.350  13.985  0.00  0.00    +0.000 A 
ATOM      6  C   UNL     1      45.995   4.840  13.371  0.00  0.00    +0.000 A 
ENDROOT
BRANCH   5   7
ATOM      7  C   UNL     1      47.589   4.856  15.310  0.00  0.00    +0.000 A 
ATOM      8  C   UNL     1      47.208   3.604  15.811  0.00  0.00    +0.000 A 
ATOM      9  C   UNL     1      47.587   3.205  17.095  0.00  0.00    +0.000 A 
ATOM     10  C   UNL     1      48.353   4.071  17.853  0.00  0.00    +0.000 A 
ATOM     11  N   UNL     1      48.759   5.278  17.419  0.00  0.00    +0.000 NA
ATOM     12  C   UNL     1      48.365   5.638  16.171  0.00  0.00    +0.000 A 
ENDBRANCH   5   7
BRANCH   1  13
ATOM     13  C   UNL     1      44.083   4.930  11.666  0.00  0.00    +0.000 C 
ATOM     14  C   UNL     1      42.863   5.176  12.557  0.00  0.00    +0.000 C 
ATOM     15  C   UNL     1      43.043   5.980  11.317  0.00  0.00    +0.000 C 
BRANCH  13  16
ATOM     16  O   UNL     1      44.016   3.630  11.030  0.00  0.00    +0.000 OA
BRANCH  16  21
ATOM     17 CL   UNL     1      47.037   2.635   6.137  0.00  0.00    +0.000 Cl
ATOM     18  C   UNL     1      46.135   2.912   7.569  0.00  0.00    +0.000 A 
ATOM     19  C   UNL     1      45.799   1.857   8.409  0.00  0.00    +0.000 A 
ATOM     20  C   UNL     1      45.078   2.123   9.573  0.00  0.00    +0.000 A 
ATOM     21  C   UNL     1      44.730   3.439   9.860  0.00  0.00    +0.000 A 
ATOM     22  N   UNL     1      45.039   4.482   9.056  0.00  0.00    +0.000 NA
ATOM     23  C   UNL     1      45.728   4.190   7.924  0.00  0.00    +0.000 A 
ENDBRANCH  16  21
ENDBRANCH  13  16
ENDBRANCH   1  13
TORSDOF 4
ENDMDL
MODEL 3
REMARK VINA RESULT:    -6.710      1.448      2.057
REMARK INTER + INTRA:          -9.115
REMARK INTER:                  -8.538
REMARK INTRA:                  -0.577
REMARK UNBOUND:                -0.836
REMARK  Name = 
REMARK  4 active torsions:
REMARK  status: ('A' for Active; 'I' for Inactive)
REMARK    1  A    between atoms: C_5  and  O_6
REMARK    2  A    between atoms: O_6  and  C_7
REMARK    3  A    between atoms: C_7  and  C_8
REMARK    4  A    between atoms: C_12  and  C_13
REMARK                            x       y       z     vdW  Elec       q    Type
REMARK                         _______ _______ _______ _____ _____    ______ ____
ROOT
ATOM      1  C   UNL     1      45.193   5.857  12.579  0.00  0.00    +0.000 A 
ATOM      2  C   UNL     1      46.316   5.291  13.196  0.00  0.00    +0.000 A 
ATOM      3  C   UNL     1      47.404   6.076  13.584  0.00  0.00    +0.000 A 
ATOM      4  C   UNL     1      47.399   7.451  13.343  0.00  0.00    +0.000 A 
ATOM      5  C   UNL     1      46.298   8.074  12.741  0.00  0.00    +0.000 A 
ATOM      6  C   UNL     1      45.195   7.259  12.412  0.00  0.00    +0.000 A 
ENDROOT
BRANCH   5   7
ATOM      7  C   UNL     1      46.312   9.508  12.378  0.00  0.00    +0.000 A 
ATOM      8  C   UNL     1      45.157  10.200  11.987  0.00  0.00    +0.000 A 
ATOM      9  C   UNL     1      45.228  11.537  11.592  0.00  0.00    +0.000 A 
ATOM     10  C   UNL     1      46.461  12.163  11.606  0.00  0.00    +0.000 A 
ATOM     11  N   UNL     1      47.599  11.553  11.984  0.00  0.00    +0.000 NA
ATOM     12  C   UNL     1      47.496  10.251  12.353  0.00  0.00    +0.000 A 
ENDBRANCH   5   7
BRANCH   1  13
ATOM     13  C   UNL     1      44.060   4.992  12.036  0.00  0.00    +0.000 C 
ATOM     14  C   UNL     1      42.763   4.937  12.848  0.00  0.00    +0.000 C 
ATOM     15  C   UNL     1      42.790   5.667  11.550  0.00  0.00    +0.000 C 
BRANCH  13  16
ATOM     16  O   UNL     1      44.409   3.686  11.515  0.00  0.00    +0.000 OA
BRANCH  16  21
ATOM     17 CL   UNL     1      46.605   3.189   6.131  0.00  0.00    +0.000 Cl
ATOM     18  C   UNL     1      45.943   3.323   7.707  0.00  0.00    +0.000 A 
ATOM     19  C   UNL     1      45.494   2.196   8.385  0.00  0.00    +0.000 A 
ATOM     20  C   UNL     1      44.976   2.343   9.671  0.00  0.00    +0.000 A 
ATOM     21  C   UNL     1      44.936   3.614  10.237  0.00  0.00    +0.000 A 
ATOM     22  N   UNL     1      45.360   4.726   9.596  0.00  0.00    +0.000 NA
ATOM     23  C   UNL     1      45.846   4.553   8.341  0.00  0.00    +0.000 A 
ENDBRANCH  16  21
ENDBRANCH  13  16
ENDBRANCH   1  13
TORSDOF 4
ENDMDL
MODEL 4
REMARK VINA RESULT:    -6.659      3.270      6.618
REMARK INTER + INTRA:          -9.053
REMARK INTER:                  -8.326
REMARK INTRA:                  -0.727
REMARK UNBOUND:                -0.836
REMARK  Name = 
REMARK  4 active torsions:
REMARK  status: ('A' for Active; 'I' for Inactive)
REMARK    1  A    between atoms: C_5  and  O_6
REMARK    2  A    between atoms: O_6  and  C_7
REMARK    3  A    between atoms: C_7  and  C_8
REMARK    4  A    between atoms: C_12  and  C_13
REMARK                            x       y       z     vdW  Elec       q    Type
REMARK                         _______ _______ _______ _____ _____    ______ ____
ROOT
ATOM      1  C   UNL     1      45.424   6.336  11.810  0.00  0.00    +0.000 A 
ATOM      2  C   UNL     1      44.044   6.421  12.031  0.00  0.00    +0.000 A 
ATOM      3  C   UNL     1      43.144   5.633  11.310  0.00  0.00    +0.000 A 
ATOM      4  C   UNL     1      43.608   4.753  10.332  0.00  0.00    +0.000 A 
ATOM      5  C   UNL     1      44.979   4.617  10.075  0.00  0.00    +0.000 A 
ATOM      6  C   UNL     1      45.861   5.388  10.859  0.00  0.00    +0.000 A 
ENDROOT
BRANCH   5   7
ATOM      7  C   UNL     1      45.489   3.774   8.973  0.00  0.00    +0.000 A 
ATOM      8  C   UNL     1      45.528   2.375   9.048  0.00  0.00    +0.000 A 
ATOM      9  C   UNL     1      46.077   1.621   8.010  0.00  0.00    +0.000 A 
ATOM     10  C   UNL     1      46.572   2.287   6.903  0.00  0.00    +0.000 A 
ATOM     11  N   UNL     1      46.549   3.626   6.771  0.00  0.00    +0.000 NA
ATOM     12  C   UNL     1      46.016   4.328   7.803  0.00  0.00    +0.000 A 
ENDBRANCH   5   7
BRANCH   1  13
ATOM     13  C   UNL     1      46.402   7.284  12.499  0.00  0.00    +0.000 C 
ATOM     14  C   UNL     1      46.534   8.698  11.928  0.00  0.00    +0.000 C 
ATOM     15  C   UNL     1      45.855   8.493  13.237  0.00  0.00    +0.000 C 
BRANCH  13  16
ATOM     16  O   UNL     1      47.693   6.748  12.880  0.00  0.00    +0.000 OA
BRANCH  16  21
ATOM     17 CL   UNL     1      47.999   3.905  17.967  0.00  0.00    +0.000 Cl
ATOM     18  C   UNL     1      47.912   4.722  16.462  0.00  0.00    +0.000 A 
ATOM     19  C   UNL     1      47.081   4.256  15.450  0.00  0.00    +0.000 A 
ATOM     20  C   UNL     1      47.026   4.955  14.245  0.00  0.00    +0.000 A 
ATOM     21  C   UNL     1      47.797   6.104  14.101  0.00  0.00    +0.000 A 
ATOM     22  N   UNL     1      48.617   6.574  15.067  0.00  0.00    +0.000 NA
ATOM     23  C   UNL     1      48.661   5.865  16.223  0.00  0.00    +0.000 A 
ENDBRANCH  16  21
ENDBRANCH  13  16
ENDBRANCH   1  13
TORSDOF 4
ENDMDL
MODEL 5
REMARK VINA RESULT:    -6.551      2.297      3.380
REMARK INTER + INTRA:          -8.919
REMARK INTER:                  -9.131
REMARK INTRA:                   0.211
REMARK UNBOUND:                -0.836
REMARK  Name = 
REMARK  4 active torsions:
REMARK  status: ('A' for Active; 'I' for Inactive)
REMARK    1  A    between atoms: C_5  and  O_6
REMARK    2  A    between atoms: O_6  and  C_7
REMARK    3  A    between atoms: C_7  and  C_8
REMARK    4  A    between atoms: C_12  and  C_13
REMARK                            x       y       z     vdW  Elec       q    Type
REMARK                         _______ _______ _______ _____ _____    ______ ____
ROOT
ATOM      1  C   UNL     1      45.021   5.649  11.693  0.00  0.00    +0.000 A 
ATOM      2  C   UNL     1      46.407   5.640  11.897  0.00  0.00    +0.000 A 
ATOM      3  C   UNL     1      47.134   6.829  11.987  0.00  0.00    +0.000 A 
ATOM      4  C   UNL     1      46.490   8.059  11.852  0.00  0.00    +0.000 A 
ATOM      5  C   UNL     1      45.103   8.130  11.659  0.00  0.00    +0.000 A 
ATOM      6  C   UNL     1      44.393   6.912  11.628  0.00  0.00    +0.000 A 
ENDROOT
BRANCH   5   7
ATOM      7  C   UNL     1      44.413   9.413  11.407  0.00  0.00    +0.000 A 
ATOM      8  C   UNL     1      43.229   9.500  10.661  0.00  0.00    +0.000 A 
ATOM      9  C   UNL     1      42.646  10.740  10.394  0.00  0.00    +0.000 A 
ATOM     10  C   UNL     1      43.258  11.876  10.892  0.00  0.00    +0.000 A 
ATOM     11  N   UNL     1      44.387  11.851  11.624  0.00  0.00    +0.000 NA
ATOM     12  C   UNL     1      44.932  10.630  11.857  0.00  0.00    +0.000 A 
ENDBRANCH   5   7
BRANCH   1  13
ATOM     13  C   UNL     1      44.240   4.358  11.466  0.00  0.00    +0.000 C 
ATOM     14  C   UNL     1      44.726   3.102  12.194  0.00  0.00    +0.000 C 
ATOM     15  C   UNL     1      43.460   3.759  12.622  0.00  0.00    +0.000 C 
BRANCH  13  16
ATOM     16  O   UNL     1      43.836   4.054  10.108  0.00  0.00    +0.000 OA
BRANCH  16  21
ATOM     17 CL   UNL     1      47.808   1.787   6.484  0.00  0.00    +0.000 Cl
ATOM     18  C   UNL     1      46.656   2.467   7.556  0.00  0.00    +0.000 A 
ATOM     19  C   UNL     1      46.447   3.841   7.592  0.00  0.00    +0.000 A 
ATOM     20  C   UNL     1      45.491   4.356   8.467  0.00  0.00    +0.000 A 
ATOM     21  C   UNL     1      44.768   3.475   9.265  0.00  0.00    +0.000 A 
ATOM     22  N   UNL     1      44.956   2.136   9.252  0.00  0.00    +0.000 NA
ATOM     23  C   UNL     1      45.904   1.666   8.402  0.00  0.00    +0.000 A 
ENDBRANCH  16  21
ENDBRANCH  13  16
ENDBRANCH   1  13
TORSDOF 4
ENDMDL
MODEL 6
REMARK VINA RESULT:    -6.539      3.312      6.633
REMARK INTER + INTRA:          -8.905
REMARK INTER:                  -8.021
REMARK INTRA:                  -0.884
REMARK UNBOUND:                -0.836
REMARK  Name = 
REMARK  4 active torsions:
REMARK  status: ('A' for Active; 'I' for Inactive)
REMARK    1  A    between atoms: C_5  and  O_6
REMARK    2  A    between atoms: O_6  and  C_7
REMARK    3  A    between atoms: C_7  and  C_8
REMARK    4  A    between atoms: C_12  and  C_13
REMARK                            x       y       z     vdW  Elec       q    Type
REMARK                         _______ _______ _______ _____ _____    ______ ____
ROOT
ATOM      1  C   UNL     1      45.102   6.409  11.928  0.00  0.00    +0.000 A 
ATOM      2  C   UNL     1      43.800   6.140  12.368  0.00  0.00    +0.000 A 
ATOM      3  C   UNL     1      43.046   5.104  11.813  0.00  0.00    +0.000 A 
ATOM      4  C   UNL     1      43.575   4.323  10.785  0.00  0.00    +0.000 A 
ATOM      5  C   UNL     1      44.877   4.538  10.312  0.00  0.00    +0.000 A 
ATOM      6  C   UNL     1      45.629   5.557  10.932  0.00  0.00    +0.000 A 
ENDROOT
BRANCH   5   7
ATOM      7  C   UNL     1      45.422   3.796   9.154  0.00  0.00    +0.000 A 
ATOM      8  C   UNL     1      45.492   2.397   9.119  0.00  0.00    +0.000 A 
ATOM      9  C   UNL     1      46.073   1.741   8.032  0.00  0.00    +0.000 A 
ATOM     10  C   UNL     1      46.567   2.504   6.989  0.00  0.00    +0.000 A 
ATOM     11  N   UNL     1      46.514   3.848   6.964  0.00  0.00    +0.000 NA
ATOM     12  C   UNL     1      45.951   4.454   8.040  0.00  0.00    +0.000 A 
ENDBRANCH   5   7
BRANCH   1  13
ATOM     13  C   UNL     1      45.883   7.618  12.436  0.00  0.00    +0.000 C 
ATOM     14  C   UNL     1      47.010   7.358  13.439  0.00  0.00    +0.000 C 
ATOM     15  C   UNL     1      47.343   7.764  12.046  0.00  0.00    +0.000 C 
BRANCH  13  16
ATOM     16  O   UNL     1      45.125   8.799  12.792  0.00  0.00    +0.000 OA
BRANCH  16  21
ATOM     17 CL   UNL     1      44.198  12.782   8.627  0.00  0.00    +0.000 Cl
ATOM     18  C   UNL     1      44.449  11.611   9.856  0.00  0.00    +0.000 A 
ATOM     19  C   UNL     1      43.681  10.454   9.898  0.00  0.00    +0.000 A 
ATOM     20  C   UNL     1      43.924   9.519  10.903  0.00  0.00    +0.000 A 
ATOM     21  C   UNL     1      44.938   9.770  11.822  0.00  0.00    +0.000 A 
ATOM     22  N   UNL     1      45.695  10.890  11.806  0.00  0.00    +0.000 NA
ATOM     23  C   UNL     1      45.425  11.789  10.826  0.00  0.00    +0.000 A 
ENDBRANCH  16  21
ENDBRANCH  13  16
ENDBRANCH   1  13
TORSDOF 4
ENDMDL
MODEL 7
REMARK VINA RESULT:    -6.507      1.977      2.732
REMARK INTER + INTRA:          -8.865
REMARK INTER:                  -8.374
REMARK INTRA:                  -0.490
REMARK UNBOUND:                -0.836
REMARK  Name = 
REMARK  4 active torsions:
REMARK  status: ('A' for Active; 'I' for Inactive)
REMARK    1  A    between atoms: C_5  and  O_6
REMARK    2  A    between atoms: O_6  and  C_7
REMARK    3  A    between atoms: C_7  and  C_8
REMARK    4  A    between atoms: C_12  and  C_13
REMARK                            x       y       z     vdW  Elec       q    Type
REMARK                         _______ _______ _______ _____ _____    ______ ____
ROOT
ATOM      1  C   UNL     1      44.876   6.490  12.013  0.00  0.00    +0.000 A 
ATOM      2  C   UNL     1      44.436   7.737  11.552  0.00  0.00    +0.000 A 
ATOM      3  C   UNL     1      45.188   8.895  11.764  0.00  0.00    +0.000 A 
ATOM      4  C   UNL     1      46.393   8.832  12.464  0.00  0.00    +0.000 A 
ATOM      5  C   UNL     1      46.889   7.610  12.938  0.00  0.00    +0.000 A 
ATOM      6  C   UNL     1      46.131   6.455  12.659  0.00  0.00    +0.000 A 
ENDROOT
BRANCH   5   7
ATOM      7  C   UNL     1      48.107   7.531  13.773  0.00  0.00    +0.000 A 
ATOM      8  C   UNL     1      49.159   8.451  13.664  0.00  0.00    +0.000 A 
ATOM      9  C   UNL     1      50.318   8.301  14.428  0.00  0.00    +0.000 A 
ATOM     10  C   UNL     1      50.398   7.230  15.299  0.00  0.00    +0.000 A 
ATOM     11  N   UNL     1      49.415   6.324  15.455  0.00  0.00    +0.000 NA
ATOM     12  C   UNL     1      48.306   6.495  14.690  0.00  0.00    +0.000 A 
ENDBRANCH   5   7
BRANCH   1  13
ATOM     13  C   UNL     1      44.002   5.244  11.901  0.00  0.00    +0.000 C 
ATOM     14  C   UNL     1      42.868   5.085  12.917  0.00  0.00    +0.000 C 
ATOM     15  C   UNL     1      42.547   5.403  11.498  0.00  0.00    +0.000 C 
BRANCH  13  16
ATOM     16  O   UNL     1      44.669   3.982  11.655  0.00  0.00    +0.000 OA
BRANCH  16  21
ATOM     17 CL   UNL     1      46.309   2.935   6.153  0.00  0.00    +0.000 Cl
ATOM     18  C   UNL     1      45.845   3.254   7.773  0.00  0.00    +0.000 A 
ATOM     19  C   UNL     1      45.849   4.553   8.268  0.00  0.00    +0.000 A 
ATOM     20  C   UNL     1      45.451   4.775   9.585  0.00  0.00    +0.000 A 
ATOM     21  C   UNL     1      45.051   3.689  10.357  0.00  0.00    +0.000 A 
ATOM     22  N   UNL     1      45.044   2.416   9.902  0.00  0.00    +0.000 NA
ATOM     23  C   UNL     1      45.450   2.229   8.621  0.00  0.00    +0.000 A 
ENDBRANCH  16  21
ENDBRANCH  13  16
ENDBRANCH   1  13
TORSDOF 4
ENDMDL
MODEL 8
REMARK VINA RESULT:    -6.237      3.958      7.421
REMARK INTER + INTRA:          -8.532
REMARK INTER:                  -7.630
REMARK INTRA:                  -0.902
REMARK UNBOUND:                -0.836
REMARK  Name = 
REMARK  4 active torsions:
REMARK  status: ('A' for Active; 'I' for Inactive)
REMARK    1  A    between atoms: C_5  and  O_6
REMARK    2  A    between atoms: O_6  and  C_7
REMARK    3  A    between atoms: C_7  and  C_8
REMARK    4  A    between atoms: C_12  and  C_13
REMARK                            x       y       z     vdW  Elec       q    Type
REMARK                         _______ _______ _______ _____ _____    ______ ____
ROOT
ATOM      1  C   UNL     1      47.447   7.633  12.432  0.00  0.00    +0.000 A 
ATOM      2  C   UNL     1      46.463   8.566  12.782  0.00  0.00    +0.000 A 
ATOM      3  C   UNL     1      45.119   8.359  12.460  0.00  0.00    +0.000 A 
ATOM      4  C   UNL     1      44.733   7.216  11.759  0.00  0.00    +0.000 A 
ATOM      5  C   UNL     1      45.673   6.242  11.393  0.00  0.00    +0.000 A 
ATOM      6  C   UNL     1      47.011   6.458  11.782  0.00  0.00    +0.000 A 
ENDROOT
BRANCH   5   7
ATOM      7  C   UNL     1      45.307   5.077  10.560  0.00  0.00    +0.000 A 
ATOM      8  C   UNL     1      45.606   5.003   9.192  0.00  0.00    +0.000 A 
ATOM      9  C   UNL     1      45.186   3.912   8.430  0.00  0.00    +0.000 A 
ATOM     10  C   UNL     1      44.477   2.904   9.058  0.00  0.00    +0.000 A 
ATOM     11  N   UNL     1      44.174   2.915  10.368  0.00  0.00    +0.000 NA
ATOM     12  C   UNL     1      44.590   3.995  11.078  0.00  0.00    +0.000 A 
ENDBRANCH   5   7
BRANCH   1  13
ATOM     13  C   UNL     1      48.929   7.912  12.664  0.00  0.00    +0.000 C 
ATOM     14  C   UNL     1      49.771   8.307  11.448  0.00  0.00    +0.000 C 
ATOM     15  C   UNL     1      49.446   9.328  12.482  0.00  0.00    +0.000 C 
BRANCH  13  16
ATOM     16  O   UNL     1      49.651   7.002  13.530  0.00  0.00    +0.000 OA
BRANCH  16  21
ATOM     17 CL   UNL     1      47.940   6.679  19.100  0.00  0.00    +0.000 Cl
ATOM     18  C   UNL     1      48.432   6.792  17.461  0.00  0.00    +0.000 A 
ATOM     19  C   UNL     1      48.977   7.970  16.965  0.00  0.00    +0.000 A 
ATOM     20  C   UNL     1      49.379   8.020  15.631  0.00  0.00    +0.000 A 
ATOM     21  C   UNL     1      49.232   6.882  14.844  0.00  0.00    +0.000 A 
ATOM     22  N   UNL     1      48.698   5.727  15.300  0.00  0.00    +0.000 NA
ATOM     23  C   UNL     1      48.303   5.714  16.598  0.00  0.00    +0.000 A 
ENDBRANCH  16  21
ENDBRANCH  13  16
ENDBRANCH   1  13
TORSDOF 4
ENDMDL
MODEL 9
REMARK VINA RESULT:    -5.597      4.010      5.946
REMARK INTER + INTRA:          -7.742
REMARK INTER:                  -7.027
REMARK INTRA:                  -0.715
REMARK UNBOUND:                -0.836
REMARK  Name = 
REMARK  4 active torsions:
REMARK  status: ('A' for Active; 'I' for Inactive)
REMARK    1  A    between atoms: C_5  and  O_6
REMARK    2  A    between atoms: O_6  and  C_7
REMARK    3  A    between atoms: C_7  and  C_8
REMARK    4  A    between atoms: C_12  and  C_13
REMARK                            x       y       z     vdW  Elec       q    Type
REMARK                         _______ _______ _______ _____ _____    ______ ____
ROOT
ATOM      1  C   UNL     1      48.073   7.991  14.359  0.00  0.00    +0.000 A 
ATOM      2  C   UNL     1      48.079   9.131  15.172  0.00  0.00    +0.000 A 
ATOM      3  C   UNL     1      48.542   9.081  16.489  0.00  0.00    +0.000 A 
ATOM      4  C   UNL     1      48.992   7.877  17.030  0.00  0.00    +0.000 A 
ATOM      5  C   UNL     1      49.020   6.705  16.261  0.00  0.00    +0.000 A 
ATOM      6  C   UNL     1      48.597   6.805  14.919  0.00  0.00    +0.000 A 
ENDROOT
BRANCH   5   7
ATOM      7  C   UNL     1      49.391   5.397  16.840  0.00  0.00    +0.000 A 
ATOM      8  C   UNL     1      50.690   5.105  17.279  0.00  0.00    +0.000 A 
ATOM      9  C   UNL     1      51.010   3.835  17.761  0.00  0.00    +0.000 A 
ATOM     10  C   UNL     1      50.014   2.877  17.803  0.00  0.00    +0.000 A 
ATOM     11  N   UNL     1      48.748   3.104  17.408  0.00  0.00    +0.000 NA
ATOM     12  C   UNL     1      48.473   4.347  16.937  0.00  0.00    +0.000 A 
ENDBRANCH   5   7
BRANCH   1  13
ATOM     13  C   UNL     1      47.450   8.007  12.967  0.00  0.00    +0.000 C 
ATOM     14  C   UNL     1      48.055   8.962  11.935  0.00  0.00    +0.000 C 
ATOM     15  C   UNL     1      48.266   7.495  11.793  0.00  0.00    +0.000 C 
BRANCH  13  16
ATOM     16  O   UNL     1      46.004   7.990  12.883  0.00  0.00    +0.000 OA
BRANCH  16  21
ATOM     17 CL   UNL     1      43.285   2.976  11.647  0.00  0.00    +0.000 Cl
ATOM     18  C   UNL     1      44.091   4.451  11.989  0.00  0.00    +0.000 A 
ATOM     19  C   UNL     1      43.890   5.570  11.190  0.00  0.00    +0.000 A 
ATOM     20  C   UNL     1      44.551   6.755  11.509  0.00  0.00    +0.000 A 
ATOM     21  C   UNL     1      45.380   6.781  12.626  0.00  0.00    +0.000 A 
ATOM     22  N   UNL     1      45.597   5.706  13.415  0.00  0.00    +0.000 NA
ATOM     23  C   UNL     1      44.951   4.563  13.071  0.00  0.00    +0.000 A 
ENDBRANCH  16  21
ENDBRANCH  13  16
ENDBRANCH   1  13
TORSDOF 4
ENDMDL
