MODEL 1
REMARK VINA RESULT:    -8.693      0.000      0.000
REMARK INTER + INTRA:         -13.067
REMARK INTER:                 -11.742
REMARK INTRA:                  -1.325
REMARK UNBOUND:                -1.325
REMARK  Name = 
REMARK  7 active torsions:
REMARK  status: ('A' for Active; 'I' for Inactive)
REMARK    1  A    between atoms: C_1  and  C_2
REMARK    2  A    between atoms: C_2  and  N_3
REMARK    3  A    between atoms: C_2  and  C_16
REMARK    4  A    between atoms: C_4  and  C_6
REMARK    5  A    between atoms: C_19  and  N_20
REMARK    6  A    between atoms: N_20  and  C_21
REMARK    7  A    between atoms: C_21  and  C_22
REMARK                            x       y       z     vdW  Elec       q    Type
REMARK                         _______ _______ _______ _____ _____    ______ ____
ROOT
ATOM      1  C   UNL     1      46.196   6.864  12.219  0.00  0.00    +0.000 A 
ATOM      2  C   UNL     1      46.609   6.528  10.924  0.00  0.00    +0.000 A 
ATOM      3  C   UNL     1      45.861   5.647  10.142  0.00  0.00    +0.000 A 
ATOM      4  C   UNL     1      44.651   5.099  10.596  0.00  0.00    +0.000 A 
ATOM      5  C   UNL     1      44.279   5.385  11.925  0.00  0.00    +0.000 A 
ATOM      6 CL   UNL     1      42.829   4.735  12.611  0.00  0.00    +0.000 Cl
ATOM      7  C   UNL     1      45.036   6.258  12.721  0.00  0.00    +0.000 A 
ENDROOT
BRANCH   1   9
ATOM      8  C   UNL     1      46.066   9.154  13.254  0.00  0.00    +0.000 C 
ATOM      9  C   UNL     1      46.929   7.907  13.043  0.00  0.00    +0.000 C 
BRANCH   9  10
ATOM     10  N   UNL     1      47.337   7.316  14.306  0.00  0.00    +0.000 N 
ATOM     11  C   UNL     1      48.596   6.821  14.528  0.00  0.00    +0.000 C 
ATOM     12  O   UNL     1      49.474   6.853  13.671  0.00  0.00    +0.000 OA
ATOM     13  H   UNL     1      46.596   7.056  14.950  0.00  0.00    +0.000 HD
BRANCH  11  14
ATOM     14  C   UNL     1      48.860   6.294  15.873  0.00  0.00    +0.000 A 
ATOM     15  C   UNL     1      49.782   6.930  16.694  0.00  0.00    +0.000 A 
ATOM     16  S   UNL     1      49.960   6.193  18.222  0.00  0.00    +0.000 S 
ATOM     17  C   UNL     1      48.849   4.977  17.824  0.00  0.00    +0.000 A 
ATOM     18  N   UNL     1      48.566   3.973  18.699  0.00  0.00    +0.000 NA
ATOM     19  C   UNL     1      47.732   3.089  18.250  0.00  0.00    +0.000 A 
ATOM     20  N   UNL     1      47.140   3.132  17.015  0.00  0.00    +0.000 N 
ATOM     21  C   UNL     1      47.344   4.159  16.126  0.00  0.00    +0.000 A 
ATOM     22  O   UNL     1      46.713   4.226  15.078  0.00  0.00    +0.000 OA
ATOM     23  C   UNL     1      48.314   5.149  16.554  0.00  0.00    +0.000 A 
ATOM     24  H   UNL     1      46.477   2.426  16.739  0.00  0.00    +0.000 HD
ENDBRANCH  11  14
ENDBRANCH   9  10
ENDBRANCH   1   9
BRANCH   4  25
ATOM     25  N   UNL     1      43.900   4.251   9.755  0.00  0.00    +0.000 N 
ATOM     26  H   UNL     1      42.919   4.529   9.650  0.00  0.00    +0.000 HD
BRANCH  25  27
ATOM     27  C   UNL     1      44.536   3.891   8.474  0.00  0.00    +0.000 C 
BRANCH  27  28
ATOM     28  C   UNL     1      45.127   2.475   8.455  0.00  0.00    +0.000 C 
ATOM     29  O   UNL     1      44.637   1.563   9.126  0.00  0.00    +0.000 OA
ATOM     30  N   UNL     1      46.220   2.272   7.610  0.00  0.00    +0.000 N 
ATOM     31  C   UNL     1      46.915   3.312   6.837  0.00  0.00    +0.000 C 
ATOM     32  C   UNL     1      47.317   2.795   5.448  0.00  0.00    +0.000 C 
ATOM     33  O   UNL     1      48.053   1.568   5.536  0.00  0.00    +0.000 OA
ATOM     34  C   UNL     1      47.276   0.555   6.196  0.00  0.00    +0.000 C 
ATOM     35  C   UNL     1      46.917   0.984   7.621  0.00  0.00    +0.000 C 
ENDBRANCH  27  28
ENDBRANCH  25  27
ENDBRANCH   4  25
TORSDOF 6
ENDMDL
MODEL 2
REMARK VINA RESULT:    -7.889      1.727      2.124
REMARK INTER + INTRA:         -11.981
REMARK INTER:                 -10.863
REMARK INTRA:                  -1.118
REMARK UNBOUND:                -1.325
REMARK  Name = 
REMARK  7 active torsions:
REMARK  status: ('A' for Active; 'I' for Inactive)
REMARK    1  A    between atoms: C_1  and  C_2
REMARK    2  A    between atoms: C_2  and  N_3
REMARK    3  A    between atoms: C_2  and  C_16
REMARK    4  A    between atoms: C_4  and  C_6
REMARK    5  A    between atoms: C_19  and  N_20
REMARK    6  A    between atoms: N_20  and  C_21
REMARK    7  A    between atoms: C_21  and  C_22
REMARK                            x       y       z     vdW  Elec       q    Type
REMARK                         _______ _______ _______ _____ _____    ______ ____
ROOT
ATOM      1  C   UNL     1      46.897   6.333  12.536  0.00  0.00    +0.000 A 
ATOM      2  C   UNL     1      46.738   6.773  11.216  0.00  0.00    +0.000 A 
ATOM      3  C   UNL     1      45.863   6.120  10.347  0.00  0.00    +0.000 A 
ATOM      4  C   UNL     1      45.079   5.033  10.764  0.00  0.00    +0.000 A 
ATOM      5  C   UNL     1      45.297   4.552  12.070  0.00  0.00    +0.000 A 
ATOM      6 CL   UNL     1      44.420   3.193  12.685  0.00  0.00    +0.000 Cl
ATOM      7  C   UNL     1      46.187   5.196  12.944  0.00  0.00    +0.000 A 
ENDROOT
BRANCH   1   9
ATOM      8  C   UNL     1      47.296   8.552  13.654  0.00  0.00    +0.000 C 
ATOM      9  C   UNL     1      47.752   7.095  13.531  0.00  0.00    +0.000 C 
BRANCH   9  10
ATOM     10  N   UNL     1      47.717   6.411  14.813  0.00  0.00    +0.000 N 
ATOM     11  C   UNL     1      48.824   6.250  15.605  0.00  0.00    +0.000 C 
ATOM     12  O   UNL     1      49.927   6.683  15.288  0.00  0.00    +0.000 OA
ATOM     13  H   UNL     1      46.899   5.841  15.005  0.00  0.00    +0.000 HD
BRANCH  11  14
ATOM     14  C   UNL     1      48.610   5.571  16.890  0.00  0.00    +0.000 A 
ATOM     15  C   UNL     1      48.699   4.188  16.962  0.00  0.00    +0.000 A 
ATOM     16  S   UNL     1      48.433   3.566  18.528  0.00  0.00    +0.000 S 
ATOM     17  C   UNL     1      48.145   5.115  19.151  0.00  0.00    +0.000 A 
ATOM     18  N   UNL     1      47.810   5.292  20.459  0.00  0.00    +0.000 NA
ATOM     19  C   UNL     1      47.577   6.523  20.792  0.00  0.00    +0.000 A 
ATOM     20  N   UNL     1      47.672   7.591  19.940  0.00  0.00    +0.000 N 
ATOM     21  C   UNL     1      48.071   7.468  18.631  0.00  0.00    +0.000 A 
ATOM     22  O   UNL     1      48.254   8.455  17.927  0.00  0.00    +0.000 OA
ATOM     23  C   UNL     1      48.289   6.104  18.188  0.00  0.00    +0.000 A 
ATOM     24  H   UNL     1      47.505   8.529  20.270  0.00  0.00    +0.000 HD
ENDBRANCH  11  14
ENDBRANCH   9  10
ENDBRANCH   1   9
BRANCH   4  25
ATOM     25  N   UNL     1      44.170   4.432   9.867  0.00  0.00    +0.000 N 
ATOM     26  H   UNL     1      43.281   4.933   9.776  0.00  0.00    +0.000 HD
BRANCH  25  27
ATOM     27  C   UNL     1      44.731   4.015   8.568  0.00  0.00    +0.000 C 
BRANCH  27  28
ATOM     28  C   UNL     1      45.210   2.557   8.543  0.00  0.00    +0.000 C 
ATOM     29  O   UNL     1      44.654   1.685   9.214  0.00  0.00    +0.000 OA
ATOM     30  N   UNL     1      46.279   2.273   7.691  0.00  0.00    +0.000 N 
ATOM     31  C   UNL     1      47.049   3.258   6.917  0.00  0.00    +0.000 C 
ATOM     32  C   UNL     1      47.402   2.715   5.524  0.00  0.00    +0.000 C 
ATOM     33  O   UNL     1      48.040   1.434   5.605  0.00  0.00    +0.000 OA
ATOM     34  C   UNL     1      47.191   0.483   6.267  0.00  0.00    +0.000 C 
ATOM     35  C   UNL     1      46.873   0.934   7.695  0.00  0.00    +0.000 C 
ENDBRANCH  27  28
ENDBRANCH  25  27
ENDBRANCH   4  25
TORSDOF 6
ENDMDL
MODEL 3
REMARK VINA RESULT:    -7.498      2.621      4.263
REMARK INTER + INTRA:         -11.452
REMARK INTER:                 -10.193
REMARK INTRA:                  -1.259
REMARK UNBOUND:                -1.325
REMARK  Name = 
REMARK  7 active torsions:
REMARK  status: ('A' for Active; 'I' for Inactive)
REMARK    1  A    between atoms: C_1  and  C_2
REMARK    2  A    between atoms: C_2  and  N_3
REMARK    3  A    between atoms: C_2  and  C_16
REMARK    4  A    between atoms: C_4  and  C_6
REMARK    5  A    between atoms: C_19  and  N_20
REMARK    6  A    between atoms: N_20  and  C_21
REMARK    7  A    between atoms: C_21  and  C_22
REMARK                            x       y       z     vdW  Elec       q    Type
REMARK                         _______ _______ _______ _____ _____    ______ ____
ROOT
ATOM      1  C   UNL     1      46.415   5.424  13.045  0.00  0.00    +0.000 A 
ATOM      2  C   UNL     1      46.580   6.112  11.837  0.00  0.00    +0.000 A 
ATOM      3  C   UNL     1      45.814   5.783  10.718  0.00  0.00    +0.000 A 
ATOM      4  C   UNL     1      44.822   4.790  10.766  0.00  0.00    +0.000 A 
ATOM      5  C   UNL     1      44.712   4.055  11.963  0.00  0.00    +0.000 A 
ATOM      6 CL   UNL     1      43.554   2.780  12.130  0.00  0.00    +0.000 Cl
ATOM      7  C   UNL     1      45.491   4.372  13.086  0.00  0.00    +0.000 A 
ENDROOT
BRANCH   1   9
ATOM      8  C   UNL     1      47.355   4.651  15.248  0.00  0.00    +0.000 C 
ATOM      9  C   UNL     1      47.153   5.840  14.304  0.00  0.00    +0.000 C 
BRANCH   9  10
ATOM     10  N   UNL     1      48.418   6.454  13.934  0.00  0.00    +0.000 N 
ATOM     11  C   UNL     1      48.934   7.549  14.577  0.00  0.00    +0.000 C 
ATOM     12  O   UNL     1      48.363   8.085  15.523  0.00  0.00    +0.000 OA
ATOM     13  H   UNL     1      48.802   6.200  13.029  0.00  0.00    +0.000 HD
BRANCH  11  14
ATOM     14  C   UNL     1      50.243   8.021  14.108  0.00  0.00    +0.000 A 
ATOM     15  C   UNL     1      51.373   7.806  14.885  0.00  0.00    +0.000 A 
ATOM     16  S   UNL     1      52.808   8.410  14.189  0.00  0.00    +0.000 S 
ATOM     17  C   UNL     1      51.965   9.020  12.852  0.00  0.00    +0.000 A 
ATOM     18  N   UNL     1      52.611   9.708  11.870  0.00  0.00    +0.000 NA
ATOM     19  C   UNL     1      51.839  10.153  10.929  0.00  0.00    +0.000 A 
ATOM     20  N   UNL     1      50.486   9.951  10.871  0.00  0.00    +0.000 N 
ATOM     21  C   UNL     1      49.802   9.208  11.802  0.00  0.00    +0.000 A 
ATOM     22  O   UNL     1      48.612   8.952  11.661  0.00  0.00    +0.000 OA
ATOM     23  C   UNL     1      50.607   8.733  12.911  0.00  0.00    +0.000 A 
ATOM     24  H   UNL     1      49.947  10.301  10.094  0.00  0.00    +0.000 HD
ENDBRANCH  11  14
ENDBRANCH   9  10
ENDBRANCH   1   9
BRANCH   4  25
ATOM     25  N   UNL     1      44.035   4.522   9.625  0.00  0.00    +0.000 N 
ATOM     26  H   UNL     1      43.318   5.229   9.439  0.00  0.00    +0.000 HD
BRANCH  25  27
ATOM     27  C   UNL     1      44.775   4.119   8.415  0.00  0.00    +0.000 C 
BRANCH  27  28
ATOM     28  C   UNL     1      45.231   2.653   8.430  0.00  0.00    +0.000 C 
ATOM     29  O   UNL     1      44.655   1.807   9.118  0.00  0.00    +0.000 OA
ATOM     30  N   UNL     1      46.302   2.331   7.595  0.00  0.00    +0.000 N 
ATOM     31  C   UNL     1      47.094   3.284   6.803  0.00  0.00    +0.000 C 
ATOM     32  C   UNL     1      47.449   2.700   5.428  0.00  0.00    +0.000 C 
ATOM     33  O   UNL     1      48.067   1.412   5.546  0.00  0.00    +0.000 OA
ATOM     34  C   UNL     1      47.197   0.491   6.224  0.00  0.00    +0.000 C 
ATOM     35  C   UNL     1      46.875   0.984   7.638  0.00  0.00    +0.000 C 
ENDBRANCH  27  28
ENDBRANCH  25  27
ENDBRANCH   4  25
TORSDOF 6
ENDMDL
MODEL 4
REMARK VINA RESULT:    -7.448      2.304      3.130
REMARK INTER + INTRA:         -11.386
REMARK INTER:                 -10.329
REMARK INTRA:                  -1.057
REMARK UNBOUND:                -1.325
REMARK  Name = 
REMARK  7 active torsions:
REMARK  status: ('A' for Active; 'I' for Inactive)
REMARK    1  A    between atoms: C_1  and  C_2
REMARK    2  A    between atoms: C_2  and  N_3
REMARK    3  A    between atoms: C_2  and  C_16
REMARK    4  A    between atoms: C_4  and  C_6
REMARK    5  A    between atoms: C_19  and  N_20
REMARK    6  A    between atoms: N_20  and  C_21
REMARK    7  A    between atoms: C_21  and  C_22
REMARK                            x       y       z     vdW  Elec       q    Type
REMARK                         _______ _______ _______ _____ _____    ______ ____
ROOT
ATOM      1  C   UNL     1      47.353   6.538  13.569  0.00  0.00    +0.000 A 
ATOM      2  C   UNL     1      46.614   5.371  13.796  0.00  0.00    +0.000 A 
ATOM      3  C   UNL     1      45.292   5.268  13.362  0.00  0.00    +0.000 A 
ATOM      4  C   UNL     1      44.665   6.301  12.648  0.00  0.00    +0.000 A 
ATOM      5  C   UNL     1      45.390   7.497  12.487  0.00  0.00    +0.000 A 
ATOM      6 CL   UNL     1      44.709   8.856  11.659  0.00  0.00    +0.000 Cl
ATOM      7  C   UNL     1      46.715   7.612  12.935  0.00  0.00    +0.000 A 
ENDROOT
BRANCH   1   9
ATOM      8  C   UNL     1      49.572   7.565  12.972  0.00  0.00    +0.000 C 
ATOM      9  C   UNL     1      48.825   6.630  13.928  0.00  0.00    +0.000 C 
BRANCH   9  10
ATOM     10  N   UNL     1      48.953   7.061  15.310  0.00  0.00    +0.000 N 
ATOM     11  C   UNL     1      49.060   6.185  16.359  0.00  0.00    +0.000 C 
ATOM     12  O   UNL     1      49.065   4.967  16.201  0.00  0.00    +0.000 OA
ATOM     13  H   UNL     1      48.720   8.028  15.511  0.00  0.00    +0.000 HD
BRANCH  11  14
ATOM     14  C   UNL     1      49.224   6.782  17.691  0.00  0.00    +0.000 A 
ATOM     15  C   UNL     1      50.251   7.688  17.918  0.00  0.00    +0.000 A 
ATOM     16  S   UNL     1      50.290   8.290  19.514  0.00  0.00    +0.000 S 
ATOM     17  C   UNL     1      48.971   7.329  19.966  0.00  0.00    +0.000 A 
ATOM     18  N   UNL     1      48.507   7.333  21.246  0.00  0.00    +0.000 NA
ATOM     19  C   UNL     1      47.520   6.521  21.463  0.00  0.00    +0.000 A 
ATOM     20  N   UNL     1      46.944   5.724  20.510  0.00  0.00    +0.000 N 
ATOM     21  C   UNL     1      47.335   5.735  19.193  0.00  0.00    +0.000 A 
ATOM     22  O   UNL     1      46.726   5.094  18.344  0.00  0.00    +0.000 OA
ATOM     23  C   UNL     1      48.475   6.584  18.904  0.00  0.00    +0.000 A 
ATOM     24  H   UNL     1      46.159   5.135  20.739  0.00  0.00    +0.000 HD
ENDBRANCH  11  14
ENDBRANCH   9  10
ENDBRANCH   1   9
BRANCH   4  25
ATOM     25  N   UNL     1      43.342   6.136  12.184  0.00  0.00    +0.000 N 
ATOM     26  H   UNL     1      42.743   6.953  12.334  0.00  0.00    +0.000 HD
BRANCH  25  27
ATOM     27  C   UNL     1      43.202   5.560  10.833  0.00  0.00    +0.000 C 
BRANCH  27  28
ATOM     28  C   UNL     1      43.538   4.064  10.763  0.00  0.00    +0.000 C 
ATOM     29  O   UNL     1      42.869   3.225  11.371  0.00  0.00    +0.000 OA
ATOM     30  N   UNL     1      44.611   3.709   9.945  0.00  0.00    +0.000 N 
ATOM     31  C   UNL     1      45.508   4.643   9.248  0.00  0.00    +0.000 C 
ATOM     32  C   UNL     1      45.870   4.123   7.848  0.00  0.00    +0.000 C 
ATOM     33  O   UNL     1      46.376   2.784   7.898  0.00  0.00    +0.000 OA
ATOM     34  C   UNL     1      45.408   1.896   8.482  0.00  0.00    +0.000 C 
ATOM     35  C   UNL     1      45.072   2.319   9.914  0.00  0.00    +0.000 C 
ENDBRANCH  27  28
ENDBRANCH  25  27
ENDBRANCH   4  25
TORSDOF 6
ENDMDL
MODEL 5
REMARK VINA RESULT:    -7.425      3.649      5.532
REMARK INTER + INTRA:         -11.354
REMARK INTER:                 -10.092
REMARK INTRA:                  -1.262
REMARK UNBOUND:                -1.325
REMARK  Name = 
REMARK  7 active torsions:
REMARK  status: ('A' for Active; 'I' for Inactive)
REMARK    1  A    between atoms: C_1  and  C_2
REMARK    2  A    between atoms: C_2  and  N_3
REMARK    3  A    between atoms: C_2  and  C_16
REMARK    4  A    between atoms: C_4  and  C_6
REMARK    5  A    between atoms: C_19  and  N_20
REMARK    6  A    between atoms: N_20  and  C_21
REMARK    7  A    between atoms: C_21  and  C_22
REMARK                            x       y       z     vdW  Elec       q    Type
REMARK                         _______ _______ _______ _____ _____    ______ ____
ROOT
ATOM      1  C   UNL     1      47.913   4.976  15.994  0.00  0.00    +0.000 A 
ATOM      2  C   UNL     1      47.091   4.370  15.036  0.00  0.00    +0.000 A 
ATOM      3  C   UNL     1      46.916   4.947  13.777  0.00  0.00    +0.000 A 
ATOM      4  C   UNL     1      47.583   6.125  13.404  0.00  0.00    +0.000 A 
ATOM      5  C   UNL     1      48.350   6.766  14.397  0.00  0.00    +0.000 A 
ATOM      6 CL   UNL     1      49.186   8.246  14.069  0.00  0.00    +0.000 Cl
ATOM      7  C   UNL     1      48.517   6.198  15.669  0.00  0.00    +0.000 A 
ENDROOT
BRANCH   1   9
ATOM      8  C   UNL     1      47.333   3.070  17.531  0.00  0.00    +0.000 C 
ATOM      9  C   UNL     1      48.209   4.309  17.324  0.00  0.00    +0.000 C 
BRANCH   9  10
ATOM     10  N   UNL     1      49.624   3.983  17.388  0.00  0.00    +0.000 N 
ATOM     11  C   UNL     1      50.394   4.209  18.500  0.00  0.00    +0.000 C 
ATOM     12  O   UNL     1      49.935   4.697  19.528  0.00  0.00    +0.000 OA
ATOM     13  H   UNL     1      50.093   3.802  16.506  0.00  0.00    +0.000 HD
BRANCH  11  14
ATOM     14  C   UNL     1      51.797   3.784  18.417  0.00  0.00    +0.000 A 
ATOM     15  C   UNL     1      52.805   4.652  18.816  0.00  0.00    +0.000 A 
ATOM     16  S   UNL     1      54.372   3.996  18.661  0.00  0.00    +0.000 S 
ATOM     17  C   UNL     1      53.763   2.554  18.015  0.00  0.00    +0.000 A 
ATOM     18  N   UNL     1      54.601   1.556  17.617  0.00  0.00    +0.000 NA
ATOM     19  C   UNL     1      54.003   0.527  17.104  0.00  0.00    +0.000 A 
ATOM     20  N   UNL     1      52.646   0.399  16.973  0.00  0.00    +0.000 N 
ATOM     21  C   UNL     1      51.761   1.350  17.420  0.00  0.00    +0.000 A 
ATOM     22  O   UNL     1      50.551   1.155  17.390  0.00  0.00    +0.000 OA
ATOM     23  C   UNL     1      52.376   2.550  17.952  0.00  0.00    +0.000 A 
ATOM     24  H   UNL     1      52.244  -0.442  16.590  0.00  0.00    +0.000 HD
ENDBRANCH  11  14
ENDBRANCH   9  10
ENDBRANCH   1   9
BRANCH   4  25
ATOM     25  N   UNL     1      47.417   6.649  12.104  0.00  0.00    +0.000 N 
ATOM     26  H   UNL     1      48.036   6.231  11.404  0.00  0.00    +0.000 HD
BRANCH  25  27
ATOM     27  C   UNL     1      46.023   6.778  11.638  0.00  0.00    +0.000 C 
BRANCH  27  28
ATOM     28  C   UNL     1      45.656   5.799  10.514  0.00  0.00    +0.000 C 
ATOM     29  O   UNL     1      46.246   5.811   9.431  0.00  0.00    +0.000 OA
ATOM     30  N   UNL     1      44.649   4.876  10.803  0.00  0.00    +0.000 N 
ATOM     31  C   UNL     1      43.842   4.839  12.032  0.00  0.00    +0.000 C 
ATOM     32  C   UNL     1      43.590   3.394  12.486  0.00  0.00    +0.000 C 
ATOM     33  O   UNL     1      43.046   2.596  11.427  0.00  0.00    +0.000 OA
ATOM     34  C   UNL     1      43.934   2.575  10.298  0.00  0.00    +0.000 C 
ATOM     35  C   UNL     1      44.156   3.987   9.749  0.00  0.00    +0.000 C 
ENDBRANCH  27  28
ENDBRANCH  25  27
ENDBRANCH   4  25
TORSDOF 6
ENDMDL
MODEL 6
REMARK VINA RESULT:    -7.342      4.023      8.599
REMARK INTER + INTRA:         -11.242
REMARK INTER:                 -10.026
REMARK INTRA:                  -1.216
REMARK UNBOUND:                -1.325
REMARK  Name = 
REMARK  7 active torsions:
REMARK  status: ('A' for Active; 'I' for Inactive)
REMARK    1  A    between atoms: C_1  and  C_2
REMARK    2  A    between atoms: C_2  and  N_3
REMARK    3  A    between atoms: C_2  and  C_16
REMARK    4  A    between atoms: C_4  and  C_6
REMARK    5  A    between atoms: C_19  and  N_20
REMARK    6  A    between atoms: N_20  and  C_21
REMARK    7  A    between atoms: C_21  and  C_22
REMARK                            x       y       z     vdW  Elec       q    Type
REMARK                         _______ _______ _______ _____ _____    ______ ____
ROOT
ATOM      1  C   UNL     1      48.668   6.815  14.532  0.00  0.00    +0.000 A 
ATOM      2  C   UNL     1      49.814   7.207  15.234  0.00  0.00    +0.000 A 
ATOM      3  C   UNL     1      50.167   6.582  16.431  0.00  0.00    +0.000 A 
ATOM      4  C   UNL     1      49.423   5.514  16.955  0.00  0.00    +0.000 A 
ATOM      5  C   UNL     1      48.233   5.173  16.282  0.00  0.00    +0.000 A 
ATOM      6 CL   UNL     1      47.210   3.900  16.855  0.00  0.00    +0.000 Cl
ATOM      7  C   UNL     1      47.865   5.809  15.087  0.00  0.00    +0.000 A 
ENDROOT
BRANCH   1   9
ATOM      8  C   UNL     1      49.593   7.817  12.417  0.00  0.00    +0.000 C 
ATOM      9  C   UNL     1      48.329   7.399  13.173  0.00  0.00    +0.000 C 
BRANCH   9  10
ATOM     10  N   UNL     1      47.547   6.432  12.420  0.00  0.00    +0.000 N 
ATOM     11  C   UNL     1      46.409   6.764  11.732  0.00  0.00    +0.000 C 
ATOM     12  O   UNL     1      45.974   7.912  11.697  0.00  0.00    +0.000 OA
ATOM     13  H   UNL     1      47.728   5.451  12.610  0.00  0.00    +0.000 HD
BRANCH  11  14
ATOM     14  C   UNL     1      45.759   5.678  10.988  0.00  0.00    +0.000 A 
ATOM     15  C   UNL     1      45.846   5.643   9.603  0.00  0.00    +0.000 A 
ATOM     16  S   UNL     1      45.042   4.311   8.901  0.00  0.00    +0.000 S 
ATOM     17  C   UNL     1      44.514   3.764  10.415  0.00  0.00    +0.000 A 
ATOM     18  N   UNL     1      43.723   2.661  10.524  0.00  0.00    +0.000 NA
ATOM     19  C   UNL     1      43.359   2.379  11.736  0.00  0.00    +0.000 A 
ATOM     20  N   UNL     1      43.734   3.088  12.846  0.00  0.00    +0.000 N 
ATOM     21  C   UNL     1      44.582   4.166  12.792  0.00  0.00    +0.000 A 
ATOM     22  O   UNL     1      44.987   4.708  13.814  0.00  0.00    +0.000 OA
ATOM     23  C   UNL     1      44.977   4.562  11.453  0.00  0.00    +0.000 A 
ATOM     24  H   UNL     1      43.437   2.798  13.765  0.00  0.00    +0.000 HD
ENDBRANCH  11  14
ENDBRANCH   9  10
ENDBRANCH   1   9
BRANCH   4  25
ATOM     25  N   UNL     1      49.842   4.877  18.143  0.00  0.00    +0.000 N 
ATOM     26  H   UNL     1      49.155   4.224  18.531  0.00  0.00    +0.000 HD
BRANCH  25  27
ATOM     27  C   UNL     1      51.212   4.331  18.129  0.00  0.00    +0.000 C 
BRANCH  27  28
ATOM     28  C   UNL     1      51.294   2.881  17.632  0.00  0.00    +0.000 C 
ATOM     29  O   UNL     1      50.416   2.396  16.915  0.00  0.00    +0.000 OA
ATOM     30  N   UNL     1      52.432   2.164  18.006  0.00  0.00    +0.000 N 
ATOM     31  C   UNL     1      53.485   2.633  18.917  0.00  0.00    +0.000 C 
ATOM     32  C   UNL     1      54.874   2.189  18.434  0.00  0.00    +0.000 C 
ATOM     33  O   UNL     1      54.922   0.778  18.194  0.00  0.00    +0.000 OA
ATOM     34  C   UNL     1      53.949   0.396  17.207  0.00  0.00    +0.000 C 
ATOM     35  C   UNL     1      52.532   0.740  17.675  0.00  0.00    +0.000 C 
ENDBRANCH  27  28
ENDBRANCH  25  27
ENDBRANCH   4  25
TORSDOF 6
ENDMDL
MODEL 7
REMARK VINA RESULT:    -7.197      2.454      3.158
REMARK INTER + INTRA:         -11.046
REMARK INTER:                  -9.931
REMARK INTRA:                  -1.115
REMARK UNBOUND:                -1.325
REMARK  Name = 
REMARK  7 active torsions:
REMARK  status: ('A' for Active; 'I' for Inactive)
REMARK    1  A    between atoms: C_1  and  C_2
REMARK    2  A    between atoms: C_2  and  N_3
REMARK    3  A    between atoms: C_2  and  C_16
REMARK    4  A    between atoms: C_4  and  C_6
REMARK    5  A    between atoms: C_19  and  N_20
REMARK    6  A    between atoms: N_20  and  C_21
REMARK    7  A    between atoms: C_21  and  C_22
REMARK                            x       y       z     vdW  Elec       q    Type
REMARK                         _______ _______ _______ _____ _____    ______ ____
ROOT
ATOM      1  C   UNL     1      47.274   6.337  13.701  0.00  0.00    +0.000 A 
ATOM      2  C   UNL     1      46.955   4.977  13.608  0.00  0.00    +0.000 A 
ATOM      3  C   UNL     1      45.918   4.542  12.782  0.00  0.00    +0.000 A 
ATOM      4  C   UNL     1      45.186   5.433  11.982  0.00  0.00    +0.000 A 
ATOM      5  C   UNL     1      45.464   6.805  12.135  0.00  0.00    +0.000 A 
ATOM      6 CL   UNL     1      44.600   8.003  11.233  0.00  0.00    +0.000 Cl
ATOM      7  C   UNL     1      46.496   7.249  12.976  0.00  0.00    +0.000 A 
ENDROOT
BRANCH   1   9
ATOM      8  C   UNL     1      48.685   8.326  14.321  0.00  0.00    +0.000 C 
ATOM      9  C   UNL     1      48.470   6.821  14.501  0.00  0.00    +0.000 C 
BRANCH   9  10
ATOM     10  N   UNL     1      48.282   6.468  15.899  0.00  0.00    +0.000 N 
ATOM     11  C   UNL     1      49.301   6.027  16.702  0.00  0.00    +0.000 C 
ATOM     12  O   UNL     1      50.453   5.908  16.295  0.00  0.00    +0.000 OA
ATOM     13  H   UNL     1      47.326   6.326  16.210  0.00  0.00    +0.000 HD
BRANCH  11  14
ATOM     14  C   UNL     1      48.954   5.752  18.102  0.00  0.00    +0.000 A 
ATOM     15  C   UNL     1      49.132   4.476  18.619  0.00  0.00    +0.000 A 
ATOM     16  S   UNL     1      48.687   4.335  20.259  0.00  0.00    +0.000 S 
ATOM     17  C   UNL     1      48.199   5.956  20.322  0.00  0.00    +0.000 A 
ATOM     18  N   UNL     1      47.666   6.483  21.458  0.00  0.00    +0.000 NA
ATOM     19  C   UNL     1      47.299   7.722  21.354  0.00  0.00    +0.000 A 
ATOM     20  N   UNL     1      47.438   8.483  20.224  0.00  0.00    +0.000 N 
ATOM     21  C   UNL     1      48.030   8.014  19.077  0.00  0.00    +0.000 A 
ATOM     22  O   UNL     1      48.241   8.754  18.123  0.00  0.00    +0.000 OA
ATOM     23  C   UNL     1      48.409   6.615  19.118  0.00  0.00    +0.000 A 
ATOM     24  H   UNL     1      47.157   9.451  20.219  0.00  0.00    +0.000 HD
ENDBRANCH  11  14
ENDBRANCH   9  10
ENDBRANCH   1   9
BRANCH   4  25
ATOM     25  N   UNL     1      44.177   4.946  11.123  0.00  0.00    +0.000 N 
ATOM     26  H   UNL     1      43.663   5.679  10.626  0.00  0.00    +0.000 HD
BRANCH  25  27
ATOM     27  C   UNL     1      44.565   3.821  10.251  0.00  0.00    +0.000 C 
BRANCH  27  28
ATOM     28  C   UNL     1      45.410   4.242   9.040  0.00  0.00    +0.000 C 
ATOM     29  O   UNL     1      45.732   5.418   8.857  0.00  0.00    +0.000 OA
ATOM     30  N   UNL     1      45.821   3.216   8.188  0.00  0.00    +0.000 N 
ATOM     31  C   UNL     1      45.422   1.804   8.284  0.00  0.00    +0.000 C 
ATOM     32  C   UNL     1      46.599   0.872   7.958  0.00  0.00    +0.000 C 
ATOM     33  O   UNL     1      47.201   1.205   6.701  0.00  0.00    +0.000 OA
ATOM     34  C   UNL     1      47.678   2.561   6.709  0.00  0.00    +0.000 C 
ATOM     35  C   UNL     1      46.528   3.544   6.947  0.00  0.00    +0.000 C 
ENDBRANCH  27  28
ENDBRANCH  25  27
ENDBRANCH   4  25
TORSDOF 6
ENDMDL
MODEL 8
REMARK VINA RESULT:    -6.981      2.031      2.693
REMARK INTER + INTRA:         -10.755
REMARK INTER:                  -9.285
REMARK INTRA:                  -1.469
REMARK UNBOUND:                -1.325
REMARK  Name = 
REMARK  7 active torsions:
REMARK  status: ('A' for Active; 'I' for Inactive)
REMARK    1  A    between atoms: C_1  and  C_2
REMARK    2  A    between atoms: C_2  and  N_3
REMARK    3  A    between atoms: C_2  and  C_16
REMARK    4  A    between atoms: C_4  and  C_6
REMARK    5  A    between atoms: C_19  and  N_20
REMARK    6  A    between atoms: N_20  and  C_21
REMARK    7  A    between atoms: C_21  and  C_22
REMARK                            x       y       z     vdW  Elec       q    Type
REMARK                         _______ _______ _______ _____ _____    ______ ____
ROOT
ATOM      1  C   UNL     1      47.453   7.556  13.176  0.00  0.00    +0.000 A 
ATOM      2  C   UNL     1      46.391   8.362  12.750  0.00  0.00    +0.000 A 
ATOM      3  C   UNL     1      45.132   7.813  12.501  0.00  0.00    +0.000 A 
ATOM      4  C   UNL     1      44.866   6.450  12.708  0.00  0.00    +0.000 A 
ATOM      5  C   UNL     1      45.956   5.633  13.067  0.00  0.00    +0.000 A 
ATOM      6 CL   UNL     1      45.761   3.931  13.310  0.00  0.00    +0.000 Cl
ATOM      7  C   UNL     1      47.228   6.178  13.303  0.00  0.00    +0.000 A 
ENDROOT
BRANCH   1   9
ATOM      8  C   UNL     1      48.840   9.653  13.282  0.00  0.00    +0.000 C 
ATOM      9  C   UNL     1      48.795   8.148  13.563  0.00  0.00    +0.000 C 
BRANCH   9  10
ATOM     10  N   UNL     1      49.060   7.854  14.962  0.00  0.00    +0.000 N 
ATOM     11  C   UNL     1      50.319   7.617  15.451  0.00  0.00    +0.000 C 
ATOM     12  O   UNL     1      51.317   7.647  14.737  0.00  0.00    +0.000 OA
ATOM     13  H   UNL     1      48.263   7.590  15.533  0.00  0.00    +0.000 HD
BRANCH  11  14
ATOM     14  C   UNL     1      50.420   7.377  16.896  0.00  0.00    +0.000 A 
ATOM     15  C   UNL     1      51.144   8.254  17.691  0.00  0.00    +0.000 A 
ATOM     16  S   UNL     1      51.152   7.831  19.344  0.00  0.00    +0.000 S 
ATOM     17  C   UNL     1      50.231   6.441  19.047  0.00  0.00    +0.000 A 
ATOM     18  N   UNL     1      49.909   5.585  20.056  0.00  0.00    +0.000 NA
ATOM     19  C   UNL     1      49.237   4.542  19.682  0.00  0.00    +0.000 A 
ATOM     20  N   UNL     1      48.840   4.292  18.395  0.00  0.00    +0.000 N 
ATOM     21  C   UNL     1      49.084   5.159  17.358  0.00  0.00    +0.000 A 
ATOM     22  O   UNL     1      48.617   4.960  16.242  0.00  0.00    +0.000 OA
ATOM     23  C   UNL     1      49.883   6.317  17.708  0.00  0.00    +0.000 A 
ATOM     24  H   UNL     1      48.293   3.474  18.176  0.00  0.00    +0.000 HD
ENDBRANCH  11  14
ENDBRANCH   9  10
ENDBRANCH   1   9
BRANCH   4  25
ATOM     25  N   UNL     1      43.566   5.944  12.492  0.00  0.00    +0.000 N 
ATOM     26  H   UNL     1      42.823   6.508  12.914  0.00  0.00    +0.000 HD
BRANCH  25  27
ATOM     27  C   UNL     1      43.260   5.529  11.109  0.00  0.00    +0.000 C 
BRANCH  27  28
ATOM     28  C   UNL     1      43.560   4.051  10.827  0.00  0.00    +0.000 C 
ATOM     29  O   UNL     1      42.863   3.151  11.302  0.00  0.00    +0.000 OA
ATOM     30  N   UNL     1      44.635   3.789   9.976  0.00  0.00    +0.000 N 
ATOM     31  C   UNL     1      45.563   4.790   9.429  0.00  0.00    +0.000 C 
ATOM     32  C   UNL     1      45.930   4.468   7.973  0.00  0.00    +0.000 C 
ATOM     33  O   UNL     1      46.402   3.122   7.834  0.00  0.00    +0.000 OA
ATOM     34  C   UNL     1      45.406   2.185   8.275  0.00  0.00    +0.000 C 
ATOM     35  C   UNL     1      45.061   2.406   9.750  0.00  0.00    +0.000 C 
ENDBRANCH  27  28
ENDBRANCH  25  27
ENDBRANCH   4  25
TORSDOF 6
ENDMDL
MODEL 9
REMARK VINA RESULT:    -6.965      3.369      8.425
REMARK INTER + INTRA:         -10.733
REMARK INTER:                  -9.601
REMARK INTRA:                  -1.133
REMARK UNBOUND:                -1.325
REMARK  Name = 
REMARK  7 active torsions:
REMARK  status: ('A' for Active; 'I' for Inactive)
REMARK    1  A    between atoms: C_1  and  C_2
REMARK    2  A    between atoms: C_2  and  N_3
REMARK    3  A    between atoms: C_2  and  C_16
REMARK    4  A    between atoms: C_4  and  C_6
REMARK    5  A    between atoms: C_19  and  N_20
REMARK    6  A    between atoms: N_20  and  C_21
REMARK    7  A    between atoms: C_21  and  C_22
REMARK                            x       y       z     vdW  Elec       q    Type
REMARK                         _______ _______ _______ _____ _____    ______ ____
ROOT
ATOM      1  C   UNL     1      48.600   8.061  13.936  0.00  0.00    +0.000 A 
ATOM      2  C   UNL     1      49.733   7.286  14.209  0.00  0.00    +0.000 A 
ATOM      3  C   UNL     1      50.249   7.209  15.503  0.00  0.00    +0.000 A 
ATOM      4  C   UNL     1      49.637   7.862  16.585  0.00  0.00    +0.000 A 
ATOM      5  C   UNL     1      48.542   8.697  16.290  0.00  0.00    +0.000 A 
ATOM      6 CL   UNL     1      47.729   9.586  17.533  0.00  0.00    +0.000 Cl
ATOM      7  C   UNL     1      48.028   8.790  14.987  0.00  0.00    +0.000 A 
ENDROOT
BRANCH   1   9
ATOM      8  C   UNL     1      49.007   8.093  11.452  0.00  0.00    +0.000 C 
ATOM      9  C   UNL     1      47.953   8.068  12.563  0.00  0.00    +0.000 C 
BRANCH   9  10
ATOM     10  N   UNL     1      47.075   6.915  12.444  0.00  0.00    +0.000 N 
ATOM     11  C   UNL     1      45.811   6.989  11.919  0.00  0.00    +0.000 C 
ATOM     12  O   UNL     1      45.334   8.040  11.501  0.00  0.00    +0.000 OA
ATOM     13  H   UNL     1      47.327   6.091  12.981  0.00  0.00    +0.000 HD
BRANCH  11  14
ATOM     14  C   UNL     1      45.069   5.725  11.831  0.00  0.00    +0.000 A 
ATOM     15  C   UNL     1      44.340   5.276  12.924  0.00  0.00    +0.000 A 
ATOM     16  S   UNL     1      43.533   3.799  12.648  0.00  0.00    +0.000 S 
ATOM     17  C   UNL     1      44.165   3.685  11.081  0.00  0.00    +0.000 A 
ATOM     18  N   UNL     1      43.893   2.609  10.292  0.00  0.00    +0.000 NA
ATOM     19  C   UNL     1      44.474   2.632   9.133  0.00  0.00    +0.000 A 
ATOM     20  N   UNL     1      45.282   3.644   8.687  0.00  0.00    +0.000 N 
ATOM     21  C   UNL     1      45.531   4.778   9.421  0.00  0.00    +0.000 A 
ATOM     22  O   UNL     1      46.166   5.713   8.948  0.00  0.00    +0.000 OA
ATOM     23  C   UNL     1      44.952   4.781  10.751  0.00  0.00    +0.000 A 
ATOM     24  H   UNL     1      45.681   3.612   7.762  0.00  0.00    +0.000 HD
ENDBRANCH  11  14
ENDBRANCH   9  10
ENDBRANCH   1   9
BRANCH   4  25
ATOM     25  N   UNL     1      50.164   7.718  17.886  0.00  0.00    +0.000 N 
ATOM     26  H   UNL     1      50.097   8.565  18.459  0.00  0.00    +0.000 HD
BRANCH  25  27
ATOM     27  C   UNL     1      49.759   6.499  18.611  0.00  0.00    +0.000 C 
BRANCH  27  28
ATOM     28  C   UNL     1      50.769   5.349  18.496  0.00  0.00    +0.000 C 
ATOM     29  O   UNL     1      51.831   5.359  19.124  0.00  0.00    +0.000 OA
ATOM     30  N   UNL     1      50.399   4.281  17.676  0.00  0.00    +0.000 N 
ATOM     31  C   UNL     1      49.196   4.219  16.834  0.00  0.00    +0.000 C 
ATOM     32  C   UNL     1      48.582   2.811  16.849  0.00  0.00    +0.000 C 
ATOM     33  O   UNL     1      49.553   1.810  16.522  0.00  0.00    +0.000 OA
ATOM     34  C   UNL     1      50.649   1.842  17.451  0.00  0.00    +0.000 C 
ATOM     35  C   UNL     1      51.354   3.201  17.418  0.00  0.00    +0.000 C 
ENDBRANCH  27  28
ENDBRANCH  25  27
ENDBRANCH   4  25
TORSDOF 6
ENDMDL
