MODEL 1
REMARK VINA RESULT:    -7.458      0.000      0.000
REMARK INTER + INTRA:         -12.061
REMARK INTER:                 -11.163
REMARK INTRA:                  -0.898
REMARK UNBOUND:                -0.898
REMARK  Name = 
REMARK  9 active torsions:
REMARK  status: ('A' for Active; 'I' for Inactive)
REMARK    1  A    between atoms: C_2  and  CA_13
REMARK    2  A    between atoms: N_3  and  CA_4
REMARK    3  A    between atoms: CA_4  and  C_5
REMARK    4  A    between atoms: CA_4  and  C_7
REMARK    5  A    between atoms: C_5  and  O_6
REMARK    6  A    between atoms: C_16  and  C_17
REMARK    7  A    between atoms: C_17  and  N_18
REMARK    8  A    between atoms: N_18  and  C_19
REMARK    9  A    between atoms: C_19  and  C_20
REMARK                            x       y       z     vdW  Elec       q    Type
REMARK                         _______ _______ _______ _____ _____    ______ ____
ROOT
ATOM      1  CA  UNL     1      47.286   5.737  13.795  0.00  0.00    +0.000 A 
ATOM      2  C   UNL     1      47.397   6.569  12.689  0.00  0.00    +0.000 A 
ATOM      3  C   UNL     1      46.568   6.332  11.600  0.00  0.00    +0.000 A 
ATOM      4  C   UNL     1      45.653   5.274  11.634  0.00  0.00    +0.000 A 
ATOM      5  C   UNL     1      45.618   4.499  12.795  0.00  0.00    +0.000 A 
ATOM      6  N   UNL     1      46.411   4.696  13.879  0.00  0.00    +0.000 NA
ENDROOT
BRANCH   1   8
ATOM      7  O   UNL     1      49.240   6.581  14.866  0.00  0.00    +0.000 OA
ATOM      8  C   UNL     1      48.170   5.988  14.979  0.00  0.00    +0.000 C 
ATOM      9  N   UNL     1      47.701   5.541  16.194  0.00  0.00    +0.000 N 
ATOM     10  H   UNL     1      46.752   5.177  16.199  0.00  0.00    +0.000 HD
BRANCH   9  11
ATOM     11  CA  UNL     1      48.466   5.694  17.437  0.00  0.00    +0.000 C 
BRANCH  11  12
ATOM     12  C   UNL     1      49.300   4.430  17.768  0.00  0.00    +0.000 C 
ATOM     13  C   UNL     1      50.797   4.659  17.490  0.00  0.00    +0.000 C 
ATOM     14  C   UNL     1      51.605   3.391  17.732  0.00  0.00    +0.000 C 
ATOM     15  O   UNL     1      51.088   2.313  16.953  0.00  0.00    +0.000 OA
ATOM     16  C   UNL     1      49.751   1.985  17.320  0.00  0.00    +0.000 C 
ATOM     17  C   UNL     1      48.814   3.158  17.056  0.00  0.00    +0.000 C 
ENDBRANCH  11  12
BRANCH  11  18
ATOM     18  C   UNL     1      47.557   6.120  18.612  0.00  0.00    +0.000 C 
BRANCH  18  19
ATOM     19  O   UNL     1      46.396   5.300  18.744  0.00  0.00    +0.000 OA
ATOM     20  H   UNL     1      45.945   5.545  19.577  0.00  0.00    +0.000 HD
ENDBRANCH  18  19
ENDBRANCH  11  18
ENDBRANCH   9  11
ENDBRANCH   1   8
BRANCH   4  21
ATOM     21  C   UNL     1      44.728   5.011  10.473  0.00  0.00    +0.000 C 
BRANCH  21  22
ATOM     22  N   UNL     1      45.405   5.216   9.199  0.00  0.00    +0.000 NA
ATOM     23  H   UNL     1      46.407   5.030   9.279  0.00  0.00    +0.000 HD
BRANCH  22  24
ATOM     24  C   UNL     1      44.875   4.341   8.141  0.00  0.00    +0.000 C 
BRANCH  24  25
ATOM     25  C   UNL     1      45.843   3.227   7.765  0.00  0.00    +0.000 A 
ATOM     26  N   UNL     1      46.921   3.583   7.001  0.00  0.00    +0.000 NA
ATOM     27  C   UNL     1      47.796   2.614   6.651  0.00  0.00    +0.000 A 
ATOM     28  C   UNL     1      47.678   1.292   7.051  0.00  0.00    +0.000 A 
ATOM     29  C   UNL     1      46.603   0.948   7.864  0.00  0.00    +0.000 A 
ATOM     30  C   UNL     1      45.676   1.920   8.238  0.00  0.00    +0.000 A 
ATOM     31 CL   UNL     1      44.382   1.452   9.276  0.00  0.00    +0.000 Cl
ENDBRANCH  24  25
ENDBRANCH  22  24
ENDBRANCH  21  22
ENDBRANCH   4  21
TORSDOF 9
ENDMDL
MODEL 2
REMARK VINA RESULT:    -7.333      1.429      2.781
REMARK INTER + INTRA:         -11.875
REMARK INTER:                 -10.933
REMARK INTRA:                  -0.941
REMARK UNBOUND:                -0.898
REMARK  Name = 
REMARK  9 active torsions:
REMARK  status: ('A' for Active; 'I' for Inactive)
REMARK    1  A    between atoms: C_2  and  CA_13
REMARK    2  A    between atoms: N_3  and  CA_4
REMARK    3  A    between atoms: CA_4  and  C_5
REMARK    4  A    between atoms: CA_4  and  C_7
REMARK    5  A    between atoms: C_5  and  O_6
REMARK    6  A    between atoms: C_16  and  C_17
REMARK    7  A    between atoms: C_17  and  N_18
REMARK    8  A    between atoms: N_18  and  C_19
REMARK    9  A    between atoms: C_19  and  C_20
REMARK                            x       y       z     vdW  Elec       q    Type
REMARK                         _______ _______ _______ _____ _____    ______ ____
ROOT
ATOM      1  CA  UNL     1      46.811   4.559  14.086  0.00  0.00    +0.000 A 
ATOM      2  C   UNL     1      47.340   5.698  13.495  0.00  0.00    +0.000 A 
ATOM      3  C   UNL     1      46.728   6.189  12.348  0.00  0.00    +0.000 A 
ATOM      4  C   UNL     1      45.611   5.537  11.816  0.00  0.00    +0.000 A 
ATOM      5  C   UNL     1      45.156   4.401  12.489  0.00  0.00    +0.000 A 
ATOM      6  N   UNL     1      45.725   3.888  13.609  0.00  0.00    +0.000 NA
ENDROOT
BRANCH   1   8
ATOM      7  O   UNL     1      47.796   2.847  15.420  0.00  0.00    +0.000 OA
ATOM      8  C   UNL     1      47.458   4.024  15.328  0.00  0.00    +0.000 C 
ATOM      9  N   UNL     1      47.673   4.933  16.341  0.00  0.00    +0.000 N 
ATOM     10  H   UNL     1      47.472   5.904  16.118  0.00  0.00    +0.000 HD
BRANCH   9  11
ATOM     11  CA  UNL     1      48.274   4.552  17.624  0.00  0.00    +0.000 C 
BRANCH  11  12
ATOM     12  C   UNL     1      47.786   5.452  18.788  0.00  0.00    +0.000 C 
ATOM     13  C   UNL     1      48.041   6.941  18.488  0.00  0.00    +0.000 C 
ATOM     14  C   UNL     1      47.642   7.818  19.666  0.00  0.00    +0.000 C 
ATOM     15  O   UNL     1      48.319   7.402  20.851  0.00  0.00    +0.000 OA
ATOM     16  C   UNL     1      47.961   6.076  21.230  0.00  0.00    +0.000 C 
ATOM     17  C   UNL     1      48.376   5.076  20.157  0.00  0.00    +0.000 C 
ENDBRANCH  11  12
BRANCH  11  18
ATOM     18  C   UNL     1      49.817   4.500  17.532  0.00  0.00    +0.000 C 
BRANCH  18  19
ATOM     19  O   UNL     1      50.305   3.250  17.045  0.00  0.00    +0.000 OA
ATOM     20  H   UNL     1      50.744   3.412  16.186  0.00  0.00    +0.000 HD
ENDBRANCH  18  19
ENDBRANCH  11  18
ENDBRANCH   9  11
ENDBRANCH   1   8
BRANCH   4  21
ATOM     21  C   UNL     1      44.918   6.064  10.585  0.00  0.00    +0.000 C 
BRANCH  21  22
ATOM     22  N   UNL     1      45.575   5.603   9.369  0.00  0.00    +0.000 NA
ATOM     23  H   UNL     1      46.510   5.241   9.568  0.00  0.00    +0.000 HD
BRANCH  22  24
ATOM     24  C   UNL     1      44.818   4.534   8.699  0.00  0.00    +0.000 C 
BRANCH  24  25
ATOM     25  C   UNL     1      45.720   3.439   8.146  0.00  0.00    +0.000 A 
ATOM     26  N   UNL     1      46.760   3.842   7.354  0.00  0.00    +0.000 NA
ATOM     27  C   UNL     1      47.576   2.891   6.848  0.00  0.00    +0.000 A 
ATOM     28  C   UNL     1      47.436   1.539   7.114  0.00  0.00    +0.000 A 
ATOM     29  C   UNL     1      46.403   1.141   7.956  0.00  0.00    +0.000 A 
ATOM     30  C   UNL     1      45.536   2.094   8.489  0.00  0.00    +0.000 A 
ATOM     31 CL   UNL     1      44.293   1.556   9.556  0.00  0.00    +0.000 Cl
ENDBRANCH  24  25
ENDBRANCH  22  24
ENDBRANCH  21  22
ENDBRANCH   4  21
TORSDOF 9
ENDMDL
MODEL 3
REMARK VINA RESULT:    -7.190      1.930      2.531
REMARK INTER + INTRA:         -11.661
REMARK INTER:                 -10.664
REMARK INTRA:                  -0.997
REMARK UNBOUND:                -0.898
REMARK  Name = 
REMARK  9 active torsions:
REMARK  status: ('A' for Active; 'I' for Inactive)
REMARK    1  A    between atoms: C_2  and  CA_13
REMARK    2  A    between atoms: N_3  and  CA_4
REMARK    3  A    between atoms: CA_4  and  C_5
REMARK    4  A    between atoms: CA_4  and  C_7
REMARK    5  A    between atoms: C_5  and  O_6
REMARK    6  A    between atoms: C_16  and  C_17
REMARK    7  A    between atoms: C_17  and  N_18
REMARK    8  A    between atoms: N_18  and  C_19
REMARK    9  A    between atoms: C_19  and  C_20
REMARK                            x       y       z     vdW  Elec       q    Type
REMARK                         _______ _______ _______ _____ _____    ______ ____
ROOT
ATOM      1  CA  UNL     1      47.483   5.921  13.629  0.00  0.00    +0.000 A 
ATOM      2  C   UNL     1      46.809   6.636  12.648  0.00  0.00    +0.000 A 
ATOM      3  C   UNL     1      45.830   5.981  11.911  0.00  0.00    +0.000 A 
ATOM      4  C   UNL     1      45.548   4.634  12.162  0.00  0.00    +0.000 A 
ATOM      5  C   UNL     1      46.280   4.008  13.172  0.00  0.00    +0.000 A 
ATOM      6  N   UNL     1      47.245   4.610  13.914  0.00  0.00    +0.000 NA
ENDROOT
BRANCH   1   8
ATOM      7  O   UNL     1      49.620   6.925  13.948  0.00  0.00    +0.000 OA
ATOM      8  C   UNL     1      48.535   6.619  14.436  0.00  0.00    +0.000 C 
ATOM      9  N   UNL     1      48.203   6.918  15.739  0.00  0.00    +0.000 N 
ATOM     10  H   UNL     1      47.240   6.735  16.007  0.00  0.00    +0.000 HD
BRANCH   9  11
ATOM     11  CA  UNL     1      49.139   7.578  16.657  0.00  0.00    +0.000 C 
BRANCH  11  12
ATOM     12  C   UNL     1      49.247   6.837  18.014  0.00  0.00    +0.000 C 
ATOM     13  C   UNL     1      49.946   5.474  17.852  0.00  0.00    +0.000 C 
ATOM     14  C   UNL     1      49.974   4.708  19.167  0.00  0.00    +0.000 C 
ATOM     15  O   UNL     1      48.654   4.558  19.687  0.00  0.00    +0.000 OA
ATOM     16  C   UNL     1      48.059   5.815  19.996  0.00  0.00    +0.000 C 
ATOM     17  C   UNL     1      47.903   6.663  18.739  0.00  0.00    +0.000 C 
ENDBRANCH  11  12
BRANCH  11  18
ATOM     18  C   UNL     1      48.795   9.075  16.835  0.00  0.00    +0.000 C 
BRANCH  18  19
ATOM     19  O   UNL     1      47.457   9.389  16.449  0.00  0.00    +0.000 OA
ATOM     20  H   UNL     1      46.859   9.100  17.168  0.00  0.00    +0.000 HD
ENDBRANCH  18  19
ENDBRANCH  11  18
ENDBRANCH   9  11
ENDBRANCH   1   8
BRANCH   4  21
ATOM     21  C   UNL     1      44.476   3.909  11.389  0.00  0.00    +0.000 C 
BRANCH  21  22
ATOM     22  N   UNL     1      44.949   2.616  10.912  0.00  0.00    +0.000 NA
ATOM     23  H   UNL     1      44.622   1.857  11.514  0.00  0.00    +0.000 HD
BRANCH  22  24
ATOM     24  C   UNL     1      44.489   2.326   9.544  0.00  0.00    +0.000 C 
BRANCH  24  25
ATOM     25  C   UNL     1      45.644   2.119   8.572  0.00  0.00    +0.000 A 
ATOM     26  N   UNL     1      45.969   0.825   8.273  0.00  0.00    +0.000 NA
ATOM     27  C   UNL     1      46.991   0.611   7.414  0.00  0.00    +0.000 A 
ATOM     28  C   UNL     1      47.702   1.629   6.799  0.00  0.00    +0.000 A 
ATOM     29  C   UNL     1      47.336   2.942   7.075  0.00  0.00    +0.000 A 
ATOM     30  C   UNL     1      46.292   3.200   7.963  0.00  0.00    +0.000 A 
ATOM     31 CL   UNL     1      45.852   4.843   8.245  0.00  0.00    +0.000 Cl
ENDBRANCH  24  25
ENDBRANCH  22  24
ENDBRANCH  21  22
ENDBRANCH   4  21
TORSDOF 9
ENDMDL
MODEL 4
REMARK VINA RESULT:    -6.991      1.551      1.774
REMARK INTER + INTRA:         -11.362
REMARK INTER:                 -10.410
REMARK INTRA:                  -0.953
REMARK UNBOUND:                -0.898
REMARK  Name = 
REMARK  9 active torsions:
REMARK  status: ('A' for Active; 'I' for Inactive)
REMARK    1  A    between atoms: C_2  and  CA_13
REMARK    2  A    between atoms: N_3  and  CA_4
REMARK    3  A    between atoms: CA_4  and  C_5
REMARK    4  A    between atoms: CA_4  and  C_7
REMARK    5  A    between atoms: C_5  and  O_6
REMARK    6  A    between atoms: C_16  and  C_17
REMARK    7  A    between atoms: C_17  and  N_18
REMARK    8  A    between atoms: N_18  and  C_19
REMARK    9  A    between atoms: C_19  and  C_20
REMARK                            x       y       z     vdW  Elec       q    Type
REMARK                         _______ _______ _______ _____ _____    ______ ____
ROOT
ATOM      1  CA  UNL     1      47.484   5.801  13.967  0.00  0.00    +0.000 A 
ATOM      2  C   UNL     1      46.791   6.634  13.098  0.00  0.00    +0.000 A 
ATOM      3  C   UNL     1      45.821   6.071  12.279  0.00  0.00    +0.000 A 
ATOM      4  C   UNL     1      45.564   4.697  12.340  0.00  0.00    +0.000 A 
ATOM      5  C   UNL     1      46.313   3.949  13.250  0.00  0.00    +0.000 A 
ATOM      6  N   UNL     1      47.271   4.459  14.066  0.00  0.00    +0.000 NA
ENDROOT
BRANCH   1   8
ATOM      7  O   UNL     1      49.553   6.898  14.406  0.00  0.00    +0.000 OA
ATOM      8  C   UNL     1      48.528   6.398  14.861  0.00  0.00    +0.000 C 
ATOM      9  N   UNL     1      48.257   6.377  16.212  0.00  0.00    +0.000 N 
ATOM     10  H   UNL     1      47.329   6.055  16.475  0.00  0.00    +0.000 HD
BRANCH   9  11
ATOM     11  CA  UNL     1      49.195   6.903  17.210  0.00  0.00    +0.000 C 
BRANCH  11  12
ATOM     12  C   UNL     1      50.123   5.799  17.778  0.00  0.00    +0.000 C 
ATOM     13  C   UNL     1      51.531   5.879  17.159  0.00  0.00    +0.000 C 
ATOM     14  C   UNL     1      52.416   4.742  17.650  0.00  0.00    +0.000 C 
ATOM     15  O   UNL     1      51.803   3.481  17.388  0.00  0.00    +0.000 OA
ATOM     16  C   UNL     1      50.572   3.332  18.091  0.00  0.00    +0.000 C 
ATOM     17  C   UNL     1      49.559   4.376  17.636  0.00  0.00    +0.000 C 
ENDBRANCH  11  12
BRANCH  11  18
ATOM     18  C   UNL     1      48.457   7.677  18.326  0.00  0.00    +0.000 C 
BRANCH  18  19
ATOM     19  O   UNL     1      47.124   7.214  18.538  0.00  0.00    +0.000 OA
ATOM     20  H   UNL     1      46.803   6.821  17.701  0.00  0.00    +0.000 HD
ENDBRANCH  18  19
ENDBRANCH  11  18
ENDBRANCH   9  11
ENDBRANCH   1   8
BRANCH   4  21
ATOM     21  C   UNL     1      44.501   4.068  11.476  0.00  0.00    +0.000 C 
BRANCH  21  22
ATOM     22  N   UNL     1      44.906   2.747  11.014  0.00  0.00    +0.000 NA
ATOM     23  H   UNL     1      44.537   2.014  11.623  0.00  0.00    +0.000 HD
BRANCH  22  24
ATOM     24  C   UNL     1      44.436   2.468   9.648  0.00  0.00    +0.000 C 
BRANCH  24  25
ATOM     25  C   UNL     1      45.582   2.215   8.677  0.00  0.00    +0.000 A 
ATOM     26  N   UNL     1      45.861   0.909   8.384  0.00  0.00    +0.000 NA
ATOM     27  C   UNL     1      46.874   0.655   7.526  0.00  0.00    +0.000 A 
ATOM     28  C   UNL     1      47.620   1.644   6.905  0.00  0.00    +0.000 A 
ATOM     29  C   UNL     1      47.300   2.970   7.174  0.00  0.00    +0.000 A 
ATOM     30  C   UNL     1      46.267   3.270   8.061  0.00  0.00    +0.000 A 
ATOM     31 CL   UNL     1      45.885   4.928   8.335  0.00  0.00    +0.000 Cl
ENDBRANCH  24  25
ENDBRANCH  22  24
ENDBRANCH  21  22
ENDBRANCH   4  21
TORSDOF 9
ENDMDL
MODEL 5
REMARK VINA RESULT:    -6.828      1.496      2.219
REMARK INTER + INTRA:         -11.119
REMARK INTER:                 -11.245
REMARK INTRA:                   0.127
REMARK UNBOUND:                -0.898
REMARK  Name = 
REMARK  9 active torsions:
REMARK  status: ('A' for Active; 'I' for Inactive)
REMARK    1  A    between atoms: C_2  and  CA_13
REMARK    2  A    between atoms: N_3  and  CA_4
REMARK    3  A    between atoms: CA_4  and  C_5
REMARK    4  A    between atoms: CA_4  and  C_7
REMARK    5  A    between atoms: C_5  and  O_6
REMARK    6  A    between atoms: C_16  and  C_17
REMARK    7  A    between atoms: C_17  and  N_18
REMARK    8  A    between atoms: N_18  and  C_19
REMARK    9  A    between atoms: C_19  and  C_20
REMARK                            x       y       z     vdW  Elec       q    Type
REMARK                         _______ _______ _______ _____ _____    ______ ____
ROOT
ATOM      1  CA  UNL     1      46.683   4.476  13.986  0.00  0.00    +0.000 A 
ATOM      2  C   UNL     1      46.926   5.748  13.484  0.00  0.00    +0.000 A 
ATOM      3  C   UNL     1      46.335   6.104  12.278  0.00  0.00    +0.000 A 
ATOM      4  C   UNL     1      45.522   5.190  11.599  0.00  0.00    +0.000 A 
ATOM      5  C   UNL     1      45.339   3.939  12.191  0.00  0.00    +0.000 A 
ATOM      6  N   UNL     1      45.899   3.550  13.365  0.00  0.00    +0.000 NA
ENDROOT
BRANCH   1   8
ATOM      7  O   UNL     1      47.983   3.062  15.397  0.00  0.00    +0.000 OA
ATOM      8  C   UNL     1      47.309   4.083  15.290  0.00  0.00    +0.000 C 
ATOM      9  N   UNL     1      47.106   4.944  16.346  0.00  0.00    +0.000 N 
ATOM     10  H   UNL     1      46.641   5.820  16.123  0.00  0.00    +0.000 HD
BRANCH   9  11
ATOM     11  CA  UNL     1      47.636   4.681  17.688  0.00  0.00    +0.000 C 
BRANCH  11  12
ATOM     12  C   UNL     1      48.943   5.466  17.964  0.00  0.00    +0.000 C 
ATOM     13  C   UNL     1      48.645   6.904  18.428  0.00  0.00    +0.000 C 
ATOM     14  C   UNL     1      49.928   7.702  18.615  0.00  0.00    +0.000 C 
ATOM     15  O   UNL     1      50.703   7.691  17.417  0.00  0.00    +0.000 OA
ATOM     16  C   UNL     1      51.124   6.375  17.069  0.00  0.00    +0.000 C 
ATOM     17  C   UNL     1      49.924   5.481  16.780  0.00  0.00    +0.000 C 
ENDBRANCH  11  12
BRANCH  11  18
ATOM     18  C   UNL     1      47.799   3.165  17.944  0.00  0.00    +0.000 C 
BRANCH  18  19
ATOM     19  O   UNL     1      46.564   2.452  17.879  0.00  0.00    +0.000 OA
ATOM     20  H   UNL     1      46.736   1.525  18.142  0.00  0.00    +0.000 HD
ENDBRANCH  18  19
ENDBRANCH  11  18
ENDBRANCH   9  11
ENDBRANCH   1   8
BRANCH   4  21
ATOM     21  C   UNL     1      44.854   5.562  10.301  0.00  0.00    +0.000 C 
BRANCH  21  22
ATOM     22  N   UNL     1      45.724   5.299   9.162  0.00  0.00    +0.000 NA
ATOM     23  H   UNL     1      46.590   4.841   9.456  0.00  0.00    +0.000 HD
BRANCH  22  24
ATOM     24  C   UNL     1      45.082   4.432   8.161  0.00  0.00    +0.000 C 
BRANCH  24  25
ATOM     25  C   UNL     1      45.945   3.233   7.788  0.00  0.00    +0.000 A 
ATOM     26  N   UNL     1      47.017   3.479   6.975  0.00  0.00    +0.000 NA
ATOM     27  C   UNL     1      47.800   2.433   6.626  0.00  0.00    +0.000 A 
ATOM     28  C   UNL     1      47.594   1.138   7.073  0.00  0.00    +0.000 A 
ATOM     29  C   UNL     1      46.527   0.905   7.935  0.00  0.00    +0.000 A 
ATOM     30  C   UNL     1      45.694   1.959   8.309  0.00  0.00    +0.000 A 
ATOM     31 CL   UNL     1      44.407   1.627   9.407  0.00  0.00    +0.000 Cl
ENDBRANCH  24  25
ENDBRANCH  22  24
ENDBRANCH  21  22
ENDBRANCH   4  21
TORSDOF 9
ENDMDL
MODEL 6
REMARK VINA RESULT:    -6.577      3.827      9.510
REMARK INTER + INTRA:         -10.743
REMARK INTER:                  -9.742
REMARK INTRA:                  -1.001
REMARK UNBOUND:                -0.898
REMARK  Name = 
REMARK  9 active torsions:
REMARK  status: ('A' for Active; 'I' for Inactive)
REMARK    1  A    between atoms: C_2  and  CA_13
REMARK    2  A    between atoms: N_3  and  CA_4
REMARK    3  A    between atoms: CA_4  and  C_5
REMARK    4  A    between atoms: CA_4  and  C_7
REMARK    5  A    between atoms: C_5  and  O_6
REMARK    6  A    between atoms: C_16  and  C_17
REMARK    7  A    between atoms: C_17  and  N_18
REMARK    8  A    between atoms: N_18  and  C_19
REMARK    9  A    between atoms: C_19  and  C_20
REMARK                            x       y       z     vdW  Elec       q    Type
REMARK                         _______ _______ _______ _____ _____    ______ ____
ROOT
ATOM      1  CA  UNL     1      47.422   5.205  14.528  0.00  0.00    +0.000 A 
ATOM      2  C   UNL     1      47.733   6.444  13.982  0.00  0.00    +0.000 A 
ATOM      3  C   UNL     1      48.580   7.283  14.694  0.00  0.00    +0.000 A 
ATOM      4  C   UNL     1      49.094   6.876  15.930  0.00  0.00    +0.000 A 
ATOM      5  C   UNL     1      48.723   5.610  16.387  0.00  0.00    +0.000 A 
ATOM      6  N   UNL     1      47.898   4.760  15.724  0.00  0.00    +0.000 NA
ENDROOT
BRANCH   1   8
ATOM      7  O   UNL     1      46.741   3.082  13.686  0.00  0.00    +0.000 OA
ATOM      8  C   UNL     1      46.516   4.287  13.764  0.00  0.00    +0.000 C 
ATOM      9  N   UNL     1      45.411   4.868  13.183  0.00  0.00    +0.000 N 
ATOM     10  H   UNL     1      45.250   5.846  13.412  0.00  0.00    +0.000 HD
BRANCH   9  11
ATOM     11  CA  UNL     1      44.447   4.101  12.385  0.00  0.00    +0.000 C 
BRANCH  11  12
ATOM     12  C   UNL     1      45.006   3.740  10.985  0.00  0.00    +0.000 C 
ATOM     13  C   UNL     1      45.165   4.993  10.105  0.00  0.00    +0.000 C 
ATOM     14  C   UNL     1      45.630   4.629   8.702  0.00  0.00    +0.000 C 
ATOM     15  O   UNL     1      44.739   3.686   8.109  0.00  0.00    +0.000 OA
ATOM     16  C   UNL     1      44.711   2.456   8.829  0.00  0.00    +0.000 C 
ATOM     17  C   UNL     1      44.188   2.669  10.244  0.00  0.00    +0.000 C 
ENDBRANCH  11  12
BRANCH  11  18
ATOM     18  C   UNL     1      43.082   4.822  12.302  0.00  0.00    +0.000 C 
BRANCH  18  19
ATOM     19  O   UNL     1      42.820   5.653  13.432  0.00  0.00    +0.000 OA
ATOM     20  H   UNL     1      42.203   5.175  14.023  0.00  0.00    +0.000 HD
ENDBRANCH  18  19
ENDBRANCH  11  18
ENDBRANCH   9  11
ENDBRANCH   1   8
BRANCH   4  21
ATOM     21  C   UNL     1      50.031   7.762  16.710  0.00  0.00    +0.000 C 
BRANCH  21  22
ATOM     22  N   UNL     1      50.643   7.040  17.818  0.00  0.00    +0.000 NA
ATOM     23  H   UNL     1      51.657   6.981  17.705  0.00  0.00    +0.000 HD
BRANCH  22  24
ATOM     24  C   UNL     1      50.378   7.685  19.114  0.00  0.00    +0.000 C 
BRANCH  24  25
ATOM     25  C   UNL     1      49.500   6.832  20.021  0.00  0.00    +0.000 A 
ATOM     26  N   UNL     1      50.145   5.992  20.886  0.00  0.00    +0.000 NA
ATOM     27  C   UNL     1      49.390   5.222  21.702  0.00  0.00    +0.000 A 
ATOM     28  C   UNL     1      48.005   5.263  21.730  0.00  0.00    +0.000 A 
ATOM     29  C   UNL     1      47.359   6.152  20.878  0.00  0.00    +0.000 A 
ATOM     30  C   UNL     1      48.105   6.955  20.016  0.00  0.00    +0.000 A 
ATOM     31 CL   UNL     1      47.261   8.067  19.005  0.00  0.00    +0.000 Cl
ENDBRANCH  24  25
ENDBRANCH  22  24
ENDBRANCH  21  22
ENDBRANCH   4  21
TORSDOF 9
ENDMDL
MODEL 7
REMARK VINA RESULT:    -6.493      3.882      8.834
REMARK INTER + INTRA:         -10.617
REMARK INTER:                  -9.553
REMARK INTRA:                  -1.064
REMARK UNBOUND:                -0.898
REMARK  Name = 
REMARK  9 active torsions:
REMARK  status: ('A' for Active; 'I' for Inactive)
REMARK    1  A    between atoms: C_2  and  CA_13
REMARK    2  A    between atoms: N_3  and  CA_4
REMARK    3  A    between atoms: CA_4  and  C_5
REMARK    4  A    between atoms: CA_4  and  C_7
REMARK    5  A    between atoms: C_5  and  O_6
REMARK    6  A    between atoms: C_16  and  C_17
REMARK    7  A    between atoms: C_17  and  N_18
REMARK    8  A    between atoms: N_18  and  C_19
REMARK    9  A    between atoms: C_19  and  C_20
REMARK                            x       y       z     vdW  Elec       q    Type
REMARK                         _______ _______ _______ _____ _____    ______ ____
ROOT
ATOM      1  CA  UNL     1      47.077   5.682  13.379  0.00  0.00    +0.000 A 
ATOM      2  C   UNL     1      47.631   6.581  12.476  0.00  0.00    +0.000 A 
ATOM      3  C   UNL     1      48.700   7.362  12.898  0.00  0.00    +0.000 A 
ATOM      4  C   UNL     1      49.189   7.236  14.202  0.00  0.00    +0.000 A 
ATOM      5  C   UNL     1      48.563   6.301  15.029  0.00  0.00    +0.000 A 
ATOM      6  N   UNL     1      47.517   5.520  14.658  0.00  0.00    +0.000 NA
ENDROOT
BRANCH   1   8
ATOM      7  O   UNL     1      45.820   3.659  13.296  0.00  0.00    +0.000 OA
ATOM      8  C   UNL     1      45.929   4.828  12.933  0.00  0.00    +0.000 C 
ATOM      9  N   UNL     1      44.999   5.436  12.120  0.00  0.00    +0.000 N 
ATOM     10  H   UNL     1      45.115   6.436  11.980  0.00  0.00    +0.000 HD
BRANCH   9  11
ATOM     11  CA  UNL     1      43.835   4.719  11.585  0.00  0.00    +0.000 C 
BRANCH  11  12
ATOM     12  C   UNL     1      44.104   4.139  10.173  0.00  0.00    +0.000 C 
ATOM     13  C   UNL     1      44.305   2.613  10.224  0.00  0.00    +0.000 C 
ATOM     14  C   UNL     1      44.656   2.055   8.852  0.00  0.00    +0.000 C 
ATOM     15  O   UNL     1      45.805   2.714   8.323  0.00  0.00    +0.000 OA
ATOM     16  C   UNL     1      45.572   4.105   8.117  0.00  0.00    +0.000 C 
ATOM     17  C   UNL     1      45.278   4.806   9.438  0.00  0.00    +0.000 C 
ENDBRANCH  11  12
BRANCH  11  18
ATOM     18  C   UNL     1      42.564   5.599  11.623  0.00  0.00    +0.000 C 
BRANCH  18  19
ATOM     19  O   UNL     1      42.780   6.913  11.111  0.00  0.00    +0.000 OA
ATOM     20  H   UNL     1      42.519   7.554  11.803  0.00  0.00    +0.000 HD
ENDBRANCH  18  19
ENDBRANCH  11  18
ENDBRANCH   9  11
ENDBRANCH   1   8
BRANCH   4  21
ATOM     21  C   UNL     1      50.360   8.059  14.674  0.00  0.00    +0.000 C 
BRANCH  21  22
ATOM     22  N   UNL     1      51.541   7.230  14.880  0.00  0.00    +0.000 NA
ATOM     23  H   UNL     1      52.313   7.531  14.282  0.00  0.00    +0.000 HD
BRANCH  22  24
ATOM     24  C   UNL     1      52.016   7.275  16.272  0.00  0.00    +0.000 C 
BRANCH  24  25
ATOM     25  C   UNL     1      51.198   6.383  17.197  0.00  0.00    +0.000 A 
ATOM     26  N   UNL     1      51.308   5.034  17.003  0.00  0.00    +0.000 NA
ATOM     27  C   UNL     1      50.593   4.218  17.809  0.00  0.00    +0.000 A 
ATOM     28  C   UNL     1      49.781   4.672  18.836  0.00  0.00    +0.000 A 
ATOM     29  C   UNL     1      49.708   6.044  19.054  0.00  0.00    +0.000 A 
ATOM     30  C   UNL     1      50.427   6.916  18.237  0.00  0.00    +0.000 A 
ATOM     31 CL   UNL     1      50.333   8.605  18.570  0.00  0.00    +0.000 Cl
ENDBRANCH  24  25
ENDBRANCH  22  24
ENDBRANCH  21  22
ENDBRANCH   4  21
TORSDOF 9
ENDMDL
MODEL 8
REMARK VINA RESULT:    -6.421      1.626      2.310
REMARK INTER + INTRA:         -10.510
REMARK INTER:                  -9.871
REMARK INTRA:                  -0.639
REMARK UNBOUND:                -0.898
REMARK  Name = 
REMARK  9 active torsions:
REMARK  status: ('A' for Active; 'I' for Inactive)
REMARK    1  A    between atoms: C_2  and  CA_13
REMARK    2  A    between atoms: N_3  and  CA_4
REMARK    3  A    between atoms: CA_4  and  C_5
REMARK    4  A    between atoms: CA_4  and  C_7
REMARK    5  A    between atoms: C_5  and  O_6
REMARK    6  A    between atoms: C_16  and  C_17
REMARK    7  A    between atoms: C_17  and  N_18
REMARK    8  A    between atoms: N_18  and  C_19
REMARK    9  A    between atoms: C_19  and  C_20
REMARK                            x       y       z     vdW  Elec       q    Type
REMARK                         _______ _______ _______ _____ _____    ______ ____
ROOT
ATOM      1  CA  UNL     1      48.011   5.764  14.777  0.00  0.00    +0.000 A 
ATOM      2  C   UNL     1      48.102   6.956  14.069  0.00  0.00    +0.000 A 
ATOM      3  C   UNL     1      47.345   7.095  12.913  0.00  0.00    +0.000 A 
ATOM      4  C   UNL     1      46.520   6.049  12.486  0.00  0.00    +0.000 A 
ATOM      5  C   UNL     1      46.497   4.895  13.271  0.00  0.00    +0.000 A 
ATOM      6  N   UNL     1      47.222   4.718  14.405  0.00  0.00    +0.000 NA
ENDROOT
BRANCH   1   8
ATOM      7  O   UNL     1      49.578   6.488  16.419  0.00  0.00    +0.000 OA
ATOM      8  C   UNL     1      48.817   5.606  16.030  0.00  0.00    +0.000 C 
ATOM      9  N   UNL     1      48.634   4.432  16.727  0.00  0.00    +0.000 N 
ATOM     10  H   UNL     1      47.892   3.824  16.389  0.00  0.00    +0.000 HD
BRANCH   9  11
ATOM     11  CA  UNL     1      49.371   4.125  17.958  0.00  0.00    +0.000 C 
BRANCH  11  12
ATOM     12  C   UNL     1      50.740   3.459  17.667  0.00  0.00    +0.000 C 
ATOM     13  C   UNL     1      50.607   1.928  17.562  0.00  0.00    +0.000 C 
ATOM     14  C   UNL     1      51.964   1.267  17.365  0.00  0.00    +0.000 C 
ATOM     15  O   UNL     1      52.860   1.641  18.409  0.00  0.00    +0.000 OA
ATOM     16  C   UNL     1      53.119   3.042  18.411  0.00  0.00    +0.000 C 
ATOM     17  C   UNL     1      51.841   3.829  18.675  0.00  0.00    +0.000 C 
ENDBRANCH  11  12
BRANCH  11  18
ATOM     18  C   UNL     1      48.513   3.294  18.939  0.00  0.00    +0.000 C 
BRANCH  18  19
ATOM     19  O   UNL     1      48.524   3.815  20.268  0.00  0.00    +0.000 OA
ATOM     20  H   UNL     1      48.309   3.083  20.881  0.00  0.00    +0.000 HD
ENDBRANCH  18  19
ENDBRANCH  11  18
ENDBRANCH   9  11
ENDBRANCH   1   8
BRANCH   4  21
ATOM     21  C   UNL     1      45.673   6.186  11.246  0.00  0.00    +0.000 C 
BRANCH  21  22
ATOM     22  N   UNL     1      44.279   5.862  11.518  0.00  0.00    +0.000 NA
ATOM     23  H   UNL     1      43.771   6.676  11.869  0.00  0.00    +0.000 HD
BRANCH  22  24
ATOM     24  C   UNL     1      43.575   5.384  10.317  0.00  0.00    +0.000 C 
BRANCH  24  25
ATOM     25  C   UNL     1      44.323   4.261   9.611  0.00  0.00    +0.000 A 
ATOM     26  N   UNL     1      45.097   4.617   8.540  0.00  0.00    +0.000 NA
ATOM     27  C   UNL     1      45.771   3.640   7.894  0.00  0.00    +0.000 A 
ATOM     28  C   UNL     1      45.745   2.308   8.275  0.00  0.00    +0.000 A 
ATOM     29  C   UNL     1      44.991   1.962   9.391  0.00  0.00    +0.000 A 
ATOM     30  C   UNL     1      44.276   2.942  10.078  0.00  0.00    +0.000 A 
ATOM     31 CL   UNL     1      43.385   2.469  11.476  0.00  0.00    +0.000 Cl
ENDBRANCH  24  25
ENDBRANCH  22  24
ENDBRANCH  21  22
ENDBRANCH   4  21
TORSDOF 9
ENDMDL
MODEL 9
REMARK VINA RESULT:    -6.129      4.138      8.999
REMARK INTER + INTRA:         -10.073
REMARK INTER:                  -8.848
REMARK INTRA:                  -1.225
REMARK UNBOUND:                -0.898
REMARK  Name = 
REMARK  9 active torsions:
REMARK  status: ('A' for Active; 'I' for Inactive)
REMARK    1  A    between atoms: C_2  and  CA_13
REMARK    2  A    between atoms: N_3  and  CA_4
REMARK    3  A    between atoms: CA_4  and  C_5
REMARK    4  A    between atoms: CA_4  and  C_7
REMARK    5  A    between atoms: C_5  and  O_6
REMARK    6  A    between atoms: C_16  and  C_17
REMARK    7  A    between atoms: C_17  and  N_18
REMARK    8  A    between atoms: N_18  and  C_19
REMARK    9  A    between atoms: C_19  and  C_20
REMARK                            x       y       z     vdW  Elec       q    Type
REMARK                         _______ _______ _______ _____ _____    ______ ____
ROOT
ATOM      1  CA  UNL     1      47.346   5.948  13.360  0.00  0.00    +0.000 A 
ATOM      2  C   UNL     1      47.703   6.829  12.347  0.00  0.00    +0.000 A 
ATOM      3  C   UNL     1      48.798   7.659  12.553  0.00  0.00    +0.000 A 
ATOM      4  C   UNL     1      49.508   7.598  13.757  0.00  0.00    +0.000 A 
ATOM      5  C   UNL     1      49.069   6.675  14.708  0.00  0.00    +0.000 A 
ATOM      6  N   UNL     1      48.004   5.848  14.548  0.00  0.00    +0.000 NA
ENDROOT
BRANCH   1   8
ATOM      7  O   UNL     1      45.972   4.068  13.868  0.00  0.00    +0.000 OA
ATOM      8  C   UNL     1      46.171   5.042  13.146  0.00  0.00    +0.000 C 
ATOM      9  N   UNL     1      45.322   5.380  12.115  0.00  0.00    +0.000 N 
ATOM     10  H   UNL     1      45.506   6.271  11.660  0.00  0.00    +0.000 HD
BRANCH   9  11
ATOM     11  CA  UNL     1      44.144   4.576  11.771  0.00  0.00    +0.000 C 
BRANCH  11  12
ATOM     12  C   UNL     1      44.232   3.998  10.335  0.00  0.00    +0.000 C 
ATOM     13  C   UNL     1      44.451   2.474  10.357  0.00  0.00    +0.000 C 
ATOM     14  C   UNL     1      44.624   1.920   8.950  0.00  0.00    +0.000 C 
ATOM     15  O   UNL     1      45.688   2.590   8.276  0.00  0.00    +0.000 OA
ATOM     16  C   UNL     1      45.417   3.978   8.104  0.00  0.00    +0.000 C 
ATOM     17  C   UNL     1      45.293   4.676   9.453  0.00  0.00    +0.000 C 
ENDBRANCH  11  12
BRANCH  11  18
ATOM     18  C   UNL     1      42.834   5.361  12.007  0.00  0.00    +0.000 C 
BRANCH  18  19
ATOM     19  O   UNL     1      42.502   5.489  13.388  0.00  0.00    +0.000 OA
ATOM     20  H   UNL     1      41.526   5.496  13.465  0.00  0.00    +0.000 HD
ENDBRANCH  18  19
ENDBRANCH  11  18
ENDBRANCH   9  11
ENDBRANCH   1   8
BRANCH   4  21
ATOM     21  C   UNL     1      50.712   8.473  13.993  0.00  0.00    +0.000 C 
BRANCH  21  22
ATOM     22  N   UNL     1      50.320   9.807  14.431  0.00  0.00    +0.000 NA
ATOM     23  H   UNL     1      49.303   9.916  14.417  0.00  0.00    +0.000 HD
BRANCH  22  24
ATOM     24  C   UNL     1      50.779  10.100  15.797  0.00  0.00    +0.000 C 
BRANCH  24  25
ATOM     25  C   UNL     1      49.737   9.748  16.852  0.00  0.00    +0.000 A 
ATOM     26  N   UNL     1      48.639  10.560  16.924  0.00  0.00    +0.000 NA
ATOM     27  C   UNL     1      47.699  10.272  17.851  0.00  0.00    +0.000 A 
ATOM     28  C   UNL     1      47.773   9.184  18.707  0.00  0.00    +0.000 A 
ATOM     29  C   UNL     1      48.872   8.339  18.597  0.00  0.00    +0.000 A 
ATOM     30  C   UNL     1      49.865   8.610  17.657  0.00  0.00    +0.000 A 
ATOM     31 CL   UNL     1      51.190   7.513  17.534  0.00  0.00    +0.000 Cl
ENDBRANCH  24  25
ENDBRANCH  22  24
ENDBRANCH  21  22
ENDBRANCH   4  21
TORSDOF 9
ENDMDL
