MODEL 1
REMARK VINA RESULT:    -8.596      0.000      0.000
REMARK INTER + INTRA:         -13.716
REMARK INTER:                 -12.616
REMARK INTRA:                  -1.100
REMARK UNBOUND:                -1.100
REMARK  Name = 
REMARK  10 active torsions:
REMARK  status: ('A' for Active; 'I' for Inactive)
REMARK    1  A    between atoms: C_1  and  C_2
REMARK    2  A    between atoms: C_2  and  O_3
REMARK    3  A    between atoms: O_3  and  C_4
REMARK    4  A    between atoms: C_6  and  C_7
REMARK    5  A    between atoms: C_7  and  C_8
REMARK    6  A    between atoms: C_8  and  N_9
REMARK    7  A    between atoms: C_13  and  C_14
REMARK    8  A    between atoms: C_20  and  C_21
REMARK    9  A    between atoms: C_25  and  O_26
REMARK   10  A    between atoms: O_26  and  C_27
REMARK                            x       y       z     vdW  Elec       q    Type
REMARK                         _______ _______ _______ _____ _____    ______ ____
ROOT
ATOM      1  C   UNL     1      46.853   4.362  13.794  0.00  0.00    +0.000 A 
ATOM      2  C   UNL     1      45.491   4.303  13.526  0.00  0.00    +0.000 A 
ATOM      3  C   UNL     1      44.916   5.308  12.742  0.00  0.00    +0.000 A 
ATOM      4  C   UNL     1      45.760   6.338  12.306  0.00  0.00    +0.000 A 
ATOM      5  C   UNL     1      47.110   6.352  12.654  0.00  0.00    +0.000 A 
ATOM      6  N   UNL     1      47.660   5.365  13.396  0.00  0.00    +0.000 NA
ENDROOT
BRANCH   5   7
ATOM      7  C   UNL     1      48.009   7.454  12.269  0.00  0.00    +0.000 A 
ATOM      8  C   UNL     1      49.373   7.206  12.028  0.00  0.00    +0.000 A 
ATOM      9  C   UNL     1      50.249   8.237  11.691  0.00  0.00    +0.000 A 
ATOM     10  C   UNL     1      49.778   9.543  11.565  0.00  0.00    +0.000 A 
ATOM     11  C   UNL     1      48.428   9.815  11.772  0.00  0.00    +0.000 A 
ATOM     12  C   UNL     1      47.561   8.782  12.139  0.00  0.00    +0.000 A 
BRANCH  11  13
ATOM     13  O   UNL     1      47.853  11.053  11.679  0.00  0.00    +0.000 OA
ATOM     14  C   UNL     1      46.441  11.044  11.498  0.00  0.00    +0.000 C 
ENDBRANCH  11  13
ENDBRANCH   5   7
BRANCH   1  15
ATOM     15  O   UNL     1      47.393   3.326  14.528  0.00  0.00    +0.000 OA
BRANCH  15  17
ATOM     16  C   UNL     1      48.417   2.604  16.557  0.00  0.00    +0.000 C 
ATOM     17  C   UNL     1      47.538   3.662  15.914  0.00  0.00    +0.000 C 
ENDBRANCH  15  17
ENDBRANCH   1  15
BRANCH   3  18
ATOM     18  C   UNL     1      43.436   5.269  12.393  0.00  0.00    +0.000 C 
BRANCH  18  19
ATOM     19  C   UNL     1      43.123   4.568  11.060  0.00  0.00    +0.000 C 
BRANCH  19  20
ATOM     20  N   UNL     1      43.909   5.082   9.935  0.00  0.00    +0.000 N 
ATOM     21  C   UNL     1      44.658   4.050   9.317  0.00  0.00    +0.000 A 
ATOM     22  C   UNL     1      45.462   4.363   8.230  0.00  0.00    +0.000 A 
ATOM     23  C   UNL     1      46.212   3.353   7.616  0.00  0.00    +0.000 A 
ATOM     24  C   UNL     1      46.147   2.045   8.099  0.00  0.00    +0.000 A 
ATOM     25  C   UNL     1      45.307   1.818   9.173  0.00  0.00    +0.000 A 
ATOM     26  N   UNL     1      44.568   2.782   9.778  0.00  0.00    +0.000 NA
ATOM     27  H   UNL     1      44.558   5.811  10.219  0.00  0.00    +0.000 HD
BRANCH  24  28
ATOM     28  C   UNL     1      46.961   0.984   7.456  0.00  0.00    +0.000 C 
ATOM     29  N   UNL     1      47.838   1.326   6.462  0.00  0.00    +0.000 N 
ATOM     30  O   UNL     1      46.851  -0.190   7.797  0.00  0.00    +0.000 OA
ATOM     31  H   UNL     1      48.005   2.253   6.108  0.00  0.00    +0.000 HD
ATOM     32  H   UNL     1      48.367   0.567   6.052  0.00  0.00    +0.000 HD
ENDBRANCH  24  28
ENDBRANCH  19  20
ENDBRANCH  18  19
ENDBRANCH   3  18
TORSDOF 8
ENDMDL
MODEL 2
REMARK VINA RESULT:    -8.432      1.396      2.182
REMARK INTER + INTRA:         -13.476
REMARK INTER:                 -12.222
REMARK INTRA:                  -1.253
REMARK UNBOUND:                -1.100
REMARK  Name = 
REMARK  10 active torsions:
REMARK  status: ('A' for Active; 'I' for Inactive)
REMARK    1  A    between atoms: C_1  and  C_2
REMARK    2  A    between atoms: C_2  and  O_3
REMARK    3  A    between atoms: O_3  and  C_4
REMARK    4  A    between atoms: C_6  and  C_7
REMARK    5  A    between atoms: C_7  and  C_8
REMARK    6  A    between atoms: C_8  and  N_9
REMARK    7  A    between atoms: C_13  and  C_14
REMARK    8  A    between atoms: C_20  and  C_21
REMARK    9  A    between atoms: C_25  and  O_26
REMARK   10  A    between atoms: O_26  and  C_27
REMARK                            x       y       z     vdW  Elec       q    Type
REMARK                         _______ _______ _______ _____ _____    ______ ____
ROOT
ATOM      1  C   UNL     1      46.773   4.705  14.037  0.00  0.00    +0.000 A 
ATOM      2  C   UNL     1      45.435   4.641  13.665  0.00  0.00    +0.000 A 
ATOM      3  C   UNL     1      44.951   5.562  12.732  0.00  0.00    +0.000 A 
ATOM      4  C   UNL     1      45.853   6.524  12.259  0.00  0.00    +0.000 A 
ATOM      5  C   UNL     1      47.171   6.553  12.712  0.00  0.00    +0.000 A 
ATOM      6  N   UNL     1      47.635   5.645  13.600  0.00  0.00    +0.000 NA
ENDROOT
BRANCH   5   7
ATOM      7  C   UNL     1      48.127   7.591  12.286  0.00  0.00    +0.000 A 
ATOM      8  C   UNL     1      47.697   8.917  12.096  0.00  0.00    +0.000 A 
ATOM      9  C   UNL     1      48.575   9.910  11.665  0.00  0.00    +0.000 A 
ATOM     10  C   UNL     1      49.915   9.605  11.433  0.00  0.00    +0.000 A 
ATOM     11  C   UNL     1      50.376   8.306  11.636  0.00  0.00    +0.000 A 
ATOM     12  C   UNL     1      49.484   7.310  12.039  0.00  0.00    +0.000 A 
BRANCH  11  13
ATOM     13  O   UNL     1      51.665   7.891  11.439  0.00  0.00    +0.000 OA
ATOM     14  C   UNL     1      51.909   7.277  10.178  0.00  0.00    +0.000 C 
ENDBRANCH  11  13
ENDBRANCH   5   7
BRANCH   1  15
ATOM     15  O   UNL     1      47.226   3.747  14.920  0.00  0.00    +0.000 OA
BRANCH  15  17
ATOM     16  C   UNL     1      47.418   3.149  17.220  0.00  0.00    +0.000 C 
ATOM     17  C   UNL     1      47.488   4.290  16.221  0.00  0.00    +0.000 C 
ENDBRANCH  15  17
ENDBRANCH   1  15
BRANCH   3  18
ATOM     18  C   UNL     1      43.503   5.511  12.270  0.00  0.00    +0.000 C 
BRANCH  18  19
ATOM     19  C   UNL     1      43.323   5.012  10.826  0.00  0.00    +0.000 C 
BRANCH  19  20
ATOM     20  N   UNL     1      43.585   3.578  10.670  0.00  0.00    +0.000 N 
ATOM     21  C   UNL     1      44.549   3.339   9.659  0.00  0.00    +0.000 A 
ATOM     22  C   UNL     1      44.916   2.030   9.378  0.00  0.00    +0.000 A 
ATOM     23  C   UNL     1      45.862   1.781   8.377  0.00  0.00    +0.000 A 
ATOM     24  C   UNL     1      46.428   2.844   7.672  0.00  0.00    +0.000 A 
ATOM     25  C   UNL     1      46.019   4.116   8.029  0.00  0.00    +0.000 A 
ATOM     26  N   UNL     1      45.108   4.378   9.000  0.00  0.00    +0.000 NA
ATOM     27  H   UNL     1      42.745   3.058  10.429  0.00  0.00    +0.000 HD
BRANCH  24  28
ATOM     28  C   UNL     1      47.414   2.572   6.599  0.00  0.00    +0.000 C 
ATOM     29  N   UNL     1      47.296   3.226   5.402  0.00  0.00    +0.000 N 
ATOM     30  O   UNL     1      48.323   1.764   6.767  0.00  0.00    +0.000 OA
ATOM     31  H   UNL     1      46.592   3.903   5.160  0.00  0.00    +0.000 HD
ATOM     32  H   UNL     1      47.990   3.003   4.699  0.00  0.00    +0.000 HD
ENDBRANCH  24  28
ENDBRANCH  19  20
ENDBRANCH  18  19
ENDBRANCH   3  18
TORSDOF 8
ENDMDL
MODEL 3
REMARK VINA RESULT:    -7.788      1.948      4.512
REMARK INTER + INTRA:         -12.530
REMARK INTER:                 -11.328
REMARK INTRA:                  -1.201
REMARK UNBOUND:                -1.100
REMARK  Name = 
REMARK  10 active torsions:
REMARK  status: ('A' for Active; 'I' for Inactive)
REMARK    1  A    between atoms: C_1  and  C_2
REMARK    2  A    between atoms: C_2  and  O_3
REMARK    3  A    between atoms: O_3  and  C_4
REMARK    4  A    between atoms: C_6  and  C_7
REMARK    5  A    between atoms: C_7  and  C_8
REMARK    6  A    between atoms: C_8  and  N_9
REMARK    7  A    between atoms: C_13  and  C_14
REMARK    8  A    between atoms: C_20  and  C_21
REMARK    9  A    between atoms: C_25  and  O_26
REMARK   10  A    between atoms: O_26  and  C_27
REMARK                            x       y       z     vdW  Elec       q    Type
REMARK                         _______ _______ _______ _____ _____    ______ ____
ROOT
ATOM      1  C   UNL     1      47.458   6.582  12.096  0.00  0.00    +0.000 A 
ATOM      2  C   UNL     1      46.155   6.390  11.655  0.00  0.00    +0.000 A 
ATOM      3  C   UNL     1      45.262   5.695  12.476  0.00  0.00    +0.000 A 
ATOM      4  C   UNL     1      45.762   5.202  13.688  0.00  0.00    +0.000 A 
ATOM      5  C   UNL     1      47.095   5.397  14.043  0.00  0.00    +0.000 A 
ATOM      6  N   UNL     1      47.946   6.087  13.251  0.00  0.00    +0.000 NA
ENDROOT
BRANCH   5   7
ATOM      7  C   UNL     1      47.670   4.834  15.279  0.00  0.00    +0.000 A 
ATOM      8  C   UNL     1      47.449   3.486  15.615  0.00  0.00    +0.000 A 
ATOM      9  C   UNL     1      47.958   2.939  16.791  0.00  0.00    +0.000 A 
ATOM     10  C   UNL     1      48.721   3.723  17.655  0.00  0.00    +0.000 A 
ATOM     11  C   UNL     1      48.978   5.054  17.337  0.00  0.00    +0.000 A 
ATOM     12  C   UNL     1      48.440   5.604  16.171  0.00  0.00    +0.000 A 
BRANCH  11  13
ATOM     13  O   UNL     1      49.710   5.918  18.105  0.00  0.00    +0.000 OA
ATOM     14  C   UNL     1      49.685   7.273  17.670  0.00  0.00    +0.000 C 
ENDBRANCH  11  13
ENDBRANCH   5   7
BRANCH   1  15
ATOM     15  O   UNL     1      48.295   7.316  11.281  0.00  0.00    +0.000 OA
BRANCH  15  17
ATOM     16  C   UNL     1      50.605   7.902  11.236  0.00  0.00    +0.000 C 
ATOM     17  C   UNL     1      49.313   7.999  12.025  0.00  0.00    +0.000 C 
ENDBRANCH  15  17
ENDBRANCH   1  15
BRANCH   3  18
ATOM     18  C   UNL     1      43.816   5.488  12.050  0.00  0.00    +0.000 C 
BRANCH  18  19
ATOM     19  C   UNL     1      43.654   4.964  10.613  0.00  0.00    +0.000 C 
BRANCH  19  20
ATOM     20  N   UNL     1      43.958   3.537  10.477  0.00  0.00    +0.000 N 
ATOM     21  C   UNL     1      44.837   3.300   9.390  0.00  0.00    +0.000 A 
ATOM     22  C   UNL     1      45.229   1.997   9.117  0.00  0.00    +0.000 A 
ATOM     23  C   UNL     1      46.091   1.750   8.042  0.00  0.00    +0.000 A 
ATOM     24  C   UNL     1      46.546   2.809   7.256  0.00  0.00    +0.000 A 
ATOM     25  C   UNL     1      46.121   4.076   7.610  0.00  0.00    +0.000 A 
ATOM     26  N   UNL     1      45.291   4.336   8.652  0.00  0.00    +0.000 NA
ATOM     27  H   UNL     1      43.122   2.978  10.331  0.00  0.00    +0.000 HD
BRANCH  24  28
ATOM     28  C   UNL     1      47.442   2.537   6.106  0.00  0.00    +0.000 C 
ATOM     29  N   UNL     1      48.798   2.544   6.299  0.00  0.00    +0.000 N 
ATOM     30  O   UNL     1      46.985   2.316   4.988  0.00  0.00    +0.000 OA
ATOM     31  H   UNL     1      49.274   2.713   7.168  0.00  0.00    +0.000 HD
ATOM     32  H   UNL     1      49.367   2.358   5.483  0.00  0.00    +0.000 HD
ENDBRANCH  24  28
ENDBRANCH  19  20
ENDBRANCH  18  19
ENDBRANCH   3  18
TORSDOF 8
ENDMDL
MODEL 4
REMARK VINA RESULT:    -7.525      2.047      2.738
REMARK INTER + INTRA:         -12.145
REMARK INTER:                 -11.077
REMARK INTRA:                  -1.068
REMARK UNBOUND:                -1.100
REMARK  Name = 
REMARK  10 active torsions:
REMARK  status: ('A' for Active; 'I' for Inactive)
REMARK    1  A    between atoms: C_1  and  C_2
REMARK    2  A    between atoms: C_2  and  O_3
REMARK    3  A    between atoms: O_3  and  C_4
REMARK    4  A    between atoms: C_6  and  C_7
REMARK    5  A    between atoms: C_7  and  C_8
REMARK    6  A    between atoms: C_8  and  N_9
REMARK    7  A    between atoms: C_13  and  C_14
REMARK    8  A    between atoms: C_20  and  C_21
REMARK    9  A    between atoms: C_25  and  O_26
REMARK   10  A    between atoms: O_26  and  C_27
REMARK                            x       y       z     vdW  Elec       q    Type
REMARK                         _______ _______ _______ _____ _____    ______ ____
ROOT
ATOM      1  C   UNL     1      46.977   5.923  13.637  0.00  0.00    +0.000 A 
ATOM      2  C   UNL     1      45.944   5.001  13.532  0.00  0.00    +0.000 A 
ATOM      3  C   UNL     1      44.779   5.370  12.854  0.00  0.00    +0.000 A 
ATOM      4  C   UNL     1      44.720   6.676  12.353  0.00  0.00    +0.000 A 
ATOM      5  C   UNL     1      45.781   7.561  12.536  0.00  0.00    +0.000 A 
ATOM      6  N   UNL     1      46.912   7.188  13.176  0.00  0.00    +0.000 NA
ENDROOT
BRANCH   5   7
ATOM      7  C   UNL     1      45.724   8.962  12.080  0.00  0.00    +0.000 A 
ATOM      8  C   UNL     1      46.850   9.797  12.209  0.00  0.00    +0.000 A 
ATOM      9  C   UNL     1      46.812  11.132  11.812  0.00  0.00    +0.000 A 
ATOM     10  C   UNL     1      45.650  11.664  11.255  0.00  0.00    +0.000 A 
ATOM     11  C   UNL     1      44.527  10.855  11.091  0.00  0.00    +0.000 A 
ATOM     12  C   UNL     1      44.563   9.526  11.519  0.00  0.00    +0.000 A 
BRANCH  11  13
ATOM     13  O   UNL     1      43.335  11.266  10.559  0.00  0.00    +0.000 OA
ATOM     14  C   UNL     1      42.249  11.293  11.479  0.00  0.00    +0.000 C 
ENDBRANCH  11  13
ENDBRANCH   5   7
BRANCH   1  15
ATOM     15  O   UNL     1      48.131   5.505  14.268  0.00  0.00    +0.000 OA
BRANCH  15  17
ATOM     16  C   UNL     1      48.593   5.470  16.607  0.00  0.00    +0.000 C 
ATOM     17  C   UNL     1      48.479   6.348  15.374  0.00  0.00    +0.000 C 
ENDBRANCH  15  17
ENDBRANCH   1  15
BRANCH   3  18
ATOM     18  C   UNL     1      43.633   4.383  12.684  0.00  0.00    +0.000 C 
BRANCH  18  19
ATOM     19  C   UNL     1      43.311   4.042  11.220  0.00  0.00    +0.000 C 
BRANCH  19  20
ATOM     20  N   UNL     1      43.752   2.701  10.824  0.00  0.00    +0.000 N 
ATOM     21  C   UNL     1      44.623   2.755   9.707  0.00  0.00    +0.000 A 
ATOM     22  C   UNL     1      45.136   1.570   9.199  0.00  0.00    +0.000 A 
ATOM     23  C   UNL     1      45.991   1.610   8.092  0.00  0.00    +0.000 A 
ATOM     24  C   UNL     1      46.320   2.834   7.509  0.00  0.00    +0.000 A 
ATOM     25  C   UNL     1      45.779   3.966   8.089  0.00  0.00    +0.000 A 
ATOM     26  N   UNL     1      44.953   3.949   9.167  0.00  0.00    +0.000 NA
ATOM     27  H   UNL     1      42.973   2.095  10.584  0.00  0.00    +0.000 HD
BRANCH  24  28
ATOM     28  C   UNL     1      47.210   2.867   6.323  0.00  0.00    +0.000 C 
ATOM     29  N   UNL     1      48.550   2.643   6.488  0.00  0.00    +0.000 N 
ATOM     30  O   UNL     1      46.762   3.100   5.204  0.00  0.00    +0.000 OA
ATOM     31  H   UNL     1      49.019   2.444   7.355  0.00  0.00    +0.000 HD
ATOM     32  H   UNL     1      49.117   2.680   5.649  0.00  0.00    +0.000 HD
ENDBRANCH  24  28
ENDBRANCH  19  20
ENDBRANCH  18  19
ENDBRANCH   3  18
TORSDOF 8
ENDMDL
MODEL 5
REMARK VINA RESULT:    -7.137      2.730      7.942
REMARK INTER + INTRA:         -11.575
REMARK INTER:                 -10.361
REMARK INTRA:                  -1.214
REMARK UNBOUND:                -1.100
REMARK  Name = 
REMARK  10 active torsions:
REMARK  status: ('A' for Active; 'I' for Inactive)
REMARK    1  A    between atoms: C_1  and  C_2
REMARK    2  A    between atoms: C_2  and  O_3
REMARK    3  A    between atoms: O_3  and  C_4
REMARK    4  A    between atoms: C_6  and  C_7
REMARK    5  A    between atoms: C_7  and  C_8
REMARK    6  A    between atoms: C_8  and  N_9
REMARK    7  A    between atoms: C_13  and  C_14
REMARK    8  A    between atoms: C_20  and  C_21
REMARK    9  A    between atoms: C_25  and  O_26
REMARK   10  A    between atoms: O_26  and  C_27
REMARK                            x       y       z     vdW  Elec       q    Type
REMARK                         _______ _______ _______ _____ _____    ______ ____
ROOT
ATOM      1  C   UNL     1      44.812   9.193  11.665  0.00  0.00    +0.000 A 
ATOM      2  C   UNL     1      46.119   9.497  12.025  0.00  0.00    +0.000 A 
ATOM      3  C   UNL     1      47.034   8.452  12.179  0.00  0.00    +0.000 A 
ATOM      4  C   UNL     1      46.553   7.150  11.993  0.00  0.00    +0.000 A 
ATOM      5  C   UNL     1      45.215   6.921  11.675  0.00  0.00    +0.000 A 
ATOM      6  N   UNL     1      44.342   7.939  11.510  0.00  0.00    +0.000 NA
ENDROOT
BRANCH   5   7
ATOM      7  C   UNL     1      44.661   5.561  11.539  0.00  0.00    +0.000 A 
ATOM      8  C   UNL     1      44.046   4.932  12.636  0.00  0.00    +0.000 A 
ATOM      9  C   UNL     1      43.540   3.637  12.540  0.00  0.00    +0.000 A 
ATOM     10  C   UNL     1      43.619   2.943  11.333  0.00  0.00    +0.000 A 
ATOM     11  C   UNL     1      44.201   3.549  10.222  0.00  0.00    +0.000 A 
ATOM     12  C   UNL     1      44.732   4.836  10.334  0.00  0.00    +0.000 A 
BRANCH  11  13
ATOM     13  O   UNL     1      44.335   2.968   8.991  0.00  0.00    +0.000 OA
ATOM     14  C   UNL     1      45.471   2.122   8.851  0.00  0.00    +0.000 C 
ENDBRANCH  11  13
ENDBRANCH   5   7
BRANCH   1  15
ATOM     15  O   UNL     1      43.950  10.254  11.472  0.00  0.00    +0.000 OA
BRANCH  15  17
ATOM     16  C   UNL     1      43.039  10.654   9.306  0.00  0.00    +0.000 C 
ATOM     17  C   UNL     1      42.853   9.912  10.617  0.00  0.00    +0.000 C 
ENDBRANCH  15  17
ENDBRANCH   1  15
BRANCH   3  18
ATOM     18  C   UNL     1      48.484   8.737  12.540  0.00  0.00    +0.000 C 
BRANCH  18  19
ATOM     19  C   UNL     1      49.285   7.490  12.951  0.00  0.00    +0.000 C 
BRANCH  19  20
ATOM     20  N   UNL     1      49.808   7.559  14.318  0.00  0.00    +0.000 N 
ATOM     21  C   UNL     1      49.213   6.574  15.147  0.00  0.00    +0.000 A 
ATOM     22  C   UNL     1      49.595   6.499  16.479  0.00  0.00    +0.000 A 
ATOM     23  C   UNL     1      49.010   5.535  17.307  0.00  0.00    +0.000 A 
ATOM     24  C   UNL     1      48.052   4.661  16.792  0.00  0.00    +0.000 A 
ATOM     25  C   UNL     1      47.744   4.793  15.451  0.00  0.00    +0.000 A 
ATOM     26  N   UNL     1      48.305   5.718  14.630  0.00  0.00    +0.000 NA
ATOM     27  H   UNL     1      49.645   8.466  14.747  0.00  0.00    +0.000 HD
BRANCH  24  28
ATOM     28  C   UNL     1      47.421   3.656  17.682  0.00  0.00    +0.000 C 
ATOM     29  N   UNL     1      47.982   3.401  18.905  0.00  0.00    +0.000 N 
ATOM     30  O   UNL     1      46.413   3.047  17.333  0.00  0.00    +0.000 OA
ATOM     31  H   UNL     1      48.802   3.840  19.287  0.00  0.00    +0.000 HD
ATOM     32  H   UNL     1      47.518   2.704  19.474  0.00  0.00    +0.000 HD
ENDBRANCH  24  28
ENDBRANCH  19  20
ENDBRANCH  18  19
ENDBRANCH   3  18
TORSDOF 8
ENDMDL
MODEL 6
REMARK VINA RESULT:    -7.035      2.208      4.305
REMARK INTER + INTRA:         -11.426
REMARK INTER:                 -10.453
REMARK INTRA:                  -0.973
REMARK UNBOUND:                -1.100
REMARK  Name = 
REMARK  10 active torsions:
REMARK  status: ('A' for Active; 'I' for Inactive)
REMARK    1  A    between atoms: C_1  and  C_2
REMARK    2  A    between atoms: C_2  and  O_3
REMARK    3  A    between atoms: O_3  and  C_4
REMARK    4  A    between atoms: C_6  and  C_7
REMARK    5  A    between atoms: C_7  and  C_8
REMARK    6  A    between atoms: C_8  and  N_9
REMARK    7  A    between atoms: C_13  and  C_14
REMARK    8  A    between atoms: C_20  and  C_21
REMARK    9  A    between atoms: C_25  and  O_26
REMARK   10  A    between atoms: O_26  and  C_27
REMARK                            x       y       z     vdW  Elec       q    Type
REMARK                         _______ _______ _______ _____ _____    ______ ____
ROOT
ATOM      1  C   UNL     1      44.950   8.158  11.643  0.00  0.00    +0.000 A 
ATOM      2  C   UNL     1      44.253   6.956  11.627  0.00  0.00    +0.000 A 
ATOM      3  C   UNL     1      44.775   5.867  12.332  0.00  0.00    +0.000 A 
ATOM      4  C   UNL     1      46.000   6.057  12.983  0.00  0.00    +0.000 A 
ATOM      5  C   UNL     1      46.663   7.282  12.917  0.00  0.00    +0.000 A 
ATOM      6  N   UNL     1      46.140   8.335  12.249  0.00  0.00    +0.000 NA
ENDROOT
BRANCH   5   7
ATOM      7  C   UNL     1      47.984   7.495  13.535  0.00  0.00    +0.000 A 
ATOM      8  C   UNL     1      48.823   8.529  13.078  0.00  0.00    +0.000 A 
ATOM      9  C   UNL     1      50.088   8.732  13.627  0.00  0.00    +0.000 A 
ATOM     10  C   UNL     1      50.540   7.918  14.663  0.00  0.00    +0.000 A 
ATOM     11  C   UNL     1      49.723   6.901  15.153  0.00  0.00    +0.000 A 
ATOM     12  C   UNL     1      48.468   6.684  14.579  0.00  0.00    +0.000 A 
BRANCH  11  13
ATOM     13  O   UNL     1      50.059   6.041  16.163  0.00  0.00    +0.000 OA
ATOM     14  C   UNL     1      49.634   6.447  17.459  0.00  0.00    +0.000 C 
ENDBRANCH  11  13
ENDBRANCH   5   7
BRANCH   1  15
ATOM     15  O   UNL     1      44.377   9.224  10.979  0.00  0.00    +0.000 OA
BRANCH  15  17
ATOM     16  C   UNL     1      44.411  11.578  10.603  0.00  0.00    +0.000 C 
ATOM     17  C   UNL     1      44.665  10.475  11.616  0.00  0.00    +0.000 C 
ENDBRANCH  15  17
ENDBRANCH   1  15
BRANCH   3  18
ATOM     18  C   UNL     1      44.033   4.540  12.371  0.00  0.00    +0.000 C 
BRANCH  18  19
ATOM     19  C   UNL     1      43.491   4.084  11.005  0.00  0.00    +0.000 C 
BRANCH  19  20
ATOM     20  N   UNL     1      43.903   2.726  10.640  0.00  0.00    +0.000 N 
ATOM     21  C   UNL     1      44.774   2.735   9.521  0.00  0.00    +0.000 A 
ATOM     22  C   UNL     1      45.261   1.528   9.040  0.00  0.00    +0.000 A 
ATOM     23  C   UNL     1      46.115   1.525   7.932  0.00  0.00    +0.000 A 
ATOM     24  C   UNL     1      46.470   2.728   7.321  0.00  0.00    +0.000 A 
ATOM     25  C   UNL     1      45.954   3.884   7.876  0.00  0.00    +0.000 A 
ATOM     26  N   UNL     1      45.129   3.909   8.953  0.00  0.00    +0.000 NA
ATOM     27  H   UNL     1      43.111   2.131  10.414  0.00  0.00    +0.000 HD
BRANCH  24  28
ATOM     28  C   UNL     1      47.358   2.715   6.134  0.00  0.00    +0.000 C 
ATOM     29  N   UNL     1      48.715   2.678   6.316  0.00  0.00    +0.000 N 
ATOM     30  O   UNL     1      46.895   2.746   4.997  0.00  0.00    +0.000 OA
ATOM     31  H   UNL     1      49.197   2.651   7.198  0.00  0.00    +0.000 HD
ATOM     32  H   UNL     1      49.280   2.675   5.476  0.00  0.00    +0.000 HD
ENDBRANCH  24  28
ENDBRANCH  19  20
ENDBRANCH  18  19
ENDBRANCH   3  18
TORSDOF 8
ENDMDL
MODEL 7
REMARK VINA RESULT:    -6.905      2.465      3.997
REMARK INTER + INTRA:         -11.234
REMARK INTER:                 -10.250
REMARK INTRA:                  -0.984
REMARK UNBOUND:                -1.100
REMARK  Name = 
REMARK  10 active torsions:
REMARK  status: ('A' for Active; 'I' for Inactive)
REMARK    1  A    between atoms: C_1  and  C_2
REMARK    2  A    between atoms: C_2  and  O_3
REMARK    3  A    between atoms: O_3  and  C_4
REMARK    4  A    between atoms: C_6  and  C_7
REMARK    5  A    between atoms: C_7  and  C_8
REMARK    6  A    between atoms: C_8  and  N_9
REMARK    7  A    between atoms: C_13  and  C_14
REMARK    8  A    between atoms: C_20  and  C_21
REMARK    9  A    between atoms: C_25  and  O_26
REMARK   10  A    between atoms: O_26  and  C_27
REMARK                            x       y       z     vdW  Elec       q    Type
REMARK                         _______ _______ _______ _____ _____    ______ ____
ROOT
ATOM      1  C   UNL     1      44.984   8.150  11.640  0.00  0.00    +0.000 A 
ATOM      2  C   UNL     1      44.300   6.941  11.639  0.00  0.00    +0.000 A 
ATOM      3  C   UNL     1      44.881   5.839  12.271  0.00  0.00    +0.000 A 
ATOM      4  C   UNL     1      46.149   6.024  12.837  0.00  0.00    +0.000 A 
ATOM      5  C   UNL     1      46.794   7.257  12.760  0.00  0.00    +0.000 A 
ATOM      6  N   UNL     1      46.214   8.323  12.164  0.00  0.00    +0.000 NA
ENDROOT
BRANCH   5   7
ATOM      7  C   UNL     1      48.155   7.467  13.286  0.00  0.00    +0.000 A 
ATOM      8  C   UNL     1      48.506   6.987  14.560  0.00  0.00    +0.000 A 
ATOM      9  C   UNL     1      49.777   7.198  15.091  0.00  0.00    +0.000 A 
ATOM     10  C   UNL     1      50.741   7.879  14.349  0.00  0.00    +0.000 A 
ATOM     11  C   UNL     1      50.431   8.345  13.073  0.00  0.00    +0.000 A 
ATOM     12  C   UNL     1      49.145   8.156  12.560  0.00  0.00    +0.000 A 
BRANCH  11  13
ATOM     13  O   UNL     1      51.291   9.026  12.256  0.00  0.00    +0.000 OA
ATOM     14  C   UNL     1      52.004   8.213  11.330  0.00  0.00    +0.000 C 
ENDBRANCH  11  13
ENDBRANCH   5   7
BRANCH   1  15
ATOM     15  O   UNL     1      44.355   9.229  11.052  0.00  0.00    +0.000 OA
BRANCH  15  17
ATOM     16  C   UNL     1      44.339  11.593  10.749  0.00  0.00    +0.000 C 
ATOM     17  C   UNL     1      44.673  10.464  11.706  0.00  0.00    +0.000 C 
ENDBRANCH  15  17
ENDBRANCH   1  15
BRANCH   3  18
ATOM     18  C   UNL     1      44.156   4.503  12.325  0.00  0.00    +0.000 C 
BRANCH  18  19
ATOM     19  C   UNL     1      43.565   4.056  10.977  0.00  0.00    +0.000 C 
BRANCH  19  20
ATOM     20  N   UNL     1      43.954   2.696  10.593  0.00  0.00    +0.000 N 
ATOM     21  C   UNL     1      44.825   2.707   9.475  0.00  0.00    +0.000 A 
ATOM     22  C   UNL     1      45.292   1.498   8.977  0.00  0.00    +0.000 A 
ATOM     23  C   UNL     1      46.147   1.496   7.869  0.00  0.00    +0.000 A 
ATOM     24  C   UNL     1      46.522   2.702   7.275  0.00  0.00    +0.000 A 
ATOM     25  C   UNL     1      46.026   3.859   7.846  0.00  0.00    +0.000 A 
ATOM     26  N   UNL     1      45.200   3.882   8.924  0.00  0.00    +0.000 NA
ATOM     27  H   UNL     1      43.151   2.118  10.358  0.00  0.00    +0.000 HD
BRANCH  24  28
ATOM     28  C   UNL     1      47.411   2.690   6.089  0.00  0.00    +0.000 C 
ATOM     29  N   UNL     1      48.766   2.611   6.271  0.00  0.00    +0.000 N 
ATOM     30  O   UNL     1      46.950   2.760   4.953  0.00  0.00    +0.000 OA
ATOM     31  H   UNL     1      49.246   2.550   7.153  0.00  0.00    +0.000 HD
ATOM     32  H   UNL     1      49.331   2.611   5.431  0.00  0.00    +0.000 HD
ENDBRANCH  24  28
ENDBRANCH  19  20
ENDBRANCH  18  19
ENDBRANCH   3  18
TORSDOF 8
ENDMDL
MODEL 8
REMARK VINA RESULT:    -6.552      3.154      6.975
REMARK INTER + INTRA:         -10.717
REMARK INTER:                 -10.225
REMARK INTRA:                  -0.492
REMARK UNBOUND:                -1.100
REMARK  Name = 
REMARK  10 active torsions:
REMARK  status: ('A' for Active; 'I' for Inactive)
REMARK    1  A    between atoms: C_1  and  C_2
REMARK    2  A    between atoms: C_2  and  O_3
REMARK    3  A    between atoms: O_3  and  C_4
REMARK    4  A    between atoms: C_6  and  C_7
REMARK    5  A    between atoms: C_7  and  C_8
REMARK    6  A    between atoms: C_8  and  N_9
REMARK    7  A    between atoms: C_13  and  C_14
REMARK    8  A    between atoms: C_20  and  C_21
REMARK    9  A    between atoms: C_25  and  O_26
REMARK   10  A    between atoms: O_26  and  C_27
REMARK                            x       y       z     vdW  Elec       q    Type
REMARK                         _______ _______ _______ _____ _____    ______ ____
ROOT
ATOM      1  C   UNL     1      44.794   4.555  11.578  0.00  0.00    +0.000 A 
ATOM      2  C   UNL     1      45.547   3.856  12.514  0.00  0.00    +0.000 A 
ATOM      3  C   UNL     1      46.372   4.574  13.384  0.00  0.00    +0.000 A 
ATOM      4  C   UNL     1      46.411   5.965  13.225  0.00  0.00    +0.000 A 
ATOM      5  C   UNL     1      45.659   6.592  12.233  0.00  0.00    +0.000 A 
ATOM      6  N   UNL     1      44.849   5.891  11.408  0.00  0.00    +0.000 NA
ENDROOT
BRANCH   5   7
ATOM      7  C   UNL     1      45.728   8.046  11.995  0.00  0.00    +0.000 A 
ATOM      8  C   UNL     1      46.890   8.765  12.327  0.00  0.00    +0.000 A 
ATOM      9  C   UNL     1      46.969  10.144  12.138  0.00  0.00    +0.000 A 
ATOM     10  C   UNL     1      45.890  10.837  11.591  0.00  0.00    +0.000 A 
ATOM     11  C   UNL     1      44.735  10.148  11.229  0.00  0.00    +0.000 A 
ATOM     12  C   UNL     1      44.652   8.771  11.449  0.00  0.00    +0.000 A 
BRANCH  11  13
ATOM     13  O   UNL     1      43.617  10.721  10.687  0.00  0.00    +0.000 OA
ATOM     14  C   UNL     1      42.476   9.871  10.636  0.00  0.00    +0.000 C 
ENDBRANCH  11  13
ENDBRANCH   5   7
BRANCH   1  15
ATOM     15  O   UNL     1      43.953   3.816  10.771  0.00  0.00    +0.000 OA
BRANCH  15  17
ATOM     16  C   UNL     1      44.726   3.656   8.522  0.00  0.00    +0.000 C 
ATOM     17  C   UNL     1      44.675   2.965   9.872  0.00  0.00    +0.000 C 
ENDBRANCH  15  17
ENDBRANCH   1  15
BRANCH   3  18
ATOM     18  C   UNL     1      47.191   3.856  14.447  0.00  0.00    +0.000 C 
BRANCH  18  19
ATOM     19  C   UNL     1      46.896   4.318  15.884  0.00  0.00    +0.000 C 
BRANCH  19  20
ATOM     20  N   UNL     1      48.016   5.028  16.508  0.00  0.00    +0.000 N 
ATOM     21  C   UNL     1      49.079   4.143  16.816  0.00  0.00    +0.000 A 
ATOM     22  C   UNL     1      50.223   4.650  17.414  0.00  0.00    +0.000 A 
ATOM     23  C   UNL     1      51.276   3.784  17.729  0.00  0.00    +0.000 A 
ATOM     24  C   UNL     1      51.170   2.423  17.440  0.00  0.00    +0.000 A 
ATOM     25  C   UNL     1      50.003   2.005  16.827  0.00  0.00    +0.000 A 
ATOM     26  N   UNL     1      48.973   2.831  16.509  0.00  0.00    +0.000 NA
ATOM     27  H   UNL     1      47.743   5.498  17.367  0.00  0.00    +0.000 HD
BRANCH  24  28
ATOM     28  C   UNL     1      52.281   1.508  17.796  0.00  0.00    +0.000 C 
ATOM     29  N   UNL     1      51.991   0.240  18.224  0.00  0.00    +0.000 N 
ATOM     30  O   UNL     1      53.450   1.875  17.720  0.00  0.00    +0.000 OA
ATOM     31  H   UNL     1      51.073  -0.160  18.322  0.00  0.00    +0.000 HD
ATOM     32  H   UNL     1      52.783  -0.345  18.459  0.00  0.00    +0.000 HD
ENDBRANCH  24  28
ENDBRANCH  19  20
ENDBRANCH  18  19
ENDBRANCH   3  18
TORSDOF 8
ENDMDL
MODEL 9
REMARK VINA RESULT:    -6.136      3.503      7.940
REMARK INTER + INTRA:         -10.105
REMARK INTER:                  -9.187
REMARK INTRA:                  -0.919
REMARK UNBOUND:                -1.100
REMARK  Name = 
REMARK  10 active torsions:
REMARK  status: ('A' for Active; 'I' for Inactive)
REMARK    1  A    between atoms: C_1  and  C_2
REMARK    2  A    between atoms: C_2  and  O_3
REMARK    3  A    between atoms: O_3  and  C_4
REMARK    4  A    between atoms: C_6  and  C_7
REMARK    5  A    between atoms: C_7  and  C_8
REMARK    6  A    between atoms: C_8  and  N_9
REMARK    7  A    between atoms: C_13  and  C_14
REMARK    8  A    between atoms: C_20  and  C_21
REMARK    9  A    between atoms: C_25  and  O_26
REMARK   10  A    between atoms: O_26  and  C_27
REMARK                            x       y       z     vdW  Elec       q    Type
REMARK                         _______ _______ _______ _____ _____    ______ ____
ROOT
ATOM      1  C   UNL     1      44.436   4.451  11.103  0.00  0.00    +0.000 A 
ATOM      2  C   UNL     1      45.196   3.696  11.987  0.00  0.00    +0.000 A 
ATOM      3  C   UNL     1      46.014   4.358  12.907  0.00  0.00    +0.000 A 
ATOM      4  C   UNL     1      46.038   5.757  12.847  0.00  0.00    +0.000 A 
ATOM      5  C   UNL     1      45.280   6.446  11.901  0.00  0.00    +0.000 A 
ATOM      6  N   UNL     1      44.477   5.797  11.028  0.00  0.00    +0.000 NA
ENDROOT
BRANCH   5   7
ATOM      7  C   UNL     1      45.333   7.913  11.768  0.00  0.00    +0.000 A 
ATOM      8  C   UNL     1      46.462   8.625  12.212  0.00  0.00    +0.000 A 
ATOM      9  C   UNL     1      46.524  10.015  12.123  0.00  0.00    +0.000 A 
ATOM     10  C   UNL     1      45.464  10.728  11.565  0.00  0.00    +0.000 A 
ATOM     11  C   UNL     1      44.343  10.048  11.093  0.00  0.00    +0.000 A 
ATOM     12  C   UNL     1      44.275   8.658  11.213  0.00  0.00    +0.000 A 
BRANCH  11  13
ATOM     13  O   UNL     1      43.246  10.640  10.530  0.00  0.00    +0.000 OA
ATOM     14  C   UNL     1      42.040   9.890  10.641  0.00  0.00    +0.000 C 
ENDBRANCH  11  13
ENDBRANCH   5   7
BRANCH   1  15
ATOM     15  O   UNL     1      43.603   3.763  10.244  0.00  0.00    +0.000 OA
BRANCH  15  17
ATOM     16  C   UNL     1      44.827   3.583   8.207  0.00  0.00    +0.000 C 
ATOM     17  C   UNL     1      44.320   2.832   9.424  0.00  0.00    +0.000 C 
ENDBRANCH  15  17
ENDBRANCH   1  15
BRANCH   3  18
ATOM     18  C   UNL     1      46.839   3.575  13.916  0.00  0.00    +0.000 C 
BRANCH  18  19
ATOM     19  C   UNL     1      47.170   4.358  15.199  0.00  0.00    +0.000 C 
BRANCH  19  20
ATOM     20  N   UNL     1      47.421   3.497  16.357  0.00  0.00    +0.000 N 
ATOM     21  C   UNL     1      48.022   4.222  17.416  0.00  0.00    +0.000 A 
ATOM     22  C   UNL     1      48.330   3.557  18.595  0.00  0.00    +0.000 A 
ATOM     23  C   UNL     1      48.931   4.261  19.644  0.00  0.00    +0.000 A 
ATOM     24  C   UNL     1      49.214   5.620  19.500  0.00  0.00    +0.000 A 
ATOM     25  C   UNL     1      48.858   6.207  18.301  0.00  0.00    +0.000 A 
ATOM     26  N   UNL     1      48.269   5.543  17.273  0.00  0.00    +0.000 NA
ATOM     27  H   UNL     1      48.029   2.714  16.131  0.00  0.00    +0.000 HD
BRANCH  24  28
ATOM     28  C   UNL     1      49.870   6.355  20.609  0.00  0.00    +0.000 C 
ATOM     29  N   UNL     1      51.201   6.145  20.853  0.00  0.00    +0.000 N 
ATOM     30  O   UNL     1      49.235   7.136  21.312  0.00  0.00    +0.000 OA
ATOM     31  H   UNL     1      51.811   5.531  20.341  0.00  0.00    +0.000 HD
ATOM     32  H   UNL     1      51.602   6.666  21.623  0.00  0.00    +0.000 HD
ENDBRANCH  24  28
ENDBRANCH  19  20
ENDBRANCH  18  19
ENDBRANCH   3  18
TORSDOF 8
ENDMDL
