MODEL 1
REMARK VINA RESULT:    -7.935      0.000      0.000
REMARK INTER + INTRA:         -11.153
REMARK INTER:                 -10.254
REMARK INTRA:                  -0.899
REMARK UNBOUND:                -0.899
REMARK  Name = 
REMARK  6 active torsions:
REMARK  status: ('A' for Active; 'I' for Inactive)
REMARK    1  A    between atoms: C_1  and  S_2
REMARK    2  A    between atoms: S_2  and  C_5
REMARK    3  A    between atoms: C_8  and  O_9
REMARK    4  A    between atoms: O_9  and  C_10
REMARK    5  A    between atoms: C_10  and  C_11
REMARK    6  A    between atoms: C_15  and  C_16
REMARK                            x       y       z     vdW  Elec       q    Type
REMARK                         _______ _______ _______ _____ _____    ______ ____
ROOT
ATOM      1  C   UNL     1      43.770   4.803  11.325  0.00  0.00    +0.000 C 
ATOM      2  C   UNL     1      42.437   5.228  11.937  0.00  0.00    +0.000 C 
ATOM      3  C   UNL     1      43.072   6.067  10.876  0.00  0.00    +0.000 C 
ENDROOT
BRANCH   1   4
ATOM      4  C   UNL     1      44.995   4.867  12.222  0.00  0.00    +0.000 A 
ATOM      5  C   UNL     1      45.573   3.684  12.710  0.00  0.00    +0.000 A 
ATOM      6  C   UNL     1      46.701   3.711  13.522  0.00  0.00    +0.000 A 
ATOM      7  C   UNL     1      47.288   4.928  13.856  0.00  0.00    +0.000 A 
ATOM      8  C   UNL     1      46.773   6.139  13.380  0.00  0.00    +0.000 A 
ATOM      9  C   UNL     1      45.617   6.085  12.574  0.00  0.00    +0.000 A 
BRANCH   8  10
ATOM     10  C   UNL     1      47.462   7.483  13.624  0.00  0.00    +0.000 C 
ATOM     11  C   UNL     1      47.533   8.309  12.327  0.00  0.00    +0.000 C 
ATOM     12  C   UNL     1      48.625   7.795  11.391  0.00  0.00    +0.000 C 
ATOM     13  C   UNL     1      49.979   7.669  12.094  0.00  0.00    +0.000 C 
ATOM     14  N   UNL     1      49.919   6.930  13.352  0.00  0.00    +0.000 NA
ATOM     15  C   UNL     1      48.875   7.427  14.255  0.00  0.00    +0.000 C 
ATOM     16  H   UNL     1      50.825   6.957  13.819  0.00  0.00    +0.000 HD
ENDBRANCH   8  10
ENDBRANCH   1   4
BRANCH   1  17
ATOM     17  O   UNL     1      43.584   3.597  10.544  0.00  0.00    +0.000 OA
BRANCH  17  21
ATOM     18  C   UNL     1      46.243   2.632   7.574  0.00  0.00    +0.000 A 
ATOM     19  C   UNL     1      45.793   1.645   8.446  0.00  0.00    +0.000 A 
ATOM     20  C   UNL     1      44.901   2.003   9.450  0.00  0.00    +0.000 A 
ATOM     21  C   UNL     1      44.495   3.330   9.542  0.00  0.00    +0.000 A 
ATOM     22  N   UNL     1      44.912   4.304   8.703  0.00  0.00    +0.000 NA
ATOM     23  C   UNL     1      45.802   3.939   7.748  0.00  0.00    +0.000 A 
BRANCH  18  25
ATOM     24  C   UNL     1      47.165   0.525   6.020  0.00  0.00    +0.000 C 
ATOM     25  S   UNL     1      47.390   2.262   6.297  0.00  0.00    +0.000 S 
ATOM     26  O   UNL     1      48.721   2.457   6.840  0.00  0.00    +0.000 OA
ATOM     27  O   UNL     1      46.965   2.969   5.104  0.00  0.00    +0.000 OA
ENDBRANCH  18  25
ENDBRANCH  17  21
ENDBRANCH   1  17
TORSDOF 5
ENDMDL
MODEL 2
REMARK VINA RESULT:    -6.527      4.340      7.720
REMARK INTER + INTRA:          -9.334
REMARK INTER:                  -8.670
REMARK INTRA:                  -0.664
REMARK UNBOUND:                -0.899
REMARK  Name = 
REMARK  6 active torsions:
REMARK  status: ('A' for Active; 'I' for Inactive)
REMARK    1  A    between atoms: C_1  and  S_2
REMARK    2  A    between atoms: S_2  and  C_5
REMARK    3  A    between atoms: C_8  and  O_9
REMARK    4  A    between atoms: O_9  and  C_10
REMARK    5  A    between atoms: C_10  and  C_11
REMARK    6  A    between atoms: C_15  and  C_16
REMARK                            x       y       z     vdW  Elec       q    Type
REMARK                         _______ _______ _______ _____ _____    ______ ____
ROOT
ATOM      1  C   UNL     1      48.417   8.412  12.749  0.00  0.00    +0.000 C 
ATOM      2  C   UNL     1      49.351   9.317  11.948  0.00  0.00    +0.000 C 
ATOM      3  C   UNL     1      48.969   9.689  13.344  0.00  0.00    +0.000 C 
ENDROOT
BRANCH   1   4
ATOM      4  C   UNL     1      46.972   8.329  12.291  0.00  0.00    +0.000 A 
ATOM      5  C   UNL     1      46.178   9.486  12.250  0.00  0.00    +0.000 A 
ATOM      6  C   UNL     1      44.856   9.443  11.823  0.00  0.00    +0.000 A 
ATOM      7  C   UNL     1      44.298   8.238  11.411  0.00  0.00    +0.000 A 
ATOM      8  C   UNL     1      45.045   7.054  11.404  0.00  0.00    +0.000 A 
ATOM      9  C   UNL     1      46.378   7.122  11.860  0.00  0.00    +0.000 A 
BRANCH   8  10
ATOM     10  C   UNL     1      44.505   5.739  10.842  0.00  0.00    +0.000 C 
ATOM     11  C   UNL     1      43.002   5.587  11.140  0.00  0.00    +0.000 C 
ATOM     12  C   UNL     1      42.754   5.193  12.595  0.00  0.00    +0.000 C 
ATOM     13  C   UNL     1      43.573   3.969  13.012  0.00  0.00    +0.000 C 
ATOM     14  N   UNL     1      44.993   4.076  12.691  0.00  0.00    +0.000 NA
ATOM     15  C   UNL     1      45.232   4.447  11.292  0.00  0.00    +0.000 C 
ATOM     16  H   UNL     1      45.468   3.200  12.906  0.00  0.00    +0.000 HD
ENDBRANCH   8  10
ENDBRANCH   1   4
BRANCH   1  17
ATOM     17  O   UNL     1      49.090   7.164  13.048  0.00  0.00    +0.000 OA
BRANCH  17  21
ATOM     18  C   UNL     1      47.812   5.144  16.382  0.00  0.00    +0.000 A 
ATOM     19  C   UNL     1      48.690   6.216  16.517  0.00  0.00    +0.000 A 
ATOM     20  C   UNL     1      49.115   6.874  15.369  0.00  0.00    +0.000 A 
ATOM     21  C   UNL     1      48.647   6.437  14.135  0.00  0.00    +0.000 A 
ATOM     22  N   UNL     1      47.788   5.405  13.979  0.00  0.00    +0.000 NA
ATOM     23  C   UNL     1      47.407   4.759  15.108  0.00  0.00    +0.000 A 
BRANCH  18  25
ATOM     24  C   UNL     1      48.747   3.683  18.548  0.00  0.00    +0.000 C 
ATOM     25  S   UNL     1      47.250   4.246  17.782  0.00  0.00    +0.000 S 
ATOM     26  O   UNL     1      46.536   3.082  17.293  0.00  0.00    +0.000 OA
ATOM     27  O   UNL     1      46.608   5.186  18.681  0.00  0.00    +0.000 OA
ENDBRANCH  18  25
ENDBRANCH  17  21
ENDBRANCH   1  17
TORSDOF 5
ENDMDL
MODEL 3
REMARK VINA RESULT:    -6.321      3.653      6.569
REMARK INTER + INTRA:          -9.068
REMARK INTER:                  -7.922
REMARK INTRA:                  -1.146
REMARK UNBOUND:                -0.899
REMARK  Name = 
REMARK  6 active torsions:
REMARK  status: ('A' for Active; 'I' for Inactive)
REMARK    1  A    between atoms: C_1  and  S_2
REMARK    2  A    between atoms: S_2  and  C_5
REMARK    3  A    between atoms: C_8  and  O_9
REMARK    4  A    between atoms: O_9  and  C_10
REMARK    5  A    between atoms: C_10  and  C_11
REMARK    6  A    between atoms: C_15  and  C_16
REMARK                            x       y       z     vdW  Elec       q    Type
REMARK                         _______ _______ _______ _____ _____    ______ ____
ROOT
ATOM      1  C   UNL     1      48.574   8.345  13.276  0.00  0.00    +0.000 C 
ATOM      2  C   UNL     1      49.753   8.517  14.232  0.00  0.00    +0.000 C 
ATOM      3  C   UNL     1      48.363   8.431  14.772  0.00  0.00    +0.000 C 
ENDROOT
BRANCH   1   4
ATOM      4  C   UNL     1      48.237   9.520  12.374  0.00  0.00    +0.000 A 
ATOM      5  C   UNL     1      49.180   9.989  11.446  0.00  0.00    +0.000 A 
ATOM      6  C   UNL     1      48.895  11.053  10.599  0.00  0.00    +0.000 A 
ATOM      7  C   UNL     1      47.649  11.669  10.652  0.00  0.00    +0.000 A 
ATOM      8  C   UNL     1      46.658  11.231  11.539  0.00  0.00    +0.000 A 
ATOM      9  C   UNL     1      46.979  10.162  12.400  0.00  0.00    +0.000 A 
BRANCH   8  10
ATOM     10  C   UNL     1      45.238  11.801  11.538  0.00  0.00    +0.000 C 
ATOM     11  C   UNL     1      44.199  10.693  11.788  0.00  0.00    +0.000 C 
ATOM     12  C   UNL     1      43.974   9.841  10.540  0.00  0.00    +0.000 C 
ATOM     13  C   UNL     1      43.658  10.692   9.307  0.00  0.00    +0.000 C 
ATOM     14  N   UNL     1      44.607  11.778   9.085  0.00  0.00    +0.000 NA
ATOM     15  C   UNL     1      44.818  12.602  10.281  0.00  0.00    +0.000 C 
ATOM     16  H   UNL     1      44.295  12.363   8.310  0.00  0.00    +0.000 HD
ENDBRANCH   8  10
ENDBRANCH   1   4
BRANCH   1  17
ATOM     17  O   UNL     1      48.635   7.035  12.662  0.00  0.00    +0.000 OA
BRANCH  17  21
ATOM     18  C   UNL     1      45.137   4.961  12.126  0.00  0.00    +0.000 A 
ATOM     19  C   UNL     1      45.509   5.937  11.207  0.00  0.00    +0.000 A 
ATOM     20  C   UNL     1      46.693   6.632  11.420  0.00  0.00    +0.000 A 
ATOM     21  C   UNL     1      47.457   6.324  12.540  0.00  0.00    +0.000 A 
ATOM     22  N   UNL     1      47.121   5.375  13.442  0.00  0.00    +0.000 NA
ATOM     23  C   UNL     1      45.949   4.729  13.231  0.00  0.00    +0.000 A 
BRANCH  18  25
ATOM     24  C   UNL     1      42.392   5.317  11.915  0.00  0.00    +0.000 C 
ATOM     25  S   UNL     1      43.641   4.059  11.940  0.00  0.00    +0.000 S 
ATOM     26  O   UNL     1      43.456   3.272  13.145  0.00  0.00    +0.000 OA
ATOM     27  O   UNL     1      43.669   3.423  10.637  0.00  0.00    +0.000 OA
ENDBRANCH  18  25
ENDBRANCH  17  21
ENDBRANCH   1  17
TORSDOF 5
ENDMDL
MODEL 4
REMARK VINA RESULT:    -6.235      3.285      5.916
REMARK INTER + INTRA:          -8.957
REMARK INTER:                  -8.388
REMARK INTRA:                  -0.569
REMARK UNBOUND:                -0.899
REMARK  Name = 
REMARK  6 active torsions:
REMARK  status: ('A' for Active; 'I' for Inactive)
REMARK    1  A    between atoms: C_1  and  S_2
REMARK    2  A    between atoms: S_2  and  C_5
REMARK    3  A    between atoms: C_8  and  O_9
REMARK    4  A    between atoms: O_9  and  C_10
REMARK    5  A    between atoms: C_10  and  C_11
REMARK    6  A    between atoms: C_15  and  C_16
REMARK                            x       y       z     vdW  Elec       q    Type
REMARK                         _______ _______ _______ _____ _____    ______ ____
ROOT
ATOM      1  C   UNL     1      48.528   7.634  13.654  0.00  0.00    +0.000 C 
ATOM      2  C   UNL     1      48.958   8.938  12.986  0.00  0.00    +0.000 C 
ATOM      3  C   UNL     1      49.105   7.643  12.256  0.00  0.00    +0.000 C 
ENDROOT
BRANCH   1   4
ATOM      4  C   UNL     1      49.357   7.156  14.834  0.00  0.00    +0.000 A 
ATOM      5  C   UNL     1      50.738   7.402  14.871  0.00  0.00    +0.000 A 
ATOM      6  C   UNL     1      51.519   6.988  15.943  0.00  0.00    +0.000 A 
ATOM      7  C   UNL     1      50.931   6.325  17.016  0.00  0.00    +0.000 A 
ATOM      8  C   UNL     1      49.555   6.072  17.049  0.00  0.00    +0.000 A 
ATOM      9  C   UNL     1      48.789   6.486  15.940  0.00  0.00    +0.000 A 
BRANCH   8  10
ATOM     10  C   UNL     1      48.857   5.458  18.264  0.00  0.00    +0.000 C 
ATOM     11  C   UNL     1      49.408   4.053  18.565  0.00  0.00    +0.000 C 
ATOM     12  C   UNL     1      48.861   3.013  17.589  0.00  0.00    +0.000 C 
ATOM     13  C   UNL     1      47.333   3.050  17.498  0.00  0.00    +0.000 C 
ATOM     14  N   UNL     1      46.792   4.385  17.262  0.00  0.00    +0.000 NA
ATOM     15  C   UNL     1      47.311   5.383  18.204  0.00  0.00    +0.000 C 
ATOM     16  H   UNL     1      45.773   4.363  17.304  0.00  0.00    +0.000 HD
ENDBRANCH   8  10
ENDBRANCH   1   4
BRANCH   1  17
ATOM     17  O   UNL     1      47.088   7.619  13.807  0.00  0.00    +0.000 OA
BRANCH  17  21
ATOM     18  C   UNL     1      44.920   4.995  11.518  0.00  0.00    +0.000 A 
ATOM     19  C   UNL     1      45.622   4.529  12.625  0.00  0.00    +0.000 A 
ATOM     20  C   UNL     1      46.357   5.439  13.376  0.00  0.00    +0.000 A 
ATOM     21  C   UNL     1      46.361   6.775  12.991  0.00  0.00    +0.000 A 
ATOM     22  N   UNL     1      45.682   7.253  11.924  0.00  0.00    +0.000 NA
ATOM     23  C   UNL     1      44.993   6.345  11.190  0.00  0.00    +0.000 A 
BRANCH  18  25
ATOM     24  C   UNL     1      45.182   2.704   9.974  0.00  0.00    +0.000 C 
ATOM     25  S   UNL     1      43.989   3.903  10.505  0.00  0.00    +0.000 S 
ATOM     26  O   UNL     1      43.562   4.652   9.338  0.00  0.00    +0.000 OA
ATOM     27  O   UNL     1      43.020   3.234  11.351  0.00  0.00    +0.000 OA
ENDBRANCH  18  25
ENDBRANCH  17  21
ENDBRANCH   1  17
TORSDOF 5
ENDMDL
MODEL 5
REMARK VINA RESULT:    -6.175      3.756      6.432
REMARK INTER + INTRA:          -8.879
REMARK INTER:                  -7.978
REMARK INTRA:                  -0.901
REMARK UNBOUND:                -0.899
REMARK  Name = 
REMARK  6 active torsions:
REMARK  status: ('A' for Active; 'I' for Inactive)
REMARK    1  A    between atoms: C_1  and  S_2
REMARK    2  A    between atoms: S_2  and  C_5
REMARK    3  A    between atoms: C_8  and  O_9
REMARK    4  A    between atoms: O_9  and  C_10
REMARK    5  A    between atoms: C_10  and  C_11
REMARK    6  A    between atoms: C_15  and  C_16
REMARK                            x       y       z     vdW  Elec       q    Type
REMARK                         _______ _______ _______ _____ _____    ______ ____
ROOT
ATOM      1  C   UNL     1      48.993   7.793  13.542  0.00  0.00    +0.000 C 
ATOM      2  C   UNL     1      49.492   7.922  14.980  0.00  0.00    +0.000 C 
ATOM      3  C   UNL     1      48.133   8.425  14.615  0.00  0.00    +0.000 C 
ENDROOT
BRANCH   1   4
ATOM      4  C   UNL     1      49.680   8.650  12.492  0.00  0.00    +0.000 A 
ATOM      5  C   UNL     1      49.037   9.787  11.979  0.00  0.00    +0.000 A 
ATOM      6  C   UNL     1      49.647  10.597  11.029  0.00  0.00    +0.000 A 
ATOM      7  C   UNL     1      50.926  10.293  10.575  0.00  0.00    +0.000 A 
ATOM      8  C   UNL     1      51.629   9.187  11.066  0.00  0.00    +0.000 A 
ATOM      9  C   UNL     1      50.981   8.372  12.016  0.00  0.00    +0.000 A 
BRANCH   8  10
ATOM     10  C   UNL     1      53.081   8.894  10.684  0.00  0.00    +0.000 C 
ATOM     11  C   UNL     1      53.266   8.923   9.156  0.00  0.00    +0.000 C 
ATOM     12  C   UNL     1      52.723   7.655   8.499  0.00  0.00    +0.000 C 
ATOM     13  C   UNL     1      53.280   6.384   9.145  0.00  0.00    +0.000 C 
ATOM     14  N   UNL     1      53.157   6.363  10.600  0.00  0.00    +0.000 NA
ATOM     15  C   UNL     1      53.685   7.577  11.232  0.00  0.00    +0.000 C 
ATOM     16  H   UNL     1      53.625   5.541  10.979  0.00  0.00    +0.000 HD
ENDBRANCH   8  10
ENDBRANCH   1   4
BRANCH   1  17
ATOM     17  O   UNL     1      48.784   6.396  13.224  0.00  0.00    +0.000 OA
BRANCH  17  21
ATOM     18  C   UNL     1      44.981   5.214  12.240  0.00  0.00    +0.000 A 
ATOM     19  C   UNL     1      45.650   6.130  11.434  0.00  0.00    +0.000 A 
ATOM     20  C   UNL     1      46.933   6.521  11.798  0.00  0.00    +0.000 A 
ATOM     21  C   UNL     1      47.495   5.982  12.950  0.00  0.00    +0.000 A 
ATOM     22  N   UNL     1      46.869   5.085  13.744  0.00  0.00    +0.000 NA
ATOM     23  C   UNL     1      45.609   4.738  13.387  0.00  0.00    +0.000 A 
BRANCH  18  25
ATOM     24  C   UNL     1      43.458   2.921  11.884  0.00  0.00    +0.000 C 
ATOM     25  S   UNL     1      43.348   4.690  11.861  0.00  0.00    +0.000 S 
ATOM     26  O   UNL     1      43.067   5.100  10.497  0.00  0.00    +0.000 OA
ATOM     27  O   UNL     1      42.487   5.105  12.951  0.00  0.00    +0.000 OA
ENDBRANCH  18  25
ENDBRANCH  17  21
ENDBRANCH   1  17
TORSDOF 5
ENDMDL
MODEL 6
REMARK VINA RESULT:    -6.165      3.845      6.996
REMARK INTER + INTRA:          -8.866
REMARK INTER:                  -7.736
REMARK INTRA:                  -1.130
REMARK UNBOUND:                -0.899
REMARK  Name = 
REMARK  6 active torsions:
REMARK  status: ('A' for Active; 'I' for Inactive)
REMARK    1  A    between atoms: C_1  and  S_2
REMARK    2  A    between atoms: S_2  and  C_5
REMARK    3  A    between atoms: C_8  and  O_9
REMARK    4  A    between atoms: O_9  and  C_10
REMARK    5  A    between atoms: C_10  and  C_11
REMARK    6  A    between atoms: C_15  and  C_16
REMARK                            x       y       z     vdW  Elec       q    Type
REMARK                         _______ _______ _______ _____ _____    ______ ____
ROOT
ATOM      1  C   UNL     1      49.652   8.771  14.169  0.00  0.00    +0.000 C 
ATOM      2  C   UNL     1      50.757   9.798  13.929  0.00  0.00    +0.000 C 
ATOM      3  C   UNL     1      51.061   8.339  13.826  0.00  0.00    +0.000 C 
ENDROOT
BRANCH   1   4
ATOM      4  C   UNL     1      49.123   8.643  15.587  0.00  0.00    +0.000 A 
ATOM      5  C   UNL     1      48.360   9.678  16.151  0.00  0.00    +0.000 A 
ATOM      6  C   UNL     1      47.852   9.583  17.441  0.00  0.00    +0.000 A 
ATOM      7  C   UNL     1      48.086   8.439  18.197  0.00  0.00    +0.000 A 
ATOM      8  C   UNL     1      48.818   7.363  17.683  0.00  0.00    +0.000 A 
ATOM      9  C   UNL     1      49.338   7.493  16.379  0.00  0.00    +0.000 A 
BRANCH   8  10
ATOM     10  C   UNL     1      48.989   6.044  18.437  0.00  0.00    +0.000 C 
ATOM     11  C   UNL     1      49.438   4.919  17.487  0.00  0.00    +0.000 C 
ATOM     12  C   UNL     1      48.278   4.407  16.634  0.00  0.00    +0.000 C 
ATOM     13  C   UNL     1      47.061   4.025  17.480  0.00  0.00    +0.000 C 
ATOM     14  N   UNL     1      46.654   5.063  18.422  0.00  0.00    +0.000 NA
ATOM     15  C   UNL     1      47.765   5.550  19.247  0.00  0.00    +0.000 C 
ATOM     16  H   UNL     1      45.901   4.719  19.019  0.00  0.00    +0.000 HD
ENDBRANCH   8  10
ENDBRANCH   1   4
BRANCH   1  17
ATOM     17  O   UNL     1      48.675   8.850  13.103  0.00  0.00    +0.000 OA
BRANCH  17  21
ATOM     18  C   UNL     1      45.671   6.068  12.860  0.00  0.00    +0.000 A 
ATOM     19  C   UNL     1      45.360   7.424  12.839  0.00  0.00    +0.000 A 
ATOM     20  C   UNL     1      46.397   8.344  12.935  0.00  0.00    +0.000 A 
ATOM     21  C   UNL     1      47.701   7.874  13.046  0.00  0.00    +0.000 A 
ATOM     22  N   UNL     1      48.028   6.562  13.061  0.00  0.00    +0.000 NA
ATOM     23  C   UNL     1      47.001   5.681  12.994  0.00  0.00    +0.000 A 
BRANCH  18  25
ATOM     24  C   UNL     1      44.169   4.622  11.028  0.00  0.00    +0.000 C 
ATOM     25  S   UNL     1      44.414   4.845  12.770  0.00  0.00    +0.000 S 
ATOM     26  O   UNL     1      43.203   5.427  13.318  0.00  0.00    +0.000 OA
ATOM     27  O   UNL     1      44.956   3.614  13.312  0.00  0.00    +0.000 OA
ENDBRANCH  18  25
ENDBRANCH  17  21
ENDBRANCH   1  17
TORSDOF 5
ENDMDL
MODEL 7
REMARK VINA RESULT:    -6.090      3.793      6.117
REMARK INTER + INTRA:          -8.769
REMARK INTER:                  -7.903
REMARK INTRA:                  -0.867
REMARK UNBOUND:                -0.899
REMARK  Name = 
REMARK  6 active torsions:
REMARK  status: ('A' for Active; 'I' for Inactive)
REMARK    1  A    between atoms: C_1  and  S_2
REMARK    2  A    between atoms: S_2  and  C_5
REMARK    3  A    between atoms: C_8  and  O_9
REMARK    4  A    between atoms: O_9  and  C_10
REMARK    5  A    between atoms: C_10  and  C_11
REMARK    6  A    between atoms: C_15  and  C_16
REMARK                            x       y       z     vdW  Elec       q    Type
REMARK                         _______ _______ _______ _____ _____    ______ ____
ROOT
ATOM      1  C   UNL     1      47.832   4.305  16.551  0.00  0.00    +0.000 C 
ATOM      2  C   UNL     1      48.461   3.018  17.078  0.00  0.00    +0.000 C 
ATOM      3  C   UNL     1      46.974   3.147  17.009  0.00  0.00    +0.000 C 
ENDROOT
BRANCH   1   4
ATOM      4  C   UNL     1      47.980   5.550  17.409  0.00  0.00    +0.000 A 
ATOM      5  C   UNL     1      47.237   5.682  18.593  0.00  0.00    +0.000 A 
ATOM      6  C   UNL     1      47.362   6.803  19.405  0.00  0.00    +0.000 A 
ATOM      7  C   UNL     1      48.248   7.818  19.057  0.00  0.00    +0.000 A 
ATOM      8  C   UNL     1      49.035   7.733  17.902  0.00  0.00    +0.000 A 
ATOM      9  C   UNL     1      48.875   6.595  17.086  0.00  0.00    +0.000 A 
BRANCH   8  10
ATOM     10  C   UNL     1      50.106   8.768  17.554  0.00  0.00    +0.000 C 
ATOM     11  C   UNL     1      49.638  10.189  17.915  0.00  0.00    +0.000 C 
ATOM     12  C   UNL     1      48.633  10.727  16.897  0.00  0.00    +0.000 C 
ATOM     13  C   UNL     1      49.147  10.614  15.460  0.00  0.00    +0.000 C 
ATOM     14  N   UNL     1      49.642   9.283  15.117  0.00  0.00    +0.000 NA
ATOM     15  C   UNL     1      50.612   8.769  16.090  0.00  0.00    +0.000 C 
ATOM     16  H   UNL     1      50.054   9.291  14.184  0.00  0.00    +0.000 HD
ENDBRANCH   8  10
ENDBRANCH   1   4
BRANCH   1  17
ATOM     17  O   UNL     1      48.113   4.439  15.136  0.00  0.00    +0.000 OA
BRANCH  17  21
ATOM     18  C   UNL     1      44.981   4.288  12.491  0.00  0.00    +0.000 A 
ATOM     19  C   UNL     1      45.295   5.489  13.122  0.00  0.00    +0.000 A 
ATOM     20  C   UNL     1      46.354   5.507  14.022  0.00  0.00    +0.000 A 
ATOM     21  C   UNL     1      47.055   4.329  14.255  0.00  0.00    +0.000 A 
ATOM     22  N   UNL     1      46.774   3.154  13.649  0.00  0.00    +0.000 NA
ATOM     23  C   UNL     1      45.721   3.150  12.796  0.00  0.00    +0.000 A 
BRANCH  18  25
ATOM     24  C   UNL     1      42.481   5.374  11.968  0.00  0.00    +0.000 C 
ATOM     25  S   UNL     1      43.641   4.179  11.361  0.00  0.00    +0.000 S 
ATOM     26  O   UNL     1      43.048   2.864  11.518  0.00  0.00    +0.000 OA
ATOM     27  O   UNL     1      44.117   4.627  10.067  0.00  0.00    +0.000 OA
ENDBRANCH  18  25
ENDBRANCH  17  21
ENDBRANCH   1  17
TORSDOF 5
ENDMDL
MODEL 8
REMARK VINA RESULT:    -5.905      4.786      8.588
REMARK INTER + INTRA:          -8.530
REMARK INTER:                  -7.545
REMARK INTRA:                  -0.984
REMARK UNBOUND:                -0.899
REMARK  Name = 
REMARK  6 active torsions:
REMARK  status: ('A' for Active; 'I' for Inactive)
REMARK    1  A    between atoms: C_1  and  S_2
REMARK    2  A    between atoms: S_2  and  C_5
REMARK    3  A    between atoms: C_8  and  O_9
REMARK    4  A    between atoms: O_9  and  C_10
REMARK    5  A    between atoms: C_10  and  C_11
REMARK    6  A    between atoms: C_15  and  C_16
REMARK                            x       y       z     vdW  Elec       q    Type
REMARK                         _______ _______ _______ _____ _____    ______ ____
ROOT
ATOM      1  C   UNL     1      48.920   7.869  12.656  0.00  0.00    +0.000 C 
ATOM      2  C   UNL     1      49.911   8.068  11.512  0.00  0.00    +0.000 C 
ATOM      3  C   UNL     1      49.730   9.141  12.535  0.00  0.00    +0.000 C 
ENDROOT
BRANCH   1   4
ATOM      4  C   UNL     1      47.444   7.851  12.297  0.00  0.00    +0.000 A 
ATOM      5  C   UNL     1      46.701   9.042  12.306  0.00  0.00    +0.000 A 
ATOM      6  C   UNL     1      45.353   9.058  11.969  0.00  0.00    +0.000 A 
ATOM      7  C   UNL     1      44.715   7.878  11.602  0.00  0.00    +0.000 A 
ATOM      8  C   UNL     1      45.407   6.662  11.550  0.00  0.00    +0.000 A 
ATOM      9  C   UNL     1      46.769   6.670  11.914  0.00  0.00    +0.000 A 
BRANCH   8  10
ATOM     10  C   UNL     1      44.771   5.371  11.032  0.00  0.00    +0.000 C 
ATOM     11  C   UNL     1      43.236   5.431  11.137  0.00  0.00    +0.000 C 
ATOM     12  C   UNL     1      42.761   5.218  12.573  0.00  0.00    +0.000 C 
ATOM     13  C   UNL     1      43.353   3.953  13.198  0.00  0.00    +0.000 C 
ATOM     14  N   UNL     1      44.804   3.856  13.063  0.00  0.00    +0.000 NA
ATOM     15  C   UNL     1      45.261   4.053  11.683  0.00  0.00    +0.000 C 
ATOM     16  H   UNL     1      45.129   2.955  13.413  0.00  0.00    +0.000 HD
ENDBRANCH   8  10
ENDBRANCH   1   4
BRANCH   1  17
ATOM     17  O   UNL     1      49.400   6.826  13.539  0.00  0.00    +0.000 OA
BRANCH  17  21
ATOM     18  C   UNL     1      48.508   6.963  17.540  0.00  0.00    +0.000 A 
ATOM     19  C   UNL     1      48.139   5.851  16.788  0.00  0.00    +0.000 A 
ATOM     20  C   UNL     1      48.444   5.838  15.432  0.00  0.00    +0.000 A 
ATOM     21  C   UNL     1      49.104   6.932  14.884  0.00  0.00    +0.000 A 
ATOM     22  N   UNL     1      49.479   8.018  15.595  0.00  0.00    +0.000 NA
ATOM     23  C   UNL     1      49.148   8.024  16.909  0.00  0.00    +0.000 A 
BRANCH  18  25
ATOM     24  C   UNL     1      47.377   8.659  19.423  0.00  0.00    +0.000 C 
ATOM     25  S   UNL     1      48.134   7.065  19.254  0.00  0.00    +0.000 S 
ATOM     26  O   UNL     1      49.395   7.094  19.971  0.00  0.00    +0.000 OA
ATOM     27  O   UNL     1      47.136   6.056  19.549  0.00  0.00    +0.000 OA
ENDBRANCH  18  25
ENDBRANCH  17  21
ENDBRANCH   1  17
TORSDOF 5
ENDMDL
MODEL 9
REMARK VINA RESULT:    -5.579      3.558      6.281
REMARK INTER + INTRA:          -8.108
REMARK INTER:                  -7.157
REMARK INTRA:                  -0.951
REMARK UNBOUND:                -0.899
REMARK  Name = 
REMARK  6 active torsions:
REMARK  status: ('A' for Active; 'I' for Inactive)
REMARK    1  A    between atoms: C_1  and  S_2
REMARK    2  A    between atoms: S_2  and  C_5
REMARK    3  A    between atoms: C_8  and  O_9
REMARK    4  A    between atoms: O_9  and  C_10
REMARK    5  A    between atoms: C_10  and  C_11
REMARK    6  A    between atoms: C_15  and  C_16
REMARK                            x       y       z     vdW  Elec       q    Type
REMARK                         _______ _______ _______ _____ _____    ______ ____
ROOT
ATOM      1  C   UNL     1      48.784   7.851  13.758  0.00  0.00    +0.000 C 
ATOM      2  C   UNL     1      49.149   8.065  15.225  0.00  0.00    +0.000 C 
ATOM      3  C   UNL     1      47.799   8.467  14.727  0.00  0.00    +0.000 C 
ENDROOT
BRANCH   1   4
ATOM      4  C   UNL     1      49.506   8.708  12.733  0.00  0.00    +0.000 A 
ATOM      5  C   UNL     1      50.525   8.153  11.942  0.00  0.00    +0.000 A 
ATOM      6  C   UNL     1      51.194   8.910  10.988  0.00  0.00    +0.000 A 
ATOM      7  C   UNL     1      50.849  10.243  10.791  0.00  0.00    +0.000 A 
ATOM      8  C   UNL     1      49.825  10.847  11.530  0.00  0.00    +0.000 A 
ATOM      9  C   UNL     1      49.175  10.063  12.505  0.00  0.00    +0.000 A 
BRANCH   8  10
ATOM     10  C   UNL     1      49.336  12.269  11.255  0.00  0.00    +0.000 C 
ATOM     11  C   UNL     1      47.852  12.425  11.633  0.00  0.00    +0.000 C 
ATOM     12  C   UNL     1      46.935  11.792  10.587  0.00  0.00    +0.000 C 
ATOM     13  C   UNL     1      47.247  12.282   9.171  0.00  0.00    +0.000 C 
ATOM     14  N   UNL     1      48.659  12.188   8.815  0.00  0.00    +0.000 NA
ATOM     15  C   UNL     1      49.540  12.802   9.815  0.00  0.00    +0.000 C 
ATOM     16  H   UNL     1      48.820  12.611   7.902  0.00  0.00    +0.000 HD
ENDBRANCH   8  10
ENDBRANCH   1   4
BRANCH   1  17
ATOM     17  O   UNL     1      48.687   6.432  13.484  0.00  0.00    +0.000 OA
BRANCH  17  21
ATOM     18  C   UNL     1      45.170   5.053  11.885  0.00  0.00    +0.000 A 
ATOM     19  C   UNL     1      45.883   6.052  11.228  0.00  0.00    +0.000 A 
ATOM     20  C   UNL     1      47.065   6.508  11.799  0.00  0.00    +0.000 A 
ATOM     21  C   UNL     1      47.487   5.948  13.000  0.00  0.00    +0.000 A 
ATOM     22  N   UNL     1      46.817   4.972  13.652  0.00  0.00    +0.000 NA
ATOM     23  C   UNL     1      45.653   4.561  13.093  0.00  0.00    +0.000 A 
BRANCH  18  25
ATOM     24  C   UNL     1      42.458   5.633  11.783  0.00  0.00    +0.000 C 
ATOM     25  S   UNL     1      43.655   4.443  11.239  0.00  0.00    +0.000 S 
ATOM     26  O   UNL     1      43.371   3.189  11.911  0.00  0.00    +0.000 OA
ATOM     27  O   UNL     1      43.733   4.508   9.793  0.00  0.00    +0.000 OA
ENDBRANCH  18  25
ENDBRANCH  17  21
ENDBRANCH   1  17
TORSDOF 5
ENDMDL
