MODEL 1
REMARK VINA RESULT:    -8.180      0.000      0.000
REMARK INTER + INTRA:         -12.183
REMARK INTER:                 -11.049
REMARK INTRA:                  -1.134
REMARK UNBOUND:                -1.134
REMARK  Name = 
REMARK  7 active torsions:
REMARK  status: ('A' for Active; 'I' for Inactive)
REMARK    1  A    between atoms: C_1  and  C_2
REMARK    2  A    between atoms: C_2  and  N_3
REMARK    3  A    between atoms: C_2  and  C_16
REMARK    4  A    between atoms: C_4  and  C_6
REMARK    5  A    between atoms: C_19  and  C_20
REMARK    6  A    between atoms: C_20  and  N_21
REMARK    7  A    between atoms: C_22  and  C_24
REMARK                            x       y       z     vdW  Elec       q    Type
REMARK                         _______ _______ _______ _____ _____    ______ ____
ROOT
ATOM      1  C   UNL     1      47.347   8.951  13.407  0.00  0.00    +0.000 C 
ATOM      2  C   UNL     1      47.844   7.544  13.772  0.00  0.00    +0.000 C 
ENDROOT
BRANCH   2   3
ATOM      3  C   UNL     1      46.904   6.492  13.196  0.00  0.00    +0.000 A 
ATOM      4  C   UNL     1      47.024   5.148  13.574  0.00  0.00    +0.000 A 
ATOM      5  C   UNL     1      46.214   4.165  12.990  0.00  0.00    +0.000 A 
ATOM      6  C   UNL     1      45.271   4.502  12.011  0.00  0.00    +0.000 A 
ATOM      7  C   UNL     1      45.107   5.852  11.677  0.00  0.00    +0.000 A 
ATOM      8  C   UNL     1      45.914   6.834  12.261  0.00  0.00    +0.000 A 
BRANCH   6   9
ATOM      9  C   UNL     1      44.481   3.438  11.298  0.00  0.00    +0.000 C 
BRANCH   9  10
ATOM     10  N   UNL     1      45.216   2.786  10.247  0.00  0.00    +0.000 N 
ATOM     11  C   UNL     1      45.156   3.254   8.950  0.00  0.00    +0.000 C 
ATOM     12  O   UNL     1      44.489   4.227   8.613  0.00  0.00    +0.000 OA
ATOM     13  H   UNL     1      45.841   2.009  10.441  0.00  0.00    +0.000 HD
BRANCH  11  14
ATOM     14  C   UNL     1      45.967   2.487   7.951  0.00  0.00    +0.000 A 
ATOM     15  C   UNL     1      46.362   3.104   6.768  0.00  0.00    +0.000 A 
ATOM     16  C   UNL     1      47.093   2.361   5.847  0.00  0.00    +0.000 A 
ATOM     17  C   UNL     1      47.401   1.036   6.137  0.00  0.00    +0.000 A 
ATOM     18  C   UNL     1      46.967   0.503   7.344  0.00  0.00    +0.000 A 
ATOM     19  N   UNL     1      46.261   1.193   8.266  0.00  0.00    +0.000 NA
ENDBRANCH  11  14
ENDBRANCH   9  10
ENDBRANCH   6   9
ENDBRANCH   2   3
BRANCH   2  20
ATOM     20  N   UNL     1      47.981   7.353  15.207  0.00  0.00    +0.000 N 
ATOM     21  C   UNL     1      49.162   6.965  15.793  0.00  0.00    +0.000 C 
ATOM     22  O   UNL     1      50.200   6.813  15.158  0.00  0.00    +0.000 OA
ATOM     23  H   UNL     1      47.120   7.166  15.713  0.00  0.00    +0.000 HD
BRANCH  21  24
ATOM     24  C   UNL     1      49.145   6.802  17.250  0.00  0.00    +0.000 A 
ATOM     25  C   UNL     1      49.357   7.905  18.067  0.00  0.00    +0.000 A 
ATOM     26  S   UNL     1      49.300   7.543  19.732  0.00  0.00    +0.000 S 
ATOM     27  C   UNL     1      49.035   5.892  19.418  0.00  0.00    +0.000 A 
ATOM     28  N   UNL     1      48.933   4.995  20.435  0.00  0.00    +0.000 NA
ATOM     29  C   UNL     1      48.769   3.772  20.051  0.00  0.00    +0.000 A 
ATOM     30  N   UNL     1      48.684   3.368  18.744  0.00  0.00    +0.000 N 
ATOM     31  C   UNL     1      48.742   4.244  17.686  0.00  0.00    +0.000 A 
ATOM     32  O   UNL     1      48.598   3.864  16.529  0.00  0.00    +0.000 OA
ATOM     33  C   UNL     1      48.958   5.627  18.064  0.00  0.00    +0.000 A 
ATOM     34  H   UNL     1      48.538   2.397  18.511  0.00  0.00    +0.000 HD
ENDBRANCH  21  24
ENDBRANCH   2  20
TORSDOF 6
ENDMDL
MODEL 2
REMARK VINA RESULT:    -8.178      3.509      6.544
REMARK INTER + INTRA:         -12.180
REMARK INTER:                 -11.053
REMARK INTRA:                  -1.127
REMARK UNBOUND:                -1.134
REMARK  Name = 
REMARK  7 active torsions:
REMARK  status: ('A' for Active; 'I' for Inactive)
REMARK    1  A    between atoms: C_1  and  C_2
REMARK    2  A    between atoms: C_2  and  N_3
REMARK    3  A    between atoms: C_2  and  C_16
REMARK    4  A    between atoms: C_4  and  C_6
REMARK    5  A    between atoms: C_19  and  C_20
REMARK    6  A    between atoms: C_20  and  N_21
REMARK    7  A    between atoms: C_22  and  C_24
REMARK                            x       y       z     vdW  Elec       q    Type
REMARK                         _______ _______ _______ _____ _____    ______ ____
ROOT
ATOM      1  C   UNL     1      43.964   2.617  10.935  0.00  0.00    +0.000 C 
ATOM      2  C   UNL     1      44.304   3.731   9.934  0.00  0.00    +0.000 C 
ENDROOT
BRANCH   2   3
ATOM      3  C   UNL     1      45.249   3.202   8.862  0.00  0.00    +0.000 A 
ATOM      4  C   UNL     1      45.829   4.074   7.932  0.00  0.00    +0.000 A 
ATOM      5  C   UNL     1      46.637   3.582   6.898  0.00  0.00    +0.000 A 
ATOM      6  C   UNL     1      46.878   2.209   6.767  0.00  0.00    +0.000 A 
ATOM      7  C   UNL     1      46.350   1.342   7.731  0.00  0.00    +0.000 A 
ATOM      8  C   UNL     1      45.545   1.833   8.765  0.00  0.00    +0.000 A 
BRANCH   6   9
ATOM      9  C   UNL     1      47.647   1.666   5.593  0.00  0.00    +0.000 C 
BRANCH   9  10
ATOM     10  N   UNL     1      47.339   0.294   5.290  0.00  0.00    +0.000 N 
ATOM     11  C   UNL     1      47.036  -0.092   4.000  0.00  0.00    +0.000 C 
ATOM     12  O   UNL     1      47.008   0.685   3.051  0.00  0.00    +0.000 OA
ATOM     13  H   UNL     1      47.395  -0.430   6.000  0.00  0.00    +0.000 HD
BRANCH  11  14
ATOM     14  C   UNL     1      46.734  -1.548   3.819  0.00  0.00    +0.000 A 
ATOM     15  C   UNL     1      46.662  -2.378   4.933  0.00  0.00    +0.000 A 
ATOM     16  C   UNL     1      46.404  -3.730   4.735  0.00  0.00    +0.000 A 
ATOM     17  C   UNL     1      46.229  -4.204   3.439  0.00  0.00    +0.000 A 
ATOM     18  C   UNL     1      46.315  -3.302   2.386  0.00  0.00    +0.000 A 
ATOM     19  N   UNL     1      46.558  -1.982   2.538  0.00  0.00    +0.000 NA
ENDBRANCH  11  14
ENDBRANCH   9  10
ENDBRANCH   6   9
ENDBRANCH   2   3
BRANCH   2  20
ATOM     20  N   UNL     1      44.887   4.900  10.574  0.00  0.00    +0.000 N 
ATOM     21  C   UNL     1      44.124   5.874  11.175  0.00  0.00    +0.000 C 
ATOM     22  O   UNL     1      42.904   5.797  11.270  0.00  0.00    +0.000 OA
ATOM     23  H   UNL     1      45.819   5.157  10.261  0.00  0.00    +0.000 HD
BRANCH  21  24
ATOM     24  C   UNL     1      44.852   6.999  11.769  0.00  0.00    +0.000 A 
ATOM     25  C   UNL     1      44.548   8.296  11.380  0.00  0.00    +0.000 A 
ATOM     26  S   UNL     1      45.482   9.484  12.169  0.00  0.00    +0.000 S 
ATOM     27  C   UNL     1      46.358   8.302  13.024  0.00  0.00    +0.000 A 
ATOM     28  N   UNL     1      47.366   8.652  13.868  0.00  0.00    +0.000 NA
ATOM     29  C   UNL     1      47.968   7.653  14.422  0.00  0.00    +0.000 A 
ATOM     30  N   UNL     1      47.644   6.335  14.219  0.00  0.00    +0.000 N 
ATOM     31  C   UNL     1      46.607   5.937  13.409  0.00  0.00    +0.000 A 
ATOM     32  O   UNL     1      46.297   4.756  13.297  0.00  0.00    +0.000 OA
ATOM     33  C   UNL     1      45.921   7.023  12.737  0.00  0.00    +0.000 A 
ATOM     34  H   UNL     1      48.143   5.601  14.697  0.00  0.00    +0.000 HD
ENDBRANCH  21  24
ENDBRANCH   2  20
TORSDOF 6
ENDMDL
MODEL 3
REMARK VINA RESULT:    -7.788      1.600      2.161
REMARK INTER + INTRA:         -11.654
REMARK INTER:                 -10.457
REMARK INTRA:                  -1.197
REMARK UNBOUND:                -1.134
REMARK  Name = 
REMARK  7 active torsions:
REMARK  status: ('A' for Active; 'I' for Inactive)
REMARK    1  A    between atoms: C_1  and  C_2
REMARK    2  A    between atoms: C_2  and  N_3
REMARK    3  A    between atoms: C_2  and  C_16
REMARK    4  A    between atoms: C_4  and  C_6
REMARK    5  A    between atoms: C_19  and  C_20
REMARK    6  A    between atoms: C_20  and  N_21
REMARK    7  A    between atoms: C_22  and  C_24
REMARK                            x       y       z     vdW  Elec       q    Type
REMARK                         _______ _______ _______ _____ _____    ______ ____
ROOT
ATOM      1  C   UNL     1      47.972   9.324  14.123  0.00  0.00    +0.000 C 
ATOM      2  C   UNL     1      48.128   7.796  14.154  0.00  0.00    +0.000 C 
ENDROOT
BRANCH   2   3
ATOM      3  C   UNL     1      47.081   7.145  13.258  0.00  0.00    +0.000 A 
ATOM      4  C   UNL     1      47.064   5.756  13.077  0.00  0.00    +0.000 A 
ATOM      5  C   UNL     1      46.153   5.160  12.195  0.00  0.00    +0.000 A 
ATOM      6  C   UNL     1      45.244   5.940  11.468  0.00  0.00    +0.000 A 
ATOM      7  C   UNL     1      45.219   7.321  11.692  0.00  0.00    +0.000 A 
ATOM      8  C   UNL     1      46.126   7.916  12.575  0.00  0.00    +0.000 A 
BRANCH   6   9
ATOM      9  C   UNL     1      44.345   5.317  10.433  0.00  0.00    +0.000 C 
BRANCH   9  10
ATOM     10  N   UNL     1      45.060   4.638   9.387  0.00  0.00    +0.000 N 
ATOM     11  C   UNL     1      45.078   3.259   9.325  0.00  0.00    +0.000 C 
ATOM     12  O   UNL     1      44.505   2.539  10.137  0.00  0.00    +0.000 OA
ATOM     13  H   UNL     1      45.515   5.150   8.637  0.00  0.00    +0.000 HD
BRANCH  11  14
ATOM     14  C   UNL     1      45.859   2.676   8.187  0.00  0.00    +0.000 A 
ATOM     15  C   UNL     1      46.119   3.454   7.063  0.00  0.00    +0.000 A 
ATOM     16  C   UNL     1      46.825   2.880   6.011  0.00  0.00    +0.000 A 
ATOM     17  C   UNL     1      47.242   1.557   6.116  0.00  0.00    +0.000 A 
ATOM     18  C   UNL     1      46.940   0.857   7.277  0.00  0.00    +0.000 A 
ATOM     19  N   UNL     1      46.262   1.380   8.323  0.00  0.00    +0.000 NA
ENDBRANCH  11  14
ENDBRANCH   9  10
ENDBRANCH   6   9
ENDBRANCH   2   3
BRANCH   2  20
ATOM     20  N   UNL     1      48.034   7.251  15.499  0.00  0.00    +0.000 N 
ATOM     21  C   UNL     1      49.082   6.603  16.110  0.00  0.00    +0.000 C 
ATOM     22  O   UNL     1      50.188   6.493  15.591  0.00  0.00    +0.000 OA
ATOM     23  H   UNL     1      47.096   7.046  15.829  0.00  0.00    +0.000 HD
BRANCH  21  24
ATOM     24  C   UNL     1      48.836   6.097  17.464  0.00  0.00    +0.000 A 
ATOM     25  C   UNL     1      49.052   4.755  17.746  0.00  0.00    +0.000 A 
ATOM     26  S   UNL     1      48.723   4.335  19.365  0.00  0.00    +0.000 S 
ATOM     27  C   UNL     1      48.236   5.923  19.734  0.00  0.00    +0.000 A 
ATOM     28  N   UNL     1      47.783   6.245  20.975  0.00  0.00    +0.000 NA
ATOM     29  C   UNL     1      47.413   7.477  21.103  0.00  0.00    +0.000 A 
ATOM     30  N   UNL     1      47.469   8.417  20.107  0.00  0.00    +0.000 N 
ATOM     31  C   UNL     1      47.957   8.147  18.851  0.00  0.00    +0.000 A 
ATOM     32  O   UNL     1      48.057   9.023  17.998  0.00  0.00    +0.000 OA
ATOM     33  C   UNL     1      48.355   6.768  18.646  0.00  0.00    +0.000 A 
ATOM     34  H   UNL     1      47.181   9.369  20.278  0.00  0.00    +0.000 HD
ENDBRANCH  21  24
ENDBRANCH   2  20
TORSDOF 6
ENDMDL
MODEL 4
REMARK VINA RESULT:    -7.642      2.642      4.436
REMARK INTER + INTRA:         -11.457
REMARK INTER:                 -10.134
REMARK INTRA:                  -1.322
REMARK UNBOUND:                -1.134
REMARK  Name = 
REMARK  7 active torsions:
REMARK  status: ('A' for Active; 'I' for Inactive)
REMARK    1  A    between atoms: C_1  and  C_2
REMARK    2  A    between atoms: C_2  and  N_3
REMARK    3  A    between atoms: C_2  and  C_16
REMARK    4  A    between atoms: C_4  and  C_6
REMARK    5  A    between atoms: C_19  and  C_20
REMARK    6  A    between atoms: C_20  and  N_21
REMARK    7  A    between atoms: C_22  and  C_24
REMARK                            x       y       z     vdW  Elec       q    Type
REMARK                         _______ _______ _______ _____ _____    ______ ____
ROOT
ATOM      1  C   UNL     1      47.429   3.883  15.607  0.00  0.00    +0.000 C 
ATOM      2  C   UNL     1      47.131   5.218  14.908  0.00  0.00    +0.000 C 
ENDROOT
BRANCH   2   3
ATOM      3  C   UNL     1      46.228   4.986  13.702  0.00  0.00    +0.000 A 
ATOM      4  C   UNL     1      46.030   3.694  13.198  0.00  0.00    +0.000 A 
ATOM      5  C   UNL     1      45.263   3.485  12.044  0.00  0.00    +0.000 A 
ATOM      6  C   UNL     1      44.682   4.564  11.364  0.00  0.00    +0.000 A 
ATOM      7  C   UNL     1      44.827   5.848  11.900  0.00  0.00    +0.000 A 
ATOM      8  C   UNL     1      45.591   6.057  13.054  0.00  0.00    +0.000 A 
BRANCH   6   9
ATOM      9  C   UNL     1      43.956   4.357  10.062  0.00  0.00    +0.000 C 
BRANCH   9  10
ATOM     10  N   UNL     1      44.639   3.468   9.161  0.00  0.00    +0.000 N 
ATOM     11  C   UNL     1      45.645   3.933   8.338  0.00  0.00    +0.000 C 
ATOM     12  O   UNL     1      46.013   5.104   8.316  0.00  0.00    +0.000 OA
ATOM     13  H   UNL     1      44.443   2.471   9.150  0.00  0.00    +0.000 HD
BRANCH  11  14
ATOM     14  C   UNL     1      46.275   2.906   7.447  0.00  0.00    +0.000 A 
ATOM     15  C   UNL     1      46.512   1.626   7.937  0.00  0.00    +0.000 A 
ATOM     16  C   UNL     1      47.120   0.699   7.097  0.00  0.00    +0.000 A 
ATOM     17  C   UNL     1      47.469   1.081   5.806  0.00  0.00    +0.000 A 
ATOM     18  C   UNL     1      47.192   2.380   5.401  0.00  0.00    +0.000 A 
ATOM     19  N   UNL     1      46.597   3.307   6.184  0.00  0.00    +0.000 NA
ENDBRANCH  11  14
ENDBRANCH   9  10
ENDBRANCH   6   9
ENDBRANCH   2   3
BRANCH   2  20
ATOM     20  N   UNL     1      48.338   5.915  14.494  0.00  0.00    +0.000 N 
ATOM     21  C   UNL     1      48.962   6.848  15.288  0.00  0.00    +0.000 C 
ATOM     22  O   UNL     1      48.585   7.114  16.424  0.00  0.00    +0.000 OA
ATOM     23  H   UNL     1      48.500   5.964  13.492  0.00  0.00    +0.000 HD
BRANCH  21  24
ATOM     24  C   UNL     1      50.165   7.477  14.732  0.00  0.00    +0.000 A 
ATOM     25  C   UNL     1      51.351   7.449  15.454  0.00  0.00    +0.000 A 
ATOM     26  S   UNL     1      52.650   8.219  14.664  0.00  0.00    +0.000 S 
ATOM     27  C   UNL     1      51.662   8.657  13.351  0.00  0.00    +0.000 A 
ATOM     28  N   UNL     1      52.156   9.389  12.317  0.00  0.00    +0.000 NA
ATOM     29  C   UNL     1      51.287   9.680  11.407  0.00  0.00    +0.000 A 
ATOM     30  N   UNL     1      49.971   9.292  11.430  0.00  0.00    +0.000 N 
ATOM     31  C   UNL     1      49.439   8.518  12.433  0.00  0.00    +0.000 A 
ATOM     32  O   UNL     1      48.275   8.131  12.397  0.00  0.00    +0.000 OA
ATOM     33  C   UNL     1      50.368   8.193  13.497  0.00  0.00    +0.000 A 
ATOM     34  H   UNL     1      49.346   9.538  10.678  0.00  0.00    +0.000 HD
ENDBRANCH  21  24
ENDBRANCH   2  20
TORSDOF 6
ENDMDL
MODEL 5
REMARK VINA RESULT:    -7.627      1.624      1.974
REMARK INTER + INTRA:         -11.436
REMARK INTER:                 -10.101
REMARK INTRA:                  -1.335
REMARK UNBOUND:                -1.134
REMARK  Name = 
REMARK  7 active torsions:
REMARK  status: ('A' for Active; 'I' for Inactive)
REMARK    1  A    between atoms: C_1  and  C_2
REMARK    2  A    between atoms: C_2  and  N_3
REMARK    3  A    between atoms: C_2  and  C_16
REMARK    4  A    between atoms: C_4  and  C_6
REMARK    5  A    between atoms: C_19  and  C_20
REMARK    6  A    between atoms: C_20  and  N_21
REMARK    7  A    between atoms: C_22  and  C_24
REMARK                            x       y       z     vdW  Elec       q    Type
REMARK                         _______ _______ _______ _____ _____    ______ ____
ROOT
ATOM      1  C   UNL     1      46.245   9.493  13.408  0.00  0.00    +0.000 C 
ATOM      2  C   UNL     1      47.071   8.219  13.177  0.00  0.00    +0.000 C 
ENDROOT
BRANCH   2   3
ATOM      3  C   UNL     1      46.299   7.247  12.293  0.00  0.00    +0.000 A 
ATOM      4  C   UNL     1      45.084   6.702  12.727  0.00  0.00    +0.000 A 
ATOM      5  C   UNL     1      44.409   5.750  11.951  0.00  0.00    +0.000 A 
ATOM      6  C   UNL     1      44.937   5.315  10.729  0.00  0.00    +0.000 A 
ATOM      7  C   UNL     1      46.120   5.903  10.265  0.00  0.00    +0.000 A 
ATOM      8  C   UNL     1      46.793   6.856  11.037  0.00  0.00    +0.000 A 
BRANCH   6   9
ATOM      9  C   UNL     1      44.277   4.209   9.950  0.00  0.00    +0.000 C 
BRANCH   9  10
ATOM     10  N   UNL     1      45.008   3.822   8.773  0.00  0.00    +0.000 N 
ATOM     11  C   UNL     1      45.480   2.533   8.629  0.00  0.00    +0.000 C 
ATOM     12  O   UNL     1      45.316   1.655   9.470  0.00  0.00    +0.000 OA
ATOM     13  H   UNL     1      45.143   4.464   7.998  0.00  0.00    +0.000 HD
BRANCH  11  14
ATOM     14  C   UNL     1      46.226   2.260   7.358  0.00  0.00    +0.000 A 
ATOM     15  C   UNL     1      46.927   1.066   7.217  0.00  0.00    +0.000 A 
ATOM     16  C   UNL     1      47.630   0.848   6.037  0.00  0.00    +0.000 A 
ATOM     17  C   UNL     1      47.611   1.824   5.046  0.00  0.00    +0.000 A 
ATOM     18  C   UNL     1      46.882   2.984   5.273  0.00  0.00    +0.000 A 
ATOM     19  N   UNL     1      46.181   3.230   6.402  0.00  0.00    +0.000 NA
ENDBRANCH  11  14
ENDBRANCH   9  10
ENDBRANCH   6   9
ENDBRANCH   2   3
BRANCH   2  20
ATOM     20  N   UNL     1      47.450   7.564  14.419  0.00  0.00    +0.000 N 
ATOM     21  C   UNL     1      48.646   6.902  14.573  0.00  0.00    +0.000 C 
ATOM     22  O   UNL     1      49.504   6.870  13.698  0.00  0.00    +0.000 OA
ATOM     23  H   UNL     1      46.684   7.302  15.033  0.00  0.00    +0.000 HD
BRANCH  21  24
ATOM     24  C   UNL     1      48.884   6.281  15.879  0.00  0.00    +0.000 A 
ATOM     25  C   UNL     1      49.861   6.799  16.718  0.00  0.00    +0.000 A 
ATOM     26  S   UNL     1      50.005   5.964  18.198  0.00  0.00    +0.000 S 
ATOM     27  C   UNL     1      48.797   4.853  17.749  0.00  0.00    +0.000 A 
ATOM     28  N   UNL     1      48.454   3.824  18.569  0.00  0.00    +0.000 NA
ATOM     29  C   UNL     1      47.549   3.038  18.087  0.00  0.00    +0.000 A 
ATOM     30  N   UNL     1      46.948   3.196  16.864  0.00  0.00    +0.000 N 
ATOM     31  C   UNL     1      47.235   4.242  16.020  0.00  0.00    +0.000 A 
ATOM     32  O   UNL     1      46.636   4.396  14.961  0.00  0.00    +0.000 OA
ATOM     33  C   UNL     1      48.269   5.136  16.503  0.00  0.00    +0.000 A 
ATOM     34  H   UNL     1      46.234   2.554  16.553  0.00  0.00    +0.000 HD
ENDBRANCH  21  24
ENDBRANCH   2  20
TORSDOF 6
ENDMDL
MODEL 6
REMARK VINA RESULT:    -7.533      4.174      6.741
REMARK INTER + INTRA:         -11.309
REMARK INTER:                 -10.340
REMARK INTRA:                  -0.970
REMARK UNBOUND:                -1.134
REMARK  Name = 
REMARK  7 active torsions:
REMARK  status: ('A' for Active; 'I' for Inactive)
REMARK    1  A    between atoms: C_1  and  C_2
REMARK    2  A    between atoms: C_2  and  N_3
REMARK    3  A    between atoms: C_2  and  C_16
REMARK    4  A    between atoms: C_4  and  C_6
REMARK    5  A    between atoms: C_19  and  C_20
REMARK    6  A    between atoms: C_20  and  N_21
REMARK    7  A    between atoms: C_22  and  C_24
REMARK                            x       y       z     vdW  Elec       q    Type
REMARK                         _______ _______ _______ _____ _____    ______ ____
ROOT
ATOM      1  C   UNL     1      46.542   3.520  13.098  0.00  0.00    +0.000 C 
ATOM      2  C   UNL     1      46.295   4.643  14.117  0.00  0.00    +0.000 C 
ENDROOT
BRANCH   2   3
ATOM      3  C   UNL     1      46.023   5.957  13.393  0.00  0.00    +0.000 A 
ATOM      4  C   UNL     1      46.914   7.031  13.511  0.00  0.00    +0.000 A 
ATOM      5  C   UNL     1      46.631   8.265  12.911  0.00  0.00    +0.000 A 
ATOM      6  C   UNL     1      45.447   8.455  12.185  0.00  0.00    +0.000 A 
ATOM      7  C   UNL     1      44.586   7.365  12.015  0.00  0.00    +0.000 A 
ATOM      8  C   UNL     1      44.870   6.132  12.612  0.00  0.00    +0.000 A 
BRANCH   6   9
ATOM      9  C   UNL     1      45.083   9.809  11.638  0.00  0.00    +0.000 C 
BRANCH   9  10
ATOM     10  N   UNL     1      43.785  10.265  12.056  0.00  0.00    +0.000 N 
ATOM     11  C   UNL     1      42.787  10.495  11.131  0.00  0.00    +0.000 C 
ATOM     12  O   UNL     1      42.934  10.333   9.923  0.00  0.00    +0.000 OA
ATOM     13  H   UNL     1      43.551  10.371  13.039  0.00  0.00    +0.000 HD
BRANCH  11  14
ATOM     14  C   UNL     1      41.482  10.968  11.696  0.00  0.00    +0.000 A 
ATOM     15  C   UNL     1      40.303  10.320  11.337  0.00  0.00    +0.000 A 
ATOM     16  C   UNL     1      39.104  10.795  11.857  0.00  0.00    +0.000 A 
ATOM     17  C   UNL     1      39.122  11.894  12.709  0.00  0.00    +0.000 A 
ATOM     18  C   UNL     1      40.346  12.476  13.015  0.00  0.00    +0.000 A 
ATOM     19  N   UNL     1      41.532  12.040  12.536  0.00  0.00    +0.000 NA
ENDBRANCH  11  14
ENDBRANCH   9  10
ENDBRANCH   6   9
ENDBRANCH   2   3
BRANCH   2  20
ATOM     20  N   UNL     1      47.402   4.810  15.046  0.00  0.00    +0.000 N 
ATOM     21  C   UNL     1      47.425   4.214  16.284  0.00  0.00    +0.000 C 
ATOM     22  O   UNL     1      46.547   3.450  16.671  0.00  0.00    +0.000 OA
ATOM     23  H   UNL     1      47.971   5.641  14.911  0.00  0.00    +0.000 HD
BRANCH  21  24
ATOM     24  C   UNL     1      48.603   4.483  17.115  0.00  0.00    +0.000 A 
ATOM     25  C   UNL     1      48.707   5.694  17.788  0.00  0.00    +0.000 A 
ATOM     26  S   UNL     1      50.133   5.842  18.710  0.00  0.00    +0.000 S 
ATOM     27  C   UNL     1      50.682   4.313  18.206  0.00  0.00    +0.000 A 
ATOM     28  N   UNL     1      51.890   3.836  18.609  0.00  0.00    +0.000 NA
ATOM     29  C   UNL     1      52.194   2.679  18.122  0.00  0.00    +0.000 A 
ATOM     30  N   UNL     1      51.394   1.950  17.279  0.00  0.00    +0.000 N 
ATOM     31  C   UNL     1      50.149   2.374  16.879  0.00  0.00    +0.000 A 
ATOM     32  O   UNL     1      49.427   1.674  16.178  0.00  0.00    +0.000 OA
ATOM     33  C   UNL     1      49.775   3.684  17.374  0.00  0.00    +0.000 A 
ATOM     34  H   UNL     1      51.684   1.043  16.947  0.00  0.00    +0.000 HD
ENDBRANCH  21  24
ENDBRANCH   2  20
TORSDOF 6
ENDMDL
MODEL 7
REMARK VINA RESULT:    -7.199      3.426      5.623
REMARK INTER + INTRA:         -10.858
REMARK INTER:                 -10.165
REMARK INTRA:                  -0.694
REMARK UNBOUND:                -1.134
REMARK  Name = 
REMARK  7 active torsions:
REMARK  status: ('A' for Active; 'I' for Inactive)
REMARK    1  A    between atoms: C_1  and  C_2
REMARK    2  A    between atoms: C_2  and  N_3
REMARK    3  A    between atoms: C_2  and  C_16
REMARK    4  A    between atoms: C_4  and  C_6
REMARK    5  A    between atoms: C_19  and  C_20
REMARK    6  A    between atoms: C_20  and  N_21
REMARK    7  A    between atoms: C_22  and  C_24
REMARK                            x       y       z     vdW  Elec       q    Type
REMARK                         _______ _______ _______ _____ _____    ______ ____
ROOT
ATOM      1  C   UNL     1      48.340   5.847  14.708  0.00  0.00    +0.000 C 
ATOM      2  C   UNL     1      46.970   6.474  14.406  0.00  0.00    +0.000 C 
ENDROOT
BRANCH   2   3
ATOM      3  C   UNL     1      46.129   5.519  13.569  0.00  0.00    +0.000 A 
ATOM      4  C   UNL     1      46.535   4.191  13.382  0.00  0.00    +0.000 A 
ATOM      5  C   UNL     1      45.806   3.330  12.550  0.00  0.00    +0.000 A 
ATOM      6  C   UNL     1      44.659   3.779  11.883  0.00  0.00    +0.000 A 
ATOM      7  C   UNL     1      44.218   5.086  12.117  0.00  0.00    +0.000 A 
ATOM      8  C   UNL     1      44.944   5.945  12.949  0.00  0.00    +0.000 A 
BRANCH   6   9
ATOM      9  C   UNL     1      43.940   2.894  10.899  0.00  0.00    +0.000 C 
BRANCH   9  10
ATOM     10  N   UNL     1      44.788   2.401   9.847  0.00  0.00    +0.000 N 
ATOM     11  C   UNL     1      45.099   3.196   8.762  0.00  0.00    +0.000 C 
ATOM     12  O   UNL     1      44.685   4.342   8.623  0.00  0.00    +0.000 OA
ATOM     13  H   UNL     1      45.225   1.486   9.903  0.00  0.00    +0.000 HD
BRANCH  11  14
ATOM     14  C   UNL     1      45.989   2.564   7.736  0.00  0.00    +0.000 A 
ATOM     15  C   UNL     1      46.298   3.261   6.572  0.00  0.00    +0.000 A 
ATOM     16  C   UNL     1      47.107   2.641   5.626  0.00  0.00    +0.000 A 
ATOM     17  C   UNL     1      47.575   1.355   5.871  0.00  0.00    +0.000 A 
ATOM     18  C   UNL     1      47.218   0.736   7.062  0.00  0.00    +0.000 A 
ATOM     19  N   UNL     1      46.440   1.307   8.009  0.00  0.00    +0.000 NA
ENDBRANCH  11  14
ENDBRANCH   9  10
ENDBRANCH   6   9
ENDBRANCH   2   3
BRANCH   2  20
ATOM     20  N   UNL     1      47.079   7.758  13.731  0.00  0.00    +0.000 N 
ATOM     21  C   UNL     1      47.725   7.909  12.527  0.00  0.00    +0.000 C 
ATOM     22  O   UNL     1      48.201   6.965  11.906  0.00  0.00    +0.000 OA
ATOM     23  H   UNL     1      46.986   8.579  14.323  0.00  0.00    +0.000 HD
BRANCH  21  24
ATOM     24  C   UNL     1      47.763   9.266  11.973  0.00  0.00    +0.000 A 
ATOM     25  C   UNL     1      48.974   9.807  11.562  0.00  0.00    +0.000 A 
ATOM     26  S   UNL     1      48.840  11.388  10.939  0.00  0.00    +0.000 S 
ATOM     27  C   UNL     1      47.166  11.422  11.240  0.00  0.00    +0.000 A 
ATOM     28  N   UNL     1      46.429  12.532  10.968  0.00  0.00    +0.000 NA
ATOM     29  C   UNL     1      45.179  12.431  11.280  0.00  0.00    +0.000 A 
ATOM     30  N   UNL     1      44.598  11.315  11.825  0.00  0.00    +0.000 N 
ATOM     31  C   UNL     1      45.295  10.157  12.078  0.00  0.00    +0.000 A 
ATOM     32  O   UNL     1      44.737   9.152  12.505  0.00  0.00    +0.000 OA
ATOM     33  C   UNL     1      46.710  10.232  11.776  0.00  0.00    +0.000 A 
ATOM     34  H   UNL     1      43.610  11.294  12.029  0.00  0.00    +0.000 HD
ENDBRANCH  21  24
ENDBRANCH   2  20
TORSDOF 6
ENDMDL
MODEL 8
REMARK VINA RESULT:    -7.184      3.781      5.817
REMARK INTER + INTRA:         -10.838
REMARK INTER:                  -9.617
REMARK INTRA:                  -1.221
REMARK UNBOUND:                -1.134
REMARK  Name = 
REMARK  7 active torsions:
REMARK  status: ('A' for Active; 'I' for Inactive)
REMARK    1  A    between atoms: C_1  and  C_2
REMARK    2  A    between atoms: C_2  and  N_3
REMARK    3  A    between atoms: C_2  and  C_16
REMARK    4  A    between atoms: C_4  and  C_6
REMARK    5  A    between atoms: C_19  and  C_20
REMARK    6  A    between atoms: C_20  and  N_21
REMARK    7  A    between atoms: C_22  and  C_24
REMARK                            x       y       z     vdW  Elec       q    Type
REMARK                         _______ _______ _______ _____ _____    ______ ____
ROOT
ATOM      1  C   UNL     1      48.582   7.041  14.680  0.00  0.00    +0.000 C 
ATOM      2  C   UNL     1      47.582   7.699  13.718  0.00  0.00    +0.000 C 
ENDROOT
BRANCH   2   3
ATOM      3  C   UNL     1      46.669   6.642  13.108  0.00  0.00    +0.000 A 
ATOM      4  C   UNL     1      46.691   5.324  13.582  0.00  0.00    +0.000 A 
ATOM      5  C   UNL     1      45.910   4.332  12.974  0.00  0.00    +0.000 A 
ATOM      6  C   UNL     1      45.095   4.634  11.875  0.00  0.00    +0.000 A 
ATOM      7  C   UNL     1      45.025   5.962  11.439  0.00  0.00    +0.000 A 
ATOM      8  C   UNL     1      45.802   6.953  12.047  0.00  0.00    +0.000 A 
BRANCH   6   9
ATOM      9  C   UNL     1      44.345   3.550  11.147  0.00  0.00    +0.000 C 
BRANCH   9  10
ATOM     10  N   UNL     1      45.129   2.890  10.137  0.00  0.00    +0.000 N 
ATOM     11  C   UNL     1      45.070   3.298   8.820  0.00  0.00    +0.000 C 
ATOM     12  O   UNL     1      44.363   4.223   8.430  0.00  0.00    +0.000 OA
ATOM     13  H   UNL     1      45.787   2.154  10.375  0.00  0.00    +0.000 HD
BRANCH  11  14
ATOM     14  C   UNL     1      45.934   2.528   7.868  0.00  0.00    +0.000 A 
ATOM     15  C   UNL     1      46.345   3.123   6.679  0.00  0.00    +0.000 A 
ATOM     16  C   UNL     1      47.127   2.378   5.803  0.00  0.00    +0.000 A 
ATOM     17  C   UNL     1      47.467   1.072   6.142  0.00  0.00    +0.000 A 
ATOM     18  C   UNL     1      47.015   0.561   7.351  0.00  0.00    +0.000 A 
ATOM     19  N   UNL     1      46.260   1.255   8.231  0.00  0.00    +0.000 NA
ENDBRANCH  11  14
ENDBRANCH   9  10
ENDBRANCH   6   9
ENDBRANCH   2   3
BRANCH   2  20
ATOM     20  N   UNL     1      48.235   8.456  12.662  0.00  0.00    +0.000 N 
ATOM     21  C   UNL     1      48.561   9.785  12.796  0.00  0.00    +0.000 C 
ATOM     22  O   UNL     1      48.381  10.411  13.835  0.00  0.00    +0.000 OA
ATOM     23  H   UNL     1      48.123   8.091  11.720  0.00  0.00    +0.000 HD
BRANCH  21  24
ATOM     24  C   UNL     1      49.207  10.418  11.642  0.00  0.00    +0.000 A 
ATOM     25  C   UNL     1      48.547  11.428  10.954  0.00  0.00    +0.000 A 
ATOM     26  S   UNL     1      49.439  12.058   9.644  0.00  0.00    +0.000 S 
ATOM     27  C   UNL     1      50.718  10.972   9.924  0.00  0.00    +0.000 A 
ATOM     28  N   UNL     1      51.809  10.952   9.112  0.00  0.00    +0.000 NA
ATOM     29  C   UNL     1      52.685  10.054   9.420  0.00  0.00    +0.000 A 
ATOM     30  N   UNL     1      52.575   9.183  10.474  0.00  0.00    +0.000 N 
ATOM     31  C   UNL     1      51.511   9.194  11.343  0.00  0.00    +0.000 A 
ATOM     32  O   UNL     1      51.468   8.448  12.316  0.00  0.00    +0.000 OA
ATOM     33  C   UNL     1      50.483  10.164  11.021  0.00  0.00    +0.000 A 
ATOM     34  H   UNL     1      53.305   8.515  10.670  0.00  0.00    +0.000 HD
ENDBRANCH  21  24
ENDBRANCH   2  20
TORSDOF 6
ENDMDL
MODEL 9
REMARK VINA RESULT:    -7.101      3.704      8.838
REMARK INTER + INTRA:         -10.725
REMARK INTER:                  -9.623
REMARK INTRA:                  -1.102
REMARK UNBOUND:                -1.134
REMARK  Name = 
REMARK  7 active torsions:
REMARK  status: ('A' for Active; 'I' for Inactive)
REMARK    1  A    between atoms: C_1  and  C_2
REMARK    2  A    between atoms: C_2  and  N_3
REMARK    3  A    between atoms: C_2  and  C_16
REMARK    4  A    between atoms: C_4  and  C_6
REMARK    5  A    between atoms: C_19  and  C_20
REMARK    6  A    between atoms: C_20  and  N_21
REMARK    7  A    between atoms: C_22  and  C_24
REMARK                            x       y       z     vdW  Elec       q    Type
REMARK                         _______ _______ _______ _____ _____    ______ ____
ROOT
ATOM      1  C   UNL     1      49.564   8.334  11.499  0.00  0.00    +0.000 C 
ATOM      2  C   UNL     1      48.409   7.825  12.375  0.00  0.00    +0.000 C 
ENDROOT
BRANCH   2   3
ATOM      3  C   UNL     1      48.943   7.342  13.718  0.00  0.00    +0.000 A 
ATOM      4  C   UNL     1      48.165   6.511  14.536  0.00  0.00    +0.000 A 
ATOM      5  C   UNL     1      48.620   6.128  15.804  0.00  0.00    +0.000 A 
ATOM      6  C   UNL     1      49.859   6.571  16.286  0.00  0.00    +0.000 A 
ATOM      7  C   UNL     1      50.663   7.350  15.447  0.00  0.00    +0.000 A 
ATOM      8  C   UNL     1      50.211   7.731  14.179  0.00  0.00    +0.000 A 
BRANCH   6   9
ATOM      9  C   UNL     1      50.299   6.257  17.691  0.00  0.00    +0.000 C 
BRANCH   9  10
ATOM     10  N   UNL     1      51.267   5.196  17.765  0.00  0.00    +0.000 N 
ATOM     11  C   UNL     1      50.863   3.878  17.842  0.00  0.00    +0.000 C 
ATOM     12  O   UNL     1      49.686   3.531  17.854  0.00  0.00    +0.000 OA
ATOM     13  H   UNL     1      52.263   5.381  17.701  0.00  0.00    +0.000 HD
BRANCH  11  14
ATOM     14  C   UNL     1      51.968   2.869  17.914  0.00  0.00    +0.000 A 
ATOM     15  C   UNL     1      51.735   1.564  17.490  0.00  0.00    +0.000 A 
ATOM     16  C   UNL     1      52.772   0.642  17.590  0.00  0.00    +0.000 A 
ATOM     17  C   UNL     1      53.996   1.052  18.109  0.00  0.00    +0.000 A 
ATOM     18  C   UNL     1      54.139   2.375  18.504  0.00  0.00    +0.000 A 
ATOM     19  N   UNL     1      53.159   3.302  18.417  0.00  0.00    +0.000 NA
ENDBRANCH  11  14
ENDBRANCH   9  10
ENDBRANCH   6   9
ENDBRANCH   2   3
BRANCH   2  20
ATOM     20  N   UNL     1      47.646   6.764  11.736  0.00  0.00    +0.000 N 
ATOM     21  C   UNL     1      46.293   6.857  11.510  0.00  0.00    +0.000 C 
ATOM     22  O   UNL     1      45.643   7.863  11.774  0.00  0.00    +0.000 OA
ATOM     23  H   UNL     1      48.054   5.834  11.785  0.00  0.00    +0.000 HD
BRANCH  21  24
ATOM     24  C   UNL     1      45.659   5.702  10.866  0.00  0.00    +0.000 A 
ATOM     25  C   UNL     1      45.763   5.541   9.490  0.00  0.00    +0.000 A 
ATOM     26  S   UNL     1      44.974   4.148   8.904  0.00  0.00    +0.000 S 
ATOM     27  C   UNL     1      44.428   3.737  10.463  0.00  0.00    +0.000 A 
ATOM     28  N   UNL     1      43.642   2.645  10.663  0.00  0.00    +0.000 NA
ATOM     29  C   UNL     1      43.272   2.474  11.889  0.00  0.00    +0.000 A 
ATOM     30  N   UNL     1      43.628   3.287  12.934  0.00  0.00    +0.000 N 
ATOM     31  C   UNL     1      44.453   4.376  12.785  0.00  0.00    +0.000 A 
ATOM     32  O   UNL     1      44.809   5.049  13.747  0.00  0.00    +0.000 OA
ATOM     33  C   UNL     1      44.870   4.631  11.420  0.00  0.00    +0.000 A 
ATOM     34  H   UNL     1      43.319   3.087  13.873  0.00  0.00    +0.000 HD
ENDBRANCH  21  24
ENDBRANCH   2  20
TORSDOF 6
ENDMDL
