MODEL 1
REMARK VINA RESULT:    -8.061      0.000      0.000
REMARK INTER + INTRA:         -12.031
REMARK INTER:                 -10.888
REMARK INTRA:                  -1.142
REMARK UNBOUND:                -1.142
REMARK  Name = 
REMARK  7 active torsions:
REMARK  status: ('A' for Active; 'I' for Inactive)
REMARK    1  A    between atoms: C_1  and  C_2
REMARK    2  A    between atoms: C_2  and  N_3
REMARK    3  A    between atoms: C_2  and  C_16
REMARK    4  A    between atoms: C_4  and  C_6
REMARK    5  A    between atoms: C_19  and  C_20
REMARK    6  A    between atoms: C_20  and  N_21
REMARK    7  A    between atoms: C_22  and  C_24
REMARK                            x       y       z     vdW  Elec       q    Type
REMARK                         _______ _______ _______ _____ _____    ______ ____
ROOT
ATOM      1  C   UNL     1      42.888   4.774  11.434  0.00  0.00    +0.000 C 
ATOM      2  C   UNL     1      44.229   4.034  11.495  0.00  0.00    +0.000 C 
ENDROOT
BRANCH   2   3
ATOM      3  C   UNL     1      44.806   3.908  10.093  0.00  0.00    +0.000 A 
ATOM      4  C   UNL     1      45.336   5.049   9.471  0.00  0.00    +0.000 A 
ATOM      5  C   UNL     1      46.080   4.946   8.293  0.00  0.00    +0.000 A 
ATOM      6  C   UNL     1      46.290   3.704   7.688  0.00  0.00    +0.000 A 
ATOM      7  C   UNL     1      45.701   2.569   8.264  0.00  0.00    +0.000 A 
ATOM      8  C   UNL     1      44.960   2.670   9.450  0.00  0.00    +0.000 A 
BRANCH   6   9
ATOM      9  C   UNL     1      47.174   3.590   6.469  0.00  0.00    +0.000 C 
BRANCH   9  10
ATOM     10  N   UNL     1      46.667   2.629   5.516  0.00  0.00    +0.000 N 
ATOM     11  C   UNL     1      47.435   1.571   5.074  0.00  0.00    +0.000 C 
ATOM     12  O   UNL     1      48.584   1.362   5.450  0.00  0.00    +0.000 OA
ATOM     13  H   UNL     1      45.710   2.681   5.178  0.00  0.00    +0.000 HD
BRANCH  11  14
ATOM     14  C   UNL     1      46.765   0.672   4.074  0.00  0.00    +0.000 A 
ATOM     15  C   UNL     1      45.852   1.202   3.167  0.00  0.00    +0.000 A 
ATOM     16  C   UNL     1      45.227   0.333   2.276  0.00  0.00    +0.000 A 
ATOM     17  C   UNL     1      45.529  -1.024   2.321  0.00  0.00    +0.000 A 
ATOM     18  C   UNL     1      46.457  -1.461   3.256  0.00  0.00    +0.000 A 
ATOM     19  N   UNL     1      47.089  -0.651   4.133  0.00  0.00    +0.000 NA
ENDBRANCH  11  14
ENDBRANCH   9  10
ENDBRANCH   6   9
ENDBRANCH   2   3
BRANCH   2  20
ATOM     20  N   UNL     1      45.147   4.658  12.430  0.00  0.00    +0.000 N 
ATOM     21  C   UNL     1      46.057   3.910  13.144  0.00  0.00    +0.000 C 
ATOM     22  O   UNL     1      46.207   2.706  12.960  0.00  0.00    +0.000 OA
ATOM     23  H   UNL     1      44.942   5.602  12.734  0.00  0.00    +0.000 HD
BRANCH  21  24
ATOM     24  C   UNL     1      46.886   4.631  14.117  0.00  0.00    +0.000 A 
ATOM     25  C   UNL     1      47.054   4.121  15.397  0.00  0.00    +0.000 A 
ATOM     26  S   UNL     1      48.010   5.110  16.405  0.00  0.00    +0.000 S 
ATOM     27  C   UNL     1      48.181   6.281  15.187  0.00  0.00    +0.000 A 
ATOM     28  N   UNL     1      48.842   7.447  15.420  0.00  0.00    +0.000 NA
ATOM     29  C   UNL     1      48.843   8.266  14.423  0.00  0.00    +0.000 A 
ATOM     30  N   UNL     1      48.268   8.017  13.203  0.00  0.00    +0.000 N 
ATOM     31  C   UNL     1      47.662   6.820  12.895  0.00  0.00    +0.000 A 
ATOM     32  O   UNL     1      47.275   6.569  11.755  0.00  0.00    +0.000 OA
ATOM     33  C   UNL     1      47.569   5.895  14.007  0.00  0.00    +0.000 A 
ATOM     34  H   UNL     1      48.338   8.688  12.454  0.00  0.00    +0.000 HD
ENDBRANCH  21  24
ENDBRANCH   2  20
TORSDOF 6
ENDMDL
MODEL 2
REMARK VINA RESULT:    -8.019      2.856      5.083
REMARK INTER + INTRA:         -11.974
REMARK INTER:                 -10.727
REMARK INTRA:                  -1.247
REMARK UNBOUND:                -1.142
REMARK  Name = 
REMARK  7 active torsions:
REMARK  status: ('A' for Active; 'I' for Inactive)
REMARK    1  A    between atoms: C_1  and  C_2
REMARK    2  A    between atoms: C_2  and  N_3
REMARK    3  A    between atoms: C_2  and  C_16
REMARK    4  A    between atoms: C_4  and  C_6
REMARK    5  A    between atoms: C_19  and  C_20
REMARK    6  A    between atoms: C_20  and  N_21
REMARK    7  A    between atoms: C_22  and  C_24
REMARK                            x       y       z     vdW  Elec       q    Type
REMARK                         _______ _______ _______ _____ _____    ______ ____
ROOT
ATOM      1  C   UNL     1      48.488   8.771  12.904  0.00  0.00    +0.000 C 
ATOM      2  C   UNL     1      47.682   7.891  13.867  0.00  0.00    +0.000 C 
ENDROOT
BRANCH   2   3
ATOM      3  C   UNL     1      46.602   7.147  13.096  0.00  0.00    +0.000 A 
ATOM      4  C   UNL     1      45.729   7.878  12.274  0.00  0.00    +0.000 A 
ATOM      5  C   UNL     1      44.879   7.231  11.373  0.00  0.00    +0.000 A 
ATOM      6  C   UNL     1      44.857   5.836  11.290  0.00  0.00    +0.000 A 
ATOM      7  C   UNL     1      45.673   5.098  12.160  0.00  0.00    +0.000 A 
ATOM      8  C   UNL     1      46.532   5.747  13.059  0.00  0.00    +0.000 A 
BRANCH   6   9
ATOM      9  C   UNL     1      44.005   5.149  10.249  0.00  0.00    +0.000 C 
BRANCH   9  10
ATOM     10  N   UNL     1      44.803   4.488   9.242  0.00  0.00    +0.000 N 
ATOM     11  C   UNL     1      44.910   3.114   9.185  0.00  0.00    +0.000 C 
ATOM     12  O   UNL     1      44.342   2.356   9.966  0.00  0.00    +0.000 OA
ATOM     13  H   UNL     1      45.275   5.020   8.515  0.00  0.00    +0.000 HD
BRANCH  11  14
ATOM     14  C   UNL     1      45.788   2.587   8.086  0.00  0.00    +0.000 A 
ATOM     15  C   UNL     1      46.037   3.369   6.962  0.00  0.00    +0.000 A 
ATOM     16  C   UNL     1      46.830   2.836   5.950  0.00  0.00    +0.000 A 
ATOM     17  C   UNL     1      47.342   1.550   6.090  0.00  0.00    +0.000 A 
ATOM     18  C   UNL     1      47.046   0.846   7.249  0.00  0.00    +0.000 A 
ATOM     19  N   UNL     1      46.287   1.330   8.256  0.00  0.00    +0.000 NA
ENDBRANCH  11  14
ENDBRANCH   9  10
ENDBRANCH   6   9
ENDBRANCH   2   3
BRANCH   2  20
ATOM     20  N   UNL     1      48.539   7.006  14.634  0.00  0.00    +0.000 N 
ATOM     21  C   UNL     1      48.920   7.318  15.921  0.00  0.00    +0.000 C 
ATOM     22  O   UNL     1      48.482   8.298  16.516  0.00  0.00    +0.000 OA
ATOM     23  H   UNL     1      49.053   6.293  14.131  0.00  0.00    +0.000 HD
BRANCH  21  24
ATOM     24  C   UNL     1      49.848   6.392  16.578  0.00  0.00    +0.000 A 
ATOM     25  C   UNL     1      51.123   6.819  16.926  0.00  0.00    +0.000 A 
ATOM     26  S   UNL     1      52.080   5.600  17.639  0.00  0.00    +0.000 S 
ATOM     27  C   UNL     1      50.846   4.447  17.453  0.00  0.00    +0.000 A 
ATOM     28  N   UNL     1      51.041   3.146  17.804  0.00  0.00    +0.000 NA
ATOM     29  C   UNL     1      50.039   2.373  17.553  0.00  0.00    +0.000 A 
ATOM     30  N   UNL     1      48.849   2.783  17.009  0.00  0.00    +0.000 N 
ATOM     31  C   UNL     1      48.577   4.101  16.717  0.00  0.00    +0.000 A 
ATOM     32  O   UNL     1      47.457   4.462  16.359  0.00  0.00    +0.000 OA
ATOM     33  C   UNL     1      49.699   4.998  16.910  0.00  0.00    +0.000 A 
ATOM     34  H   UNL     1      48.092   2.131  16.873  0.00  0.00    +0.000 HD
ENDBRANCH  21  24
ENDBRANCH   2  20
TORSDOF 6
ENDMDL
MODEL 3
REMARK VINA RESULT:    -7.857      2.896      4.862
REMARK INTER + INTRA:         -11.755
REMARK INTER:                 -10.556
REMARK INTRA:                  -1.199
REMARK UNBOUND:                -1.142
REMARK  Name = 
REMARK  7 active torsions:
REMARK  status: ('A' for Active; 'I' for Inactive)
REMARK    1  A    between atoms: C_1  and  C_2
REMARK    2  A    between atoms: C_2  and  N_3
REMARK    3  A    between atoms: C_2  and  C_16
REMARK    4  A    between atoms: C_4  and  C_6
REMARK    5  A    between atoms: C_19  and  C_20
REMARK    6  A    between atoms: C_20  and  N_21
REMARK    7  A    between atoms: C_22  and  C_24
REMARK                            x       y       z     vdW  Elec       q    Type
REMARK                         _______ _______ _______ _____ _____    ______ ____
ROOT
ATOM      1  C   UNL     1      47.425   4.540  15.861  0.00  0.00    +0.000 C 
ATOM      2  C   UNL     1      47.638   5.379  14.596  0.00  0.00    +0.000 C 
ENDROOT
BRANCH   2   3
ATOM      3  C   UNL     1      46.546   5.064  13.585  0.00  0.00    +0.000 A 
ATOM      4  C   UNL     1      46.007   6.109  12.819  0.00  0.00    +0.000 A 
ATOM      5  C   UNL     1      45.178   5.846  11.725  0.00  0.00    +0.000 A 
ATOM      6  C   UNL     1      44.842   4.533  11.385  0.00  0.00    +0.000 A 
ATOM      7  C   UNL     1      45.317   3.488  12.190  0.00  0.00    +0.000 A 
ATOM      8  C   UNL     1      46.155   3.751  13.283  0.00  0.00    +0.000 A 
BRANCH   6   9
ATOM      9  C   UNL     1      44.024   4.254  10.147  0.00  0.00    +0.000 C 
BRANCH   9  10
ATOM     10  N   UNL     1      44.725   3.404   9.211  0.00  0.00    +0.000 N 
ATOM     11  C   UNL     1      45.681   3.904   8.351  0.00  0.00    +0.000 C 
ATOM     12  O   UNL     1      46.012   5.085   8.316  0.00  0.00    +0.000 OA
ATOM     13  H   UNL     1      44.563   2.401   9.191  0.00  0.00    +0.000 HD
BRANCH  11  14
ATOM     14  C   UNL     1      46.304   2.891   7.433  0.00  0.00    +0.000 A 
ATOM     15  C   UNL     1      46.589   3.233   6.114  0.00  0.00    +0.000 A 
ATOM     16  C   UNL     1      47.138   2.259   5.284  0.00  0.00    +0.000 A 
ATOM     17  C   UNL     1      47.379   0.987   5.792  0.00  0.00    +0.000 A 
ATOM     18  C   UNL     1      47.069   0.739   7.122  0.00  0.00    +0.000 A 
ATOM     19  N   UNL     1      46.542   1.657   7.961  0.00  0.00    +0.000 NA
ENDBRANCH  11  14
ENDBRANCH   9  10
ENDBRANCH   6   9
ENDBRANCH   2   3
BRANCH   2  20
ATOM     20  N   UNL     1      47.736   6.795  14.899  0.00  0.00    +0.000 N 
ATOM     21  C   UNL     1      48.956   7.434  14.939  0.00  0.00    +0.000 C 
ATOM     22  O   UNL     1      50.002   6.873  14.629  0.00  0.00    +0.000 OA
ATOM     23  H   UNL     1      46.933   7.244  15.323  0.00  0.00    +0.000 HD
BRANCH  21  24
ATOM     24  C   UNL     1      48.947   8.849  15.329  0.00  0.00    +0.000 A 
ATOM     25  C   UNL     1      49.317   9.823  14.412  0.00  0.00    +0.000 A 
ATOM     26  S   UNL     1      49.291  11.405  15.050  0.00  0.00    +0.000 S 
ATOM     27  C   UNL     1      48.844  10.837  16.587  0.00  0.00    +0.000 A 
ATOM     28  N   UNL     1      48.719  11.687  17.642  0.00  0.00    +0.000 NA
ATOM     29  C   UNL     1      48.432  11.110  18.759  0.00  0.00    +0.000 A 
ATOM     30  N   UNL     1      48.231   9.762  18.916  0.00  0.00    +0.000 N 
ATOM     31  C   UNL     1      48.265   8.876  17.863  0.00  0.00    +0.000 A 
ATOM     32  O   UNL     1      47.947   7.695  18.005  0.00  0.00    +0.000 OA
ATOM     33  C   UNL     1      48.658   9.466  16.599  0.00  0.00    +0.000 A 
ATOM     34  H   UNL     1      47.972   9.380  19.813  0.00  0.00    +0.000 HD
ENDBRANCH  21  24
ENDBRANCH   2  20
TORSDOF 6
ENDMDL
MODEL 4
REMARK VINA RESULT:    -7.708      6.268      9.058
REMARK INTER + INTRA:         -11.553
REMARK INTER:                 -10.358
REMARK INTRA:                  -1.195
REMARK UNBOUND:                -1.142
REMARK  Name = 
REMARK  7 active torsions:
REMARK  status: ('A' for Active; 'I' for Inactive)
REMARK    1  A    between atoms: C_1  and  C_2
REMARK    2  A    between atoms: C_2  and  N_3
REMARK    3  A    between atoms: C_2  and  C_16
REMARK    4  A    between atoms: C_4  and  C_6
REMARK    5  A    between atoms: C_19  and  C_20
REMARK    6  A    between atoms: C_20  and  N_21
REMARK    7  A    between atoms: C_22  and  C_24
REMARK                            x       y       z     vdW  Elec       q    Type
REMARK                         _______ _______ _______ _____ _____    ______ ____
ROOT
ATOM      1  C   UNL     1      44.388   4.498  13.169  0.00  0.00    +0.000 C 
ATOM      2  C   UNL     1      45.739   5.216  13.075  0.00  0.00    +0.000 C 
ENDROOT
BRANCH   2   3
ATOM      3  C   UNL     1      45.538   6.608  12.496  0.00  0.00    +0.000 A 
ATOM      4  C   UNL     1      44.538   6.804  11.530  0.00  0.00    +0.000 A 
ATOM      5  C   UNL     1      44.158   8.090  11.139  0.00  0.00    +0.000 A 
ATOM      6  C   UNL     1      44.786   9.215  11.681  0.00  0.00    +0.000 A 
ATOM      7  C   UNL     1      45.836   9.024  12.591  0.00  0.00    +0.000 A 
ATOM      8  C   UNL     1      46.213   7.734  12.989  0.00  0.00    +0.000 A 
BRANCH   6   9
ATOM      9  C   UNL     1      44.304  10.601  11.324  0.00  0.00    +0.000 C 
BRANCH   9  10
ATOM     10  N   UNL     1      43.083  10.948  12.013  0.00  0.00    +0.000 N 
ATOM     11  C   UNL     1      41.858  10.922  11.379  0.00  0.00    +0.000 C 
ATOM     12  O   UNL     1      41.708  10.603  10.204  0.00  0.00    +0.000 OA
ATOM     13  H   UNL     1      43.088  11.180  13.003  0.00  0.00    +0.000 HD
BRANCH  11  14
ATOM     14  C   UNL     1      40.689  11.324  12.234  0.00  0.00    +0.000 A 
ATOM     15  C   UNL     1      39.401  10.940  11.872  0.00  0.00    +0.000 A 
ATOM     16  C   UNL     1      38.340  11.357  12.671  0.00  0.00    +0.000 A 
ATOM     17  C   UNL     1      38.597  12.139  13.792  0.00  0.00    +0.000 A 
ATOM     18  C   UNL     1      39.914  12.469  14.079  0.00  0.00    +0.000 A 
ATOM     19  N   UNL     1      40.971  12.079  13.333  0.00  0.00    +0.000 NA
ENDBRANCH  11  14
ENDBRANCH   9  10
ENDBRANCH   6   9
ENDBRANCH   2   3
BRANCH   2  20
ATOM     20  N   UNL     1      46.433   5.229  14.350  0.00  0.00    +0.000 N 
ATOM     21  C   UNL     1      47.161   4.141  14.778  0.00  0.00    +0.000 C 
ATOM     22  O   UNL     1      47.343   3.153  14.073  0.00  0.00    +0.000 OA
ATOM     23  H   UNL     1      46.170   5.939  15.023  0.00  0.00    +0.000 HD
BRANCH  21  24
ATOM     24  C   UNL     1      47.759   4.232  16.115  0.00  0.00    +0.000 A 
ATOM     25  C   UNL     1      47.446   3.285  17.080  0.00  0.00    +0.000 A 
ATOM     26  S   UNL     1      48.196   3.571  18.585  0.00  0.00    +0.000 S 
ATOM     27  C   UNL     1      48.916   5.000  18.016  0.00  0.00    +0.000 A 
ATOM     28  N   UNL     1      49.654   5.793  18.841  0.00  0.00    +0.000 NA
ATOM     29  C   UNL     1      50.091   6.874  18.289  0.00  0.00    +0.000 A 
ATOM     30  N   UNL     1      49.881   7.225  16.980  0.00  0.00    +0.000 N 
ATOM     31  C   UNL     1      49.213   6.417  16.089  0.00  0.00    +0.000 A 
ATOM     32  O   UNL     1      49.156   6.690  14.890  0.00  0.00    +0.000 OA
ATOM     33  C   UNL     1      48.638   5.225  16.679  0.00  0.00    +0.000 A 
ATOM     34  H   UNL     1      50.283   8.070  16.602  0.00  0.00    +0.000 HD
ENDBRANCH  21  24
ENDBRANCH   2  20
TORSDOF 6
ENDMDL
MODEL 5
REMARK VINA RESULT:    -7.660      2.991      4.958
REMARK INTER + INTRA:         -11.489
REMARK INTER:                 -10.480
REMARK INTRA:                  -1.009
REMARK UNBOUND:                -1.142
REMARK  Name = 
REMARK  7 active torsions:
REMARK  status: ('A' for Active; 'I' for Inactive)
REMARK    1  A    between atoms: C_1  and  C_2
REMARK    2  A    between atoms: C_2  and  N_3
REMARK    3  A    between atoms: C_2  and  C_16
REMARK    4  A    between atoms: C_4  and  C_6
REMARK    5  A    between atoms: C_19  and  C_20
REMARK    6  A    between atoms: C_20  and  N_21
REMARK    7  A    between atoms: C_22  and  C_24
REMARK                            x       y       z     vdW  Elec       q    Type
REMARK                         _______ _______ _______ _____ _____    ______ ____
ROOT
ATOM      1  C   UNL     1      46.419   8.979  12.115  0.00  0.00    +0.000 C 
ATOM      2  C   UNL     1      46.547   7.996  13.284  0.00  0.00    +0.000 C 
ENDROOT
BRANCH   2   3
ATOM      3  C   UNL     1      45.804   6.711  12.953  0.00  0.00    +0.000 A 
ATOM      4  C   UNL     1      44.604   6.788  12.228  0.00  0.00    +0.000 A 
ATOM      5  C   UNL     1      44.008   5.639  11.701  0.00  0.00    +0.000 A 
ATOM      6  C   UNL     1      44.578   4.380  11.908  0.00  0.00    +0.000 A 
ATOM      7  C   UNL     1      45.736   4.289  12.694  0.00  0.00    +0.000 A 
ATOM      8  C   UNL     1      46.340   5.441  13.217  0.00  0.00    +0.000 A 
BRANCH   6   9
ATOM      9  C   UNL     1      43.980   3.157  11.256  0.00  0.00    +0.000 C 
BRANCH   9  10
ATOM     10  N   UNL     1      44.833   2.618  10.221  0.00  0.00    +0.000 N 
ATOM     11  C   UNL     1      44.900   3.187   8.966  0.00  0.00    +0.000 C 
ATOM     12  O   UNL     1      44.259   4.180   8.635  0.00  0.00    +0.000 OA
ATOM     13  H   UNL     1      45.444   1.827  10.405  0.00  0.00    +0.000 HD
BRANCH  11  14
ATOM     14  C   UNL     1      45.824   2.498   8.002  0.00  0.00    +0.000 A 
ATOM     15  C   UNL     1      46.234   3.154   6.845  0.00  0.00    +0.000 A 
ATOM     16  C   UNL     1      47.066   2.473   5.960  0.00  0.00    +0.000 A 
ATOM     17  C   UNL     1      47.454   1.170   6.255  0.00  0.00    +0.000 A 
ATOM     18  C   UNL     1      47.000   0.598   7.435  0.00  0.00    +0.000 A 
ATOM     19  N   UNL     1      46.199   1.227   8.323  0.00  0.00    +0.000 NA
ENDBRANCH  11  14
ENDBRANCH   9  10
ENDBRANCH   6   9
ENDBRANCH   2   3
BRANCH   2  20
ATOM     20  N   UNL     1      47.934   7.769  13.648  0.00  0.00    +0.000 N 
ATOM     21  C   UNL     1      48.492   8.378  14.751  0.00  0.00    +0.000 C 
ATOM     22  O   UNL     1      47.831   9.058  15.531  0.00  0.00    +0.000 OA
ATOM     23  H   UNL     1      48.546   7.366  12.949  0.00  0.00    +0.000 HD
BRANCH  21  24
ATOM     24  C   UNL     1      49.920   8.140  14.984  0.00  0.00    +0.000 A 
ATOM     25  C   UNL     1      50.869   8.856  14.267  0.00  0.00    +0.000 A 
ATOM     26  S   UNL     1      52.476   8.419  14.635  0.00  0.00    +0.000 S 
ATOM     27  C   UNL     1      51.959   7.219  15.720  0.00  0.00    +0.000 A 
ATOM     28  N   UNL     1      52.851   6.403  16.344  0.00  0.00    +0.000 NA
ATOM     29  C   UNL     1      52.314   5.501  17.094  0.00  0.00    +0.000 A 
ATOM     30  N   UNL     1      50.965   5.355  17.299  0.00  0.00    +0.000 N 
ATOM     31  C   UNL     1      50.031   6.208  16.756  0.00  0.00    +0.000 A 
ATOM     32  O   UNL     1      48.842   6.140  17.064  0.00  0.00    +0.000 OA
ATOM     33  C   UNL     1      50.581   7.192  15.846  0.00  0.00    +0.000 A 
ATOM     34  H   UNL     1      50.614   4.650  17.929  0.00  0.00    +0.000 HD
ENDBRANCH  21  24
ENDBRANCH   2  20
TORSDOF 6
ENDMDL
MODEL 6
REMARK VINA RESULT:    -7.615      3.044      5.328
REMARK INTER + INTRA:         -11.428
REMARK INTER:                 -10.367
REMARK INTRA:                  -1.061
REMARK UNBOUND:                -1.142
REMARK  Name = 
REMARK  7 active torsions:
REMARK  status: ('A' for Active; 'I' for Inactive)
REMARK    1  A    between atoms: C_1  and  C_2
REMARK    2  A    between atoms: C_2  and  N_3
REMARK    3  A    between atoms: C_2  and  C_16
REMARK    4  A    between atoms: C_4  and  C_6
REMARK    5  A    between atoms: C_19  and  C_20
REMARK    6  A    between atoms: C_20  and  N_21
REMARK    7  A    between atoms: C_22  and  C_24
REMARK                            x       y       z     vdW  Elec       q    Type
REMARK                         _______ _______ _______ _____ _____    ______ ____
ROOT
ATOM      1  C   UNL     1      49.263   7.781  13.144  0.00  0.00    +0.000 C 
ATOM      2  C   UNL     1      47.925   8.023  13.851  0.00  0.00    +0.000 C 
ENDROOT
BRANCH   2   3
ATOM      3  C   UNL     1      46.824   7.256  13.135  0.00  0.00    +0.000 A 
ATOM      4  C   UNL     1      45.975   7.947  12.257  0.00  0.00    +0.000 A 
ATOM      5  C   UNL     1      45.106   7.258  11.406  0.00  0.00    +0.000 A 
ATOM      6  C   UNL     1      45.041   5.863  11.430  0.00  0.00    +0.000 A 
ATOM      7  C   UNL     1      45.833   5.170  12.357  0.00  0.00    +0.000 A 
ATOM      8  C   UNL     1      46.710   5.859  13.206  0.00  0.00    +0.000 A 
BRANCH   6   9
ATOM      9  C   UNL     1      44.170   5.124  10.442  0.00  0.00    +0.000 C 
BRANCH   9  10
ATOM     10  N   UNL     1      44.947   4.465   9.417  0.00  0.00    +0.000 N 
ATOM     11  C   UNL     1      44.952   3.092   9.278  0.00  0.00    +0.000 C 
ATOM     12  O   UNL     1      44.305   2.336   9.996  0.00  0.00    +0.000 OA
ATOM     13  H   UNL     1      45.480   5.001   8.737  0.00  0.00    +0.000 HD
BRANCH  11  14
ATOM     14  C   UNL     1      45.822   2.566   8.172  0.00  0.00    +0.000 A 
ATOM     15  C   UNL     1      46.128   3.379   7.085  0.00  0.00    +0.000 A 
ATOM     16  C   UNL     1      46.912   2.847   6.064  0.00  0.00    +0.000 A 
ATOM     17  C   UNL     1      47.357   1.532   6.160  0.00  0.00    +0.000 A 
ATOM     18  C   UNL     1      47.006   0.798   7.285  0.00  0.00    +0.000 A 
ATOM     19  N   UNL     1      46.254   1.280   8.299  0.00  0.00    +0.000 NA
ENDBRANCH  11  14
ENDBRANCH   9  10
ENDBRANCH   6   9
ENDBRANCH   2   3
BRANCH   2  20
ATOM     20  N   UNL     1      47.999   7.716  15.268  0.00  0.00    +0.000 N 
ATOM     21  C   UNL     1      48.486   8.632  16.173  0.00  0.00    +0.000 C 
ATOM     22  O   UNL     1      48.786   9.778  15.852  0.00  0.00    +0.000 OA
ATOM     23  H   UNL     1      47.929   6.743  15.544  0.00  0.00    +0.000 HD
BRANCH  21  24
ATOM     24  C   UNL     1      48.589   8.191  17.569  0.00  0.00    +0.000 A 
ATOM     25  C   UNL     1      48.194   9.038  18.595  0.00  0.00    +0.000 A 
ATOM     26  S   UNL     1      48.424   8.379  20.151  0.00  0.00    +0.000 S 
ATOM     27  C   UNL     1      49.114   6.966  19.510  0.00  0.00    +0.000 A 
ATOM     28  N   UNL     1      49.605   5.991  20.323  0.00  0.00    +0.000 NA
ATOM     29  C   UNL     1      50.151   5.003  19.700  0.00  0.00    +0.000 A 
ATOM     30  N   UNL     1      50.228   4.885  18.335  0.00  0.00    +0.000 N 
ATOM     31  C   UNL     1      49.672   5.803  17.474  0.00  0.00    +0.000 A 
ATOM     32  O   UNL     1      49.635   5.606  16.260  0.00  0.00    +0.000 OA
ATOM     33  C   UNL     1      49.113   6.970  18.126  0.00  0.00    +0.000 A 
ATOM     34  H   UNL     1      50.637   4.066  17.912  0.00  0.00    +0.000 HD
ENDBRANCH  21  24
ENDBRANCH   2  20
TORSDOF 6
ENDMDL
MODEL 7
REMARK VINA RESULT:    -7.411      3.458      5.412
REMARK INTER + INTRA:         -11.152
REMARK INTER:                  -9.987
REMARK INTRA:                  -1.165
REMARK UNBOUND:                -1.142
REMARK  Name = 
REMARK  7 active torsions:
REMARK  status: ('A' for Active; 'I' for Inactive)
REMARK    1  A    between atoms: C_1  and  C_2
REMARK    2  A    between atoms: C_2  and  N_3
REMARK    3  A    between atoms: C_2  and  C_16
REMARK    4  A    between atoms: C_4  and  C_6
REMARK    5  A    between atoms: C_19  and  C_20
REMARK    6  A    between atoms: C_20  and  N_21
REMARK    7  A    between atoms: C_22  and  C_24
REMARK                            x       y       z     vdW  Elec       q    Type
REMARK                         _______ _______ _______ _____ _____    ______ ____
ROOT
ATOM      1  C   UNL     1      45.289   9.472  12.682  0.00  0.00    +0.000 C 
ATOM      2  C   UNL     1      46.271   8.351  13.041  0.00  0.00    +0.000 C 
ENDROOT
BRANCH   2   3
ATOM      3  C   UNL     1      45.616   7.001  12.793  0.00  0.00    +0.000 A 
ATOM      4  C   UNL     1      44.500   6.932  11.945  0.00  0.00    +0.000 A 
ATOM      5  C   UNL     1      44.007   5.702  11.503  0.00  0.00    +0.000 A 
ATOM      6  C   UNL     1      44.598   4.506  11.918  0.00  0.00    +0.000 A 
ATOM      7  C   UNL     1      45.667   4.565  12.824  0.00  0.00    +0.000 A 
ATOM      8  C   UNL     1      46.166   5.799  13.263  0.00  0.00    +0.000 A 
BRANCH   6   9
ATOM      9  C   UNL     1      44.119   3.187  11.361  0.00  0.00    +0.000 C 
BRANCH   9  10
ATOM     10  N   UNL     1      45.011   2.666  10.351  0.00  0.00    +0.000 N 
ATOM     11  C   UNL     1      44.967   3.107   9.044  0.00  0.00    +0.000 C 
ATOM     12  O   UNL     1      44.186   3.965   8.644  0.00  0.00    +0.000 OA
ATOM     13  H   UNL     1      45.731   1.988  10.587  0.00  0.00    +0.000 HD
BRANCH  11  14
ATOM     14  C   UNL     1      45.953   2.455   8.117  0.00  0.00    +0.000 A 
ATOM     15  C   UNL     1      46.600   3.214   7.147  0.00  0.00    +0.000 A 
ATOM     16  C   UNL     1      47.483   2.570   6.285  0.00  0.00    +0.000 A 
ATOM     17  C   UNL     1      47.687   1.200   6.417  0.00  0.00    +0.000 A 
ATOM     18  C   UNL     1      47.002   0.525   7.417  0.00  0.00    +0.000 A 
ATOM     19  N   UNL     1      46.142   1.115   8.277  0.00  0.00    +0.000 NA
ENDBRANCH  11  14
ENDBRANCH   9  10
ENDBRANCH   6   9
ENDBRANCH   2   3
BRANCH   2  20
ATOM     20  N   UNL     1      47.537   8.501  12.348  0.00  0.00    +0.000 N 
ATOM     21  C   UNL     1      48.679   8.877  13.019  0.00  0.00    +0.000 C 
ATOM     22  O   UNL     1      48.712   9.007  14.239  0.00  0.00    +0.000 OA
ATOM     23  H   UNL     1      47.516   8.573  11.338  0.00  0.00    +0.000 HD
BRANCH  21  24
ATOM     24  C   UNL     1      49.887   9.073  12.210  0.00  0.00    +0.000 A 
ATOM     25  C   UNL     1      51.013   8.296  12.445  0.00  0.00    +0.000 A 
ATOM     26  S   UNL     1      52.335   8.689  11.442  0.00  0.00    +0.000 S 
ATOM     27  C   UNL     1      51.469   9.949  10.701  0.00  0.00    +0.000 A 
ATOM     28  N   UNL     1      52.055  10.756   9.776  0.00  0.00    +0.000 NA
ATOM     29  C   UNL     1      51.297  11.705   9.341  0.00  0.00    +0.000 A 
ATOM     30  N   UNL     1      49.996  11.907   9.727  0.00  0.00    +0.000 N 
ATOM     31  C   UNL     1      49.336  11.067  10.596  0.00  0.00    +0.000 A 
ATOM     32  O   UNL     1      48.133  11.190  10.820  0.00  0.00    +0.000 OA
ATOM     33  C   UNL     1      50.169  10.029  11.169  0.00  0.00    +0.000 A 
ATOM     34  H   UNL     1      49.447  12.648   9.319  0.00  0.00    +0.000 HD
ENDBRANCH  21  24
ENDBRANCH   2  20
TORSDOF 6
ENDMDL
MODEL 8
REMARK VINA RESULT:    -7.294      2.166      2.820
REMARK INTER + INTRA:         -10.995
REMARK INTER:                 -10.094
REMARK INTRA:                  -0.901
REMARK UNBOUND:                -1.142
REMARK  Name = 
REMARK  7 active torsions:
REMARK  status: ('A' for Active; 'I' for Inactive)
REMARK    1  A    between atoms: C_1  and  C_2
REMARK    2  A    between atoms: C_2  and  N_3
REMARK    3  A    between atoms: C_2  and  C_16
REMARK    4  A    between atoms: C_4  and  C_6
REMARK    5  A    between atoms: C_19  and  C_20
REMARK    6  A    between atoms: C_20  and  N_21
REMARK    7  A    between atoms: C_22  and  C_24
REMARK                            x       y       z     vdW  Elec       q    Type
REMARK                         _______ _______ _______ _____ _____    ______ ____
ROOT
ATOM      1  C   UNL     1      43.626   3.170  10.746  0.00  0.00    +0.000 C 
ATOM      2  C   UNL     1      45.105   3.488  10.497  0.00  0.00    +0.000 C 
ENDROOT
BRANCH   2   3
ATOM      3  C   UNL     1      45.494   3.043   9.096  0.00  0.00    +0.000 A 
ATOM      4  C   UNL     1      45.683   4.016   8.102  0.00  0.00    +0.000 A 
ATOM      5  C   UNL     1      46.260   3.686   6.873  0.00  0.00    +0.000 A 
ATOM      6  C   UNL     1      46.638   2.370   6.593  0.00  0.00    +0.000 A 
ATOM      7  C   UNL     1      46.384   1.380   7.553  0.00  0.00    +0.000 A 
ATOM      8  C   UNL     1      45.811   1.711   8.789  0.00  0.00    +0.000 A 
BRANCH   6   9
ATOM      9  C   UNL     1      47.346   2.040   5.301  0.00  0.00    +0.000 C 
BRANCH   9  10
ATOM     10  N   UNL     1      47.336   0.622   5.020  0.00  0.00    +0.000 N 
ATOM     11  C   UNL     1      46.910   0.125   3.806  0.00  0.00    +0.000 C 
ATOM     12  O   UNL     1      46.519   0.832   2.883  0.00  0.00    +0.000 OA
ATOM     13  H   UNL     1      47.688  -0.048   5.698  0.00  0.00    +0.000 HD
BRANCH  11  14
ATOM     14  C   UNL     1      46.949  -1.372   3.681  0.00  0.00    +0.000 A 
ATOM     15  C   UNL     1      46.503  -2.168   4.732  0.00  0.00    +0.000 A 
ATOM     16  C   UNL     1      46.583  -3.551   4.592  0.00  0.00    +0.000 A 
ATOM     17  C   UNL     1      47.105  -4.088   3.420  0.00  0.00    +0.000 A 
ATOM     18  C   UNL     1      47.521  -3.217   2.423  0.00  0.00    +0.000 A 
ATOM     19  N   UNL     1      47.453  -1.871   2.517  0.00  0.00    +0.000 NA
ENDBRANCH  11  14
ENDBRANCH   9  10
ENDBRANCH   6   9
ENDBRANCH   2   3
BRANCH   2  20
ATOM     20  N   UNL     1      45.405   4.886  10.750  0.00  0.00    +0.000 N 
ATOM     21  C   UNL     1      45.660   5.342  12.025  0.00  0.00    +0.000 C 
ATOM     22  O   UNL     1      45.743   4.588  12.989  0.00  0.00    +0.000 OA
ATOM     23  H   UNL     1      45.178   5.556  10.026  0.00  0.00    +0.000 HD
BRANCH  21  24
ATOM     24  C   UNL     1      45.877   6.785  12.178  0.00  0.00    +0.000 A 
ATOM     25  C   UNL     1      44.838   7.672  11.932  0.00  0.00    +0.000 A 
ATOM     26  S   UNL     1      45.280   9.309  12.117  0.00  0.00    +0.000 S 
ATOM     27  C   UNL     1      46.888   8.892  12.471  0.00  0.00    +0.000 A 
ATOM     28  N   UNL     1      47.836   9.848  12.667  0.00  0.00    +0.000 NA
ATOM     29  C   UNL     1      49.023   9.386  12.870  0.00  0.00    +0.000 A 
ATOM     30  N   UNL     1      49.347   8.054  12.922  0.00  0.00    +0.000 N 
ATOM     31  C   UNL     1      48.409   7.053  12.812  0.00  0.00    +0.000 A 
ATOM     32  O   UNL     1      48.702   5.873  12.998  0.00  0.00    +0.000 OA
ATOM     33  C   UNL     1      47.071   7.521  12.508  0.00  0.00    +0.000 A 
ATOM     34  H   UNL     1      50.292   7.761  13.121  0.00  0.00    +0.000 HD
ENDBRANCH  21  24
ENDBRANCH   2  20
TORSDOF 6
ENDMDL
MODEL 9
REMARK VINA RESULT:    -7.257      3.294      6.015
REMARK INTER + INTRA:         -10.944
REMARK INTER:                  -9.708
REMARK INTRA:                  -1.236
REMARK UNBOUND:                -1.142
REMARK  Name = 
REMARK  7 active torsions:
REMARK  status: ('A' for Active; 'I' for Inactive)
REMARK    1  A    between atoms: C_1  and  C_2
REMARK    2  A    between atoms: C_2  and  N_3
REMARK    3  A    between atoms: C_2  and  C_16
REMARK    4  A    between atoms: C_4  and  C_6
REMARK    5  A    between atoms: C_19  and  C_20
REMARK    6  A    between atoms: C_20  and  N_21
REMARK    7  A    between atoms: C_22  and  C_24
REMARK                            x       y       z     vdW  Elec       q    Type
REMARK                         _______ _______ _______ _____ _____    ______ ____
ROOT
ATOM      1  C   UNL     1      50.464   8.827  13.777  0.00  0.00    +0.000 C 
ATOM      2  C   UNL     1      49.099   8.752  14.470  0.00  0.00    +0.000 C 
ENDROOT
BRANCH   2   3
ATOM      3  C   UNL     1      48.031   8.377  13.454  0.00  0.00    +0.000 A 
ATOM      4  C   UNL     1      48.312   7.374  12.513  0.00  0.00    +0.000 A 
ATOM      5  C   UNL     1      47.300   6.833  11.715  0.00  0.00    +0.000 A 
ATOM      6  C   UNL     1      45.986   7.299  11.816  0.00  0.00    +0.000 A 
ATOM      7  C   UNL     1      45.713   8.352  12.701  0.00  0.00    +0.000 A 
ATOM      8  C   UNL     1      46.726   8.890  13.507  0.00  0.00    +0.000 A 
BRANCH   6   9
ATOM      9  C   UNL     1      44.883   6.645  11.019  0.00  0.00    +0.000 C 
BRANCH   9  10
ATOM     10  N   UNL     1      45.395   5.695  10.058  0.00  0.00    +0.000 N 
ATOM     11  C   UNL     1      44.785   4.476   9.845  0.00  0.00    +0.000 C 
ATOM     12  O   UNL     1      43.775   4.109  10.438  0.00  0.00    +0.000 OA
ATOM     13  H   UNL     1      46.199   5.919   9.477  0.00  0.00    +0.000 HD
BRANCH  11  14
ATOM     14  C   UNL     1      45.451   3.599   8.822  0.00  0.00    +0.000 A 
ATOM     15  C   UNL     1      45.435   2.216   8.978  0.00  0.00    +0.000 A 
ATOM     16  C   UNL     1      46.089   1.438   8.027  0.00  0.00    +0.000 A 
ATOM     17  C   UNL     1      46.734   2.060   6.963  0.00  0.00    +0.000 A 
ATOM     18  C   UNL     1      46.693   3.445   6.886  0.00  0.00    +0.000 A 
ATOM     19  N   UNL     1      46.064   4.235   7.784  0.00  0.00    +0.000 NA
ENDBRANCH  11  14
ENDBRANCH   9  10
ENDBRANCH   6   9
ENDBRANCH   2   3
BRANCH   2  20
ATOM     20  N   UNL     1      49.124   7.863  15.617  0.00  0.00    +0.000 N 
ATOM     21  C   UNL     1      48.528   8.216  16.808  0.00  0.00    +0.000 C 
ATOM     22  O   UNL     1      47.868   9.242  16.934  0.00  0.00    +0.000 OA
ATOM     23  H   UNL     1      49.794   7.103  15.610  0.00  0.00    +0.000 HD
BRANCH  21  24
ATOM     24  C   UNL     1      48.679   7.277  17.925  0.00  0.00    +0.000 A 
ATOM     25  C   UNL     1      49.121   7.733  19.160  0.00  0.00    +0.000 A 
ATOM     26  S   UNL     1      49.279   6.499  20.327  0.00  0.00    +0.000 S 
ATOM     27  C   UNL     1      48.821   5.307  19.207  0.00  0.00    +0.000 A 
ATOM     28  N   UNL     1      48.816   3.989  19.546  0.00  0.00    +0.000 NA
ATOM     29  C   UNL     1      48.504   3.192  18.581  0.00  0.00    +0.000 A 
ATOM     30  N   UNL     1      48.168   3.593  17.312  0.00  0.00    +0.000 N 
ATOM     31  C   UNL     1      48.078   4.917  16.947  0.00  0.00    +0.000 A 
ATOM     32  O   UNL     1      47.644   5.253  15.847  0.00  0.00    +0.000 OA
ATOM     33  C   UNL     1      48.493   5.849  17.977  0.00  0.00    +0.000 A 
ATOM     34  H   UNL     1      47.898   2.918  16.613  0.00  0.00    +0.000 HD
ENDBRANCH  21  24
ENDBRANCH   2  20
TORSDOF 6
ENDMDL
