MODEL 1
REMARK VINA RESULT:    -7.761      0.000      0.000
REMARK INTER + INTRA:         -12.333
REMARK INTER:                 -11.391
REMARK INTRA:                  -0.942
REMARK UNBOUND:                -0.942
REMARK  Name = 
REMARK  8 active torsions:
REMARK  status: ('A' for Active; 'I' for Inactive)
REMARK    1  A    between atoms: C_2  and  C_3
REMARK    2  A    between atoms: C_5  and  C_6
REMARK    3  A    between atoms: C_6  and  C_7
REMARK    4  A    between atoms: C_7  and  O_8
REMARK    5  A    between atoms: O_8  and  C_9
REMARK    6  A    between atoms: C_13  and  C_14
REMARK    7  A    between atoms: C_19  and  O_20
REMARK    8  A    between atoms: O_20  and  C_21
REMARK                            x       y       z     vdW  Elec       q    Type
REMARK                         _______ _______ _______ _____ _____    ______ ____
ROOT
ATOM      1  C   UNL     1      47.067   6.688  12.624  0.00  0.00    +0.000 A 
ATOM      2  C   UNL     1      45.760   6.468  12.169  0.00  0.00    +0.000 A 
ATOM      3  C   UNL     1      44.976   5.436  12.709  0.00  0.00    +0.000 A 
ATOM      4  C   UNL     1      45.527   4.645  13.732  0.00  0.00    +0.000 A 
ATOM      5  C   UNL     1      46.855   4.810  14.140  0.00  0.00    +0.000 A 
ATOM      6  C   UNL     1      47.611   5.851  13.603  0.00  0.00    +0.000 A 
ENDROOT
BRANCH   1   8
ATOM      7  N   UNL     1      48.492   8.611  11.616  0.00  0.00    +0.000 NA
ATOM      8  C   UNL     1      47.855   7.755  12.070  0.00  0.00    +0.000 C 
ENDBRANCH   1   8
BRANCH   3   9
ATOM      9  C   UNL     1      43.578   5.094  12.225  0.00  0.00    +0.000 C 
BRANCH   9  10
ATOM     10  C   UNL     1      43.480   4.690  10.757  0.00  0.00    +0.000 C 
BRANCH  10  11
ATOM     11  O   UNL     1      44.069   3.404  10.540  0.00  0.00    +0.000 OA
BRANCH  11  12
ATOM     12  C   UNL     1      44.943   3.352   9.483  0.00  0.00    +0.000 A 
ATOM     13  C   UNL     1      45.313   4.556   8.901  0.00  0.00    +0.000 A 
ATOM     14  N   UNL     1      46.171   4.663   7.853  0.00  0.00    +0.000 NA
ATOM     15  C   UNL     1      46.686   3.507   7.363  0.00  0.00    +0.000 A 
ATOM     16  C   UNL     1      46.382   2.253   7.869  0.00  0.00    +0.000 A 
ATOM     17  C   UNL     1      45.492   2.190   8.946  0.00  0.00    +0.000 A 
BRANCH  16  18
ATOM     18  C   UNL     1      46.933   0.978   7.353  0.00  0.00    +0.000 C 
ATOM     19  N   UNL     1      47.730   0.989   6.247  0.00  0.00    +0.000 N 
ATOM     20  O   UNL     1      46.679  -0.085   7.911  0.00  0.00    +0.000 OA
ATOM     21  H   UNL     1      48.000   1.799   5.714  0.00  0.00    +0.000 HD
ATOM     22  H   UNL     1      48.077   0.088   5.939  0.00  0.00    +0.000 HD
ENDBRANCH  16  18
ENDBRANCH  11  12
ENDBRANCH  10  11
ENDBRANCH   9  10
ENDBRANCH   3   9
BRANCH   5  23
ATOM     23  O   UNL     1      47.527   4.000  15.020  0.00  0.00    +0.000 OA
BRANCH  23  24
ATOM     24  C   UNL     1      47.260   4.186  16.419  0.00  0.00    +0.000 C 
ATOM     25  C   UNL     1      48.253   5.184  16.980  0.00  0.00    +0.000 C 
ATOM     26  C   UNL     1      49.391   4.324  17.484  0.00  0.00    +0.000 C 
ATOM     27  O   UNL     1      48.847   3.052  17.831  0.00  0.00    +0.000 OA
ATOM     28  C   UNL     1      47.540   2.934  17.249  0.00  0.00    +0.000 C 
ENDBRANCH  23  24
ENDBRANCH   5  23
TORSDOF 8
ENDMDL
MODEL 2
REMARK VINA RESULT:    -7.338      2.468      4.248
REMARK INTER + INTRA:         -11.712
REMARK INTER:                 -10.577
REMARK INTRA:                  -1.135
REMARK UNBOUND:                -0.942
REMARK  Name = 
REMARK  8 active torsions:
REMARK  status: ('A' for Active; 'I' for Inactive)
REMARK    1  A    between atoms: C_2  and  C_3
REMARK    2  A    between atoms: C_5  and  C_6
REMARK    3  A    between atoms: C_6  and  C_7
REMARK    4  A    between atoms: C_7  and  O_8
REMARK    5  A    between atoms: O_8  and  C_9
REMARK    6  A    between atoms: C_13  and  C_14
REMARK    7  A    between atoms: C_19  and  O_20
REMARK    8  A    between atoms: O_20  and  C_21
REMARK                            x       y       z     vdW  Elec       q    Type
REMARK                         _______ _______ _______ _____ _____    ______ ____
ROOT
ATOM      1  C   UNL     1      47.435   5.092  14.755  0.00  0.00    +0.000 A 
ATOM      2  C   UNL     1      46.582   4.094  14.266  0.00  0.00    +0.000 A 
ATOM      3  C   UNL     1      45.942   4.243  13.025  0.00  0.00    +0.000 A 
ATOM      4  C   UNL     1      46.196   5.406  12.278  0.00  0.00    +0.000 A 
ATOM      5  C   UNL     1      46.987   6.439  12.791  0.00  0.00    +0.000 A 
ATOM      6  C   UNL     1      47.628   6.264  14.017  0.00  0.00    +0.000 A 
ENDROOT
BRANCH   1   8
ATOM      7  N   UNL     1      48.618   4.781  17.046  0.00  0.00    +0.000 NA
ATOM      8  C   UNL     1      48.093   4.923  16.022  0.00  0.00    +0.000 C 
ENDBRANCH   1   8
BRANCH   3   9
ATOM      9  C   UNL     1      44.954   3.239  12.457  0.00  0.00    +0.000 C 
BRANCH   9  10
ATOM     10  C   UNL     1      43.850   3.833  11.588  0.00  0.00    +0.000 C 
BRANCH  10  11
ATOM     11  O   UNL     1      43.601   3.010  10.445  0.00  0.00    +0.000 OA
BRANCH  11  12
ATOM     12  C   UNL     1      44.553   3.102   9.461  0.00  0.00    +0.000 A 
ATOM     13  C   UNL     1      44.795   4.357   8.923  0.00  0.00    +0.000 A 
ATOM     14  N   UNL     1      45.710   4.606   7.949  0.00  0.00    +0.000 NA
ATOM     15  C   UNL     1      46.419   3.543   7.492  0.00  0.00    +0.000 A 
ATOM     16  C   UNL     1      46.256   2.249   7.959  0.00  0.00    +0.000 A 
ATOM     17  C   UNL     1      45.302   2.040   8.959  0.00  0.00    +0.000 A 
BRANCH  16  18
ATOM     18  C   UNL     1      47.019   1.073   7.477  0.00  0.00    +0.000 C 
ATOM     19  N   UNL     1      48.041   1.253   6.593  0.00  0.00    +0.000 N 
ATOM     20  O   UNL     1      46.741  -0.057   7.865  0.00  0.00    +0.000 OA
ATOM     21  H   UNL     1      48.352   2.131   6.210  0.00  0.00    +0.000 HD
ATOM     22  H   UNL     1      48.528   0.414   6.297  0.00  0.00    +0.000 HD
ENDBRANCH  16  18
ENDBRANCH  11  12
ENDBRANCH  10  11
ENDBRANCH   9  10
ENDBRANCH   3   9
BRANCH   5  23
ATOM     23  O   UNL     1      47.177   7.666  12.208  0.00  0.00    +0.000 OA
BRANCH  23  24
ATOM     24  C   UNL     1      46.612   8.804  12.875  0.00  0.00    +0.000 C 
ATOM     25  C   UNL     1      45.103   8.745  12.758  0.00  0.00    +0.000 C 
ATOM     26  C   UNL     1      44.801   9.540  11.507  0.00  0.00    +0.000 C 
ATOM     27  O   UNL     1      45.846  10.499  11.346  0.00  0.00    +0.000 OA
ATOM     28  C   UNL     1      46.949  10.125  12.185  0.00  0.00    +0.000 C 
ENDBRANCH  23  24
ENDBRANCH   5  23
TORSDOF 8
ENDMDL
MODEL 3
REMARK VINA RESULT:    -7.211      1.998      2.330
REMARK INTER + INTRA:         -11.527
REMARK INTER:                 -10.719
REMARK INTRA:                  -0.808
REMARK UNBOUND:                -0.942
REMARK  Name = 
REMARK  8 active torsions:
REMARK  status: ('A' for Active; 'I' for Inactive)
REMARK    1  A    between atoms: C_2  and  C_3
REMARK    2  A    between atoms: C_5  and  C_6
REMARK    3  A    between atoms: C_6  and  C_7
REMARK    4  A    between atoms: C_7  and  O_8
REMARK    5  A    between atoms: O_8  and  C_9
REMARK    6  A    between atoms: C_13  and  C_14
REMARK    7  A    between atoms: C_19  and  O_20
REMARK    8  A    between atoms: O_20  and  C_21
REMARK                            x       y       z     vdW  Elec       q    Type
REMARK                         _______ _______ _______ _____ _____    ______ ____
ROOT
ATOM      1  C   UNL     1      45.604   7.267  12.415  0.00  0.00    +0.000 A 
ATOM      2  C   UNL     1      44.925   6.077  12.126  0.00  0.00    +0.000 A 
ATOM      3  C   UNL     1      45.349   4.857  12.678  0.00  0.00    +0.000 A 
ATOM      4  C   UNL     1      46.457   4.865  13.543  0.00  0.00    +0.000 A 
ATOM      5  C   UNL     1      47.185   6.035  13.778  0.00  0.00    +0.000 A 
ATOM      6  C   UNL     1      46.737   7.239  13.235  0.00  0.00    +0.000 A 
ENDROOT
BRANCH   1   8
ATOM      7  N   UNL     1      44.785   9.516  11.406  0.00  0.00    +0.000 NA
ATOM      8  C   UNL     1      45.154   8.512  11.852  0.00  0.00    +0.000 C 
ENDBRANCH   1   8
BRANCH   3   9
ATOM      9  C   UNL     1      44.707   3.517  12.362  0.00  0.00    +0.000 C 
BRANCH   9  10
ATOM     10  C   UNL     1      43.678   3.539  11.235  0.00  0.00    +0.000 C 
BRANCH  10  11
ATOM     11  O   UNL     1      43.940   2.502  10.285  0.00  0.00    +0.000 OA
BRANCH  11  12
ATOM     12  C   UNL     1      44.842   2.842   9.309  0.00  0.00    +0.000 A 
ATOM     13  C   UNL     1      44.967   4.187   8.996  0.00  0.00    +0.000 A 
ATOM     14  N   UNL     1      45.820   4.675   8.056  0.00  0.00    +0.000 NA
ATOM     15  C   UNL     1      46.588   3.770   7.399  0.00  0.00    +0.000 A 
ATOM     16  C   UNL     1      46.542   2.405   7.633  0.00  0.00    +0.000 A 
ATOM     17  C   UNL     1      45.647   1.947   8.606  0.00  0.00    +0.000 A 
BRANCH  16  18
ATOM     18  C   UNL     1      47.371   1.398   6.930  0.00  0.00    +0.000 C 
ATOM     19  N   UNL     1      48.508   1.793   6.289  0.00  0.00    +0.000 N 
ATOM     20  O   UNL     1      47.046   0.215   6.919  0.00  0.00    +0.000 OA
ATOM     21  H   UNL     1      48.866   2.733   6.234  0.00  0.00    +0.000 HD
ATOM     22  H   UNL     1      49.035   1.062   5.825  0.00  0.00    +0.000 HD
ENDBRANCH  16  18
ENDBRANCH  11  12
ENDBRANCH  10  11
ENDBRANCH   9  10
ENDBRANCH   3   9
BRANCH   5  23
ATOM     23  O   UNL     1      48.358   6.119  14.484  0.00  0.00    +0.000 OA
BRANCH  23  24
ATOM     24  C   UNL     1      48.807   7.430  14.858  0.00  0.00    +0.000 C 
ATOM     25  C   UNL     1      50.233   7.616  14.380  0.00  0.00    +0.000 C 
ATOM     26  C   UNL     1      51.075   7.176  15.557  0.00  0.00    +0.000 C 
ATOM     27  O   UNL     1      50.309   7.403  16.740  0.00  0.00    +0.000 OA
ATOM     28  C   UNL     1      48.937   7.606  16.370  0.00  0.00    +0.000 C 
ENDBRANCH  23  24
ENDBRANCH   5  23
TORSDOF 8
ENDMDL
MODEL 4
REMARK VINA RESULT:    -6.787      3.139      5.208
REMARK INTER + INTRA:         -10.903
REMARK INTER:                 -10.008
REMARK INTRA:                  -0.895
REMARK UNBOUND:                -0.942
REMARK  Name = 
REMARK  8 active torsions:
REMARK  status: ('A' for Active; 'I' for Inactive)
REMARK    1  A    between atoms: C_2  and  C_3
REMARK    2  A    between atoms: C_5  and  C_6
REMARK    3  A    between atoms: C_6  and  C_7
REMARK    4  A    between atoms: C_7  and  O_8
REMARK    5  A    between atoms: O_8  and  C_9
REMARK    6  A    between atoms: C_13  and  C_14
REMARK    7  A    between atoms: C_19  and  O_20
REMARK    8  A    between atoms: O_20  and  C_21
REMARK                            x       y       z     vdW  Elec       q    Type
REMARK                         _______ _______ _______ _____ _____    ______ ____
ROOT
ATOM      1  C   UNL     1      46.970   6.941  13.227  0.00  0.00    +0.000 A 
ATOM      2  C   UNL     1      46.144   5.822  13.062  0.00  0.00    +0.000 A 
ATOM      3  C   UNL     1      44.916   5.930  12.388  0.00  0.00    +0.000 A 
ATOM      4  C   UNL     1      44.549   7.182  11.865  0.00  0.00    +0.000 A 
ATOM      5  C   UNL     1      45.332   8.319  12.090  0.00  0.00    +0.000 A 
ATOM      6  C   UNL     1      46.556   8.188  12.746  0.00  0.00    +0.000 A 
ENDROOT
BRANCH   1   8
ATOM      7  N   UNL     1      49.247   6.710  14.454  0.00  0.00    +0.000 NA
ATOM      8  C   UNL     1      48.229   6.815  13.910  0.00  0.00    +0.000 C 
ENDBRANCH   1   8
BRANCH   3   9
ATOM      9  C   UNL     1      43.937   4.780  12.225  0.00  0.00    +0.000 C 
BRANCH   9  10
ATOM     10  C   UNL     1      43.545   4.460  10.785  0.00  0.00    +0.000 C 
BRANCH  10  11
ATOM     11  O   UNL     1      44.040   3.176  10.394  0.00  0.00    +0.000 OA
BRANCH  11  12
ATOM     12  C   UNL     1      44.944   3.207   9.362  0.00  0.00    +0.000 A 
ATOM     13  C   UNL     1      45.279   4.450   8.846  0.00  0.00    +0.000 A 
ATOM     14  N   UNL     1      46.162   4.640   7.829  0.00  0.00    +0.000 NA
ATOM     15  C   UNL     1      46.738   3.529   7.304  0.00  0.00    +0.000 A 
ATOM     16  C   UNL     1      46.473   2.242   7.745  0.00  0.00    +0.000 A 
ATOM     17  C   UNL     1      45.557   2.094   8.791  0.00  0.00    +0.000 A 
BRANCH  16  18
ATOM     18  C   UNL     1      47.090   1.014   7.190  0.00  0.00    +0.000 C 
ATOM     19  N   UNL     1      46.677  -0.206   7.636  0.00  0.00    +0.000 N 
ATOM     20  O   UNL     1      47.967   1.085   6.335  0.00  0.00    +0.000 OA
ATOM     21  H   UNL     1      45.970  -0.379   8.331  0.00  0.00    +0.000 HD
ATOM     22  H   UNL     1      47.134  -1.010   7.221  0.00  0.00    +0.000 HD
ENDBRANCH  16  18
ENDBRANCH  11  12
ENDBRANCH  10  11
ENDBRANCH   9  10
ENDBRANCH   3   9
BRANCH   5  23
ATOM     23  O   UNL     1      44.992   9.604  11.751  0.00  0.00    +0.000 OA
BRANCH  23  24
ATOM     24  C   UNL     1      43.847   9.778  10.903  0.00  0.00    +0.000 C 
ATOM     25  C   UNL     1      44.243  10.619   9.707  0.00  0.00    +0.000 C 
ATOM     26  C   UNL     1      43.931  12.036  10.136  0.00  0.00    +0.000 C 
ATOM     27  O   UNL     1      42.871  11.972  11.090  0.00  0.00    +0.000 OA
ATOM     28  C   UNL     1      42.749  10.618  11.553  0.00  0.00    +0.000 C 
ENDBRANCH  23  24
ENDBRANCH   5  23
TORSDOF 8
ENDMDL
MODEL 5
REMARK VINA RESULT:    -6.735      2.718      8.229
REMARK INTER + INTRA:         -10.827
REMARK INTER:                 -10.519
REMARK INTRA:                  -0.309
REMARK UNBOUND:                -0.942
REMARK  Name = 
REMARK  8 active torsions:
REMARK  status: ('A' for Active; 'I' for Inactive)
REMARK    1  A    between atoms: C_2  and  C_3
REMARK    2  A    between atoms: C_5  and  C_6
REMARK    3  A    between atoms: C_6  and  C_7
REMARK    4  A    between atoms: C_7  and  O_8
REMARK    5  A    between atoms: O_8  and  C_9
REMARK    6  A    between atoms: C_13  and  C_14
REMARK    7  A    between atoms: C_19  and  O_20
REMARK    8  A    between atoms: O_20  and  C_21
REMARK                            x       y       z     vdW  Elec       q    Type
REMARK                         _______ _______ _______ _____ _____    ______ ____
ROOT
ATOM      1  C   UNL     1      44.339   3.402  10.461  0.00  0.00    +0.000 A 
ATOM      2  C   UNL     1      44.811   4.562  11.089  0.00  0.00    +0.000 A 
ATOM      3  C   UNL     1      45.581   5.499  10.382  0.00  0.00    +0.000 A 
ATOM      4  C   UNL     1      45.847   5.255   9.023  0.00  0.00    +0.000 A 
ATOM      5  C   UNL     1      45.443   4.065   8.408  0.00  0.00    +0.000 A 
ATOM      6  C   UNL     1      44.664   3.156   9.123  0.00  0.00    +0.000 A 
ENDROOT
BRANCH   1   8
ATOM      7  N   UNL     1      42.893   1.699  11.784  0.00  0.00    +0.000 NA
ATOM      8  C   UNL     1      43.542   2.456  11.194  0.00  0.00    +0.000 C 
ENDBRANCH   1   8
BRANCH   3   9
ATOM      9  C   UNL     1      46.183   6.744  11.008  0.00  0.00    +0.000 C 
BRANCH   9  10
ATOM     10  C   UNL     1      47.234   6.488  12.084  0.00  0.00    +0.000 C 
BRANCH  10  11
ATOM     11  O   UNL     1      46.816   5.443  12.967  0.00  0.00    +0.000 OA
BRANCH  11  12
ATOM     12  C   UNL     1      47.425   5.462  14.197  0.00  0.00    +0.000 A 
ATOM     13  C   UNL     1      48.431   6.396  14.396  0.00  0.00    +0.000 A 
ATOM     14  N   UNL     1      49.120   6.538  15.559  0.00  0.00    +0.000 NA
ATOM     15  C   UNL     1      48.783   5.703  16.574  0.00  0.00    +0.000 A 
ATOM     16  C   UNL     1      47.796   4.734  16.481  0.00  0.00    +0.000 A 
ATOM     17  C   UNL     1      47.116   4.622  15.265  0.00  0.00    +0.000 A 
BRANCH  16  18
ATOM     18  C   UNL     1      47.411   3.812  17.575  0.00  0.00    +0.000 C 
ATOM     19  N   UNL     1      47.946   3.983  18.817  0.00  0.00    +0.000 N 
ATOM     20  O   UNL     1      46.616   2.900  17.375  0.00  0.00    +0.000 OA
ATOM     21  H   UNL     1      48.604   4.694  19.091  0.00  0.00    +0.000 HD
ATOM     22  H   UNL     1      47.646   3.323  19.526  0.00  0.00    +0.000 HD
ENDBRANCH  16  18
ENDBRANCH  11  12
ENDBRANCH  10  11
ENDBRANCH   9  10
ENDBRANCH   3   9
BRANCH   5  23
ATOM     23  O   UNL     1      45.775   3.669   7.138  0.00  0.00    +0.000 OA
BRANCH  23  24
ATOM     24  C   UNL     1      47.105   3.169   6.933  0.00  0.00    +0.000 C 
ATOM     25  C   UNL     1      47.401   3.154   5.447  0.00  0.00    +0.000 C 
ATOM     26  C   UNL     1      46.993   1.766   5.006  0.00  0.00    +0.000 C 
ATOM     27  O   UNL     1      47.136   0.898   6.131  0.00  0.00    +0.000 OA
ATOM     28  C   UNL     1      47.253   1.698   7.317  0.00  0.00    +0.000 C 
ENDBRANCH  23  24
ENDBRANCH   5  23
TORSDOF 8
ENDMDL
MODEL 6
REMARK VINA RESULT:    -6.663      3.479      7.243
REMARK INTER + INTRA:         -10.721
REMARK INTER:                  -9.179
REMARK INTRA:                  -1.542
REMARK UNBOUND:                -0.942
REMARK  Name = 
REMARK  8 active torsions:
REMARK  status: ('A' for Active; 'I' for Inactive)
REMARK    1  A    between atoms: C_2  and  C_3
REMARK    2  A    between atoms: C_5  and  C_6
REMARK    3  A    between atoms: C_6  and  C_7
REMARK    4  A    between atoms: C_7  and  O_8
REMARK    5  A    between atoms: O_8  and  C_9
REMARK    6  A    between atoms: C_13  and  C_14
REMARK    7  A    between atoms: C_19  and  O_20
REMARK    8  A    between atoms: O_20  and  C_21
REMARK                            x       y       z     vdW  Elec       q    Type
REMARK                         _______ _______ _______ _____ _____    ______ ____
ROOT
ATOM      1  C   UNL     1      45.677   8.914  12.051  0.00  0.00    +0.000 A 
ATOM      2  C   UNL     1      47.056   9.159  12.085  0.00  0.00    +0.000 A 
ATOM      3  C   UNL     1      47.974   8.098  12.060  0.00  0.00    +0.000 A 
ATOM      4  C   UNL     1      47.476   6.786  11.977  0.00  0.00    +0.000 A 
ATOM      5  C   UNL     1      46.102   6.528  12.017  0.00  0.00    +0.000 A 
ATOM      6  C   UNL     1      45.206   7.597  12.025  0.00  0.00    +0.000 A 
ENDROOT
BRANCH   1   8
ATOM      7  N   UNL     1      43.993  10.891  12.087  0.00  0.00    +0.000 NA
ATOM      8  C   UNL     1      44.747  10.010  12.067  0.00  0.00    +0.000 C 
ENDBRANCH   1   8
BRANCH   3   9
ATOM      9  C   UNL     1      49.479   8.278  12.160  0.00  0.00    +0.000 C 
BRANCH   9  10
ATOM     10  C   UNL     1      50.135   7.614  13.366  0.00  0.00    +0.000 C 
BRANCH  10  11
ATOM     11  O   UNL     1      49.559   8.090  14.587  0.00  0.00    +0.000 OA
BRANCH  11  12
ATOM     12  C   UNL     1      49.287   7.108  15.506  0.00  0.00    +0.000 A 
ATOM     13  C   UNL     1      50.011   7.124  16.689  0.00  0.00    +0.000 A 
ATOM     14  N   UNL     1      49.850   6.221  17.693  0.00  0.00    +0.000 NA
ATOM     15  C   UNL     1      48.915   5.256  17.503  0.00  0.00    +0.000 A 
ATOM     16  C   UNL     1      48.139   5.149  16.360  0.00  0.00    +0.000 A 
ATOM     17  C   UNL     1      48.341   6.097  15.352  0.00  0.00    +0.000 A 
BRANCH  16  18
ATOM     18  C   UNL     1      47.112   4.106  16.130  0.00  0.00    +0.000 C 
ATOM     19  N   UNL     1      46.614   3.919  14.874  0.00  0.00    +0.000 N 
ATOM     20  O   UNL     1      46.708   3.410  17.055  0.00  0.00    +0.000 OA
ATOM     21  H   UNL     1      46.873   4.431  14.047  0.00  0.00    +0.000 HD
ATOM     22  H   UNL     1      45.915   3.192  14.776  0.00  0.00    +0.000 HD
ENDBRANCH  16  18
ENDBRANCH  11  12
ENDBRANCH  10  11
ENDBRANCH   9  10
ENDBRANCH   3   9
BRANCH   5  23
ATOM     23  O   UNL     1      45.523   5.287  12.088  0.00  0.00    +0.000 OA
BRANCH  23  24
ATOM     24  C   UNL     1      44.104   5.212  11.888  0.00  0.00    +0.000 C 
ATOM     25  C   UNL     1      43.511   4.274  12.919  0.00  0.00    +0.000 C 
ATOM     26  C   UNL     1      43.509   2.926  12.232  0.00  0.00    +0.000 C 
ATOM     27  O   UNL     1      43.417   3.161  10.827  0.00  0.00    +0.000 OA
ATOM     28  C   UNL     1      43.724   4.540  10.569  0.00  0.00    +0.000 C 
ENDBRANCH  23  24
ENDBRANCH   5  23
TORSDOF 8
ENDMDL
MODEL 7
REMARK VINA RESULT:    -6.113      3.287      4.014
REMARK INTER + INTRA:          -9.915
REMARK INTER:                  -9.228
REMARK INTRA:                  -0.686
REMARK UNBOUND:                -0.942
REMARK  Name = 
REMARK  8 active torsions:
REMARK  status: ('A' for Active; 'I' for Inactive)
REMARK    1  A    between atoms: C_2  and  C_3
REMARK    2  A    between atoms: C_5  and  C_6
REMARK    3  A    between atoms: C_6  and  C_7
REMARK    4  A    between atoms: C_7  and  O_8
REMARK    5  A    between atoms: O_8  and  C_9
REMARK    6  A    between atoms: C_13  and  C_14
REMARK    7  A    between atoms: C_19  and  O_20
REMARK    8  A    between atoms: O_20  and  C_21
REMARK                            x       y       z     vdW  Elec       q    Type
REMARK                         _______ _______ _______ _____ _____    ______ ____
ROOT
ATOM      1  C   UNL     1      45.481   8.730  11.960  0.00  0.00    +0.000 A 
ATOM      2  C   UNL     1      44.967   7.463  11.654  0.00  0.00    +0.000 A 
ATOM      3  C   UNL     1      45.784   6.323  11.718  0.00  0.00    +0.000 A 
ATOM      4  C   UNL     1      47.122   6.482  12.118  0.00  0.00    +0.000 A 
ATOM      5  C   UNL     1      47.662   7.751  12.353  0.00  0.00    +0.000 A 
ATOM      6  C   UNL     1      46.830   8.869  12.301  0.00  0.00    +0.000 A 
ENDROOT
BRANCH   1   8
ATOM      7  N   UNL     1      43.953  10.828  11.854  0.00  0.00    +0.000 NA
ATOM      8  C   UNL     1      44.631   9.889  11.900  0.00  0.00    +0.000 C 
ENDBRANCH   1   8
BRANCH   3   9
ATOM      9  C   UNL     1      45.319   4.928  11.340  0.00  0.00    +0.000 C 
BRANCH   9  10
ATOM     10  C   UNL     1      43.934   4.854  10.704  0.00  0.00    +0.000 C 
BRANCH  10  11
ATOM     11  O   UNL     1      44.032   4.753   9.280  0.00  0.00    +0.000 OA
BRANCH  11  12
ATOM     12  C   UNL     1      44.751   3.672   8.836  0.00  0.00    +0.000 A 
ATOM     13  C   UNL     1      44.414   2.428   9.348  0.00  0.00    +0.000 A 
ATOM     14  N   UNL     1      45.031   1.268   9.000  0.00  0.00    +0.000 NA
ATOM     15  C   UNL     1      46.036   1.359   8.093  0.00  0.00    +0.000 A 
ATOM     16  C   UNL     1      46.453   2.550   7.521  0.00  0.00    +0.000 A 
ATOM     17  C   UNL     1      45.791   3.718   7.911  0.00  0.00    +0.000 A 
BRANCH  16  18
ATOM     18  C   UNL     1      47.546   2.674   6.528  0.00  0.00    +0.000 C 
ATOM     19  N   UNL     1      47.326   3.360   5.370  0.00  0.00    +0.000 N 
ATOM     20  O   UNL     1      48.643   2.168   6.737  0.00  0.00    +0.000 OA
ATOM     21  H   UNL     1      46.469   3.812   5.098  0.00  0.00    +0.000 HD
ATOM     22  H   UNL     1      48.109   3.413   4.728  0.00  0.00    +0.000 HD
ENDBRANCH  16  18
ENDBRANCH  11  12
ENDBRANCH  10  11
ENDBRANCH   9  10
ENDBRANCH   3   9
BRANCH   5  23
ATOM     23  O   UNL     1      48.983   8.023  12.604  0.00  0.00    +0.000 OA
BRANCH  23  24
ATOM     24  C   UNL     1      49.302   9.335  13.091  0.00  0.00    +0.000 C 
ATOM     25  C   UNL     1      50.469   9.885  12.296  0.00  0.00    +0.000 C 
ATOM     26  C   UNL     1      51.684   9.476  13.098  0.00  0.00    +0.000 C 
ATOM     27  O   UNL     1      51.281   9.367  14.463  0.00  0.00    +0.000 OA
ATOM     28  C   UNL     1      49.847   9.323  14.518  0.00  0.00    +0.000 C 
ENDBRANCH  23  24
ENDBRANCH   5  23
TORSDOF 8
ENDMDL
MODEL 8
REMARK VINA RESULT:    -6.072      2.732      3.967
REMARK INTER + INTRA:          -9.855
REMARK INTER:                  -9.011
REMARK INTRA:                  -0.844
REMARK UNBOUND:                -0.942
REMARK  Name = 
REMARK  8 active torsions:
REMARK  status: ('A' for Active; 'I' for Inactive)
REMARK    1  A    between atoms: C_2  and  C_3
REMARK    2  A    between atoms: C_5  and  C_6
REMARK    3  A    between atoms: C_6  and  C_7
REMARK    4  A    between atoms: C_7  and  O_8
REMARK    5  A    between atoms: O_8  and  C_9
REMARK    6  A    between atoms: C_13  and  C_14
REMARK    7  A    between atoms: C_19  and  O_20
REMARK    8  A    between atoms: O_20  and  C_21
REMARK                            x       y       z     vdW  Elec       q    Type
REMARK                         _______ _______ _______ _____ _____    ______ ____
ROOT
ATOM      1  C   UNL     1      48.743   8.874  16.224  0.00  0.00    +0.000 A 
ATOM      2  C   UNL     1      48.177   9.068  14.958  0.00  0.00    +0.000 A 
ATOM      3  C   UNL     1      47.974   7.983  14.089  0.00  0.00    +0.000 A 
ATOM      4  C   UNL     1      48.334   6.698  14.530  0.00  0.00    +0.000 A 
ATOM      5  C   UNL     1      48.967   6.506  15.762  0.00  0.00    +0.000 A 
ATOM      6  C   UNL     1      49.143   7.593  16.618  0.00  0.00    +0.000 A 
ENDROOT
BRANCH   1   8
ATOM      7  N   UNL     1      49.086  10.889  17.827  0.00  0.00    +0.000 NA
ATOM      8  C   UNL     1      48.935   9.992  17.108  0.00  0.00    +0.000 C 
ENDBRANCH   1   8
BRANCH   3   9
ATOM      9  C   UNL     1      47.427   8.120  12.679  0.00  0.00    +0.000 C 
BRANCH   9  10
ATOM     10  C   UNL     1      46.879   6.834  12.067  0.00  0.00    +0.000 C 
BRANCH  10  11
ATOM     11  O   UNL     1      45.506   6.644  12.422  0.00  0.00    +0.000 OA
BRANCH  11  12
ATOM     12  C   UNL     1      44.997   5.416  12.083  0.00  0.00    +0.000 A 
ATOM     13  C   UNL     1      44.261   4.743  13.046  0.00  0.00    +0.000 A 
ATOM     14  N   UNL     1      43.691   3.523  12.855  0.00  0.00    +0.000 NA
ATOM     15  C   UNL     1      43.866   2.951  11.637  0.00  0.00    +0.000 A 
ATOM     16  C   UNL     1      44.584   3.536  10.606  0.00  0.00    +0.000 A 
ATOM     17  C   UNL     1      45.155   4.789  10.848  0.00  0.00    +0.000 A 
BRANCH  16  18
ATOM     18  C   UNL     1      44.787   2.932   9.269  0.00  0.00    +0.000 C 
ATOM     19  N   UNL     1      44.226   3.520   8.174  0.00  0.00    +0.000 N 
ATOM     20  O   UNL     1      45.455   1.911   9.137  0.00  0.00    +0.000 OA
ATOM     21  H   UNL     1      43.663   4.354   8.167  0.00  0.00    +0.000 HD
ATOM     22  H   UNL     1      44.399   3.063   7.285  0.00  0.00    +0.000 HD
ENDBRANCH  16  18
ENDBRANCH  11  12
ENDBRANCH  10  11
ENDBRANCH   9  10
ENDBRANCH   3   9
BRANCH   5  23
ATOM     23  O   UNL     1      49.485   5.320  16.219  0.00  0.00    +0.000 OA
BRANCH  23  24
ATOM     24  C   UNL     1      48.888   4.752  17.394  0.00  0.00    +0.000 C 
ATOM     25  C   UNL     1      49.417   3.345  17.582  0.00  0.00    +0.000 C 
ATOM     26  C   UNL     1      48.414   2.475  16.857  0.00  0.00    +0.000 C 
ATOM     27  O   UNL     1      47.159   3.154  16.884  0.00  0.00    +0.000 OA
ATOM     28  C   UNL     1      47.384   4.525  17.246  0.00  0.00    +0.000 C 
ENDBRANCH  23  24
ENDBRANCH   5  23
TORSDOF 8
ENDMDL
MODEL 9
REMARK VINA RESULT:    -5.867      2.034      2.825
REMARK INTER + INTRA:          -9.553
REMARK INTER:                  -8.806
REMARK INTRA:                  -0.747
REMARK UNBOUND:                -0.942
REMARK  Name = 
REMARK  8 active torsions:
REMARK  status: ('A' for Active; 'I' for Inactive)
REMARK    1  A    between atoms: C_2  and  C_3
REMARK    2  A    between atoms: C_5  and  C_6
REMARK    3  A    between atoms: C_6  and  C_7
REMARK    4  A    between atoms: C_7  and  O_8
REMARK    5  A    between atoms: O_8  and  C_9
REMARK    6  A    between atoms: C_13  and  C_14
REMARK    7  A    between atoms: C_19  and  O_20
REMARK    8  A    between atoms: O_20  and  C_21
REMARK                            x       y       z     vdW  Elec       q    Type
REMARK                         _______ _______ _______ _____ _____    ______ ____
ROOT
ATOM      1  C   UNL     1      49.629   7.611  12.202  0.00  0.00    +0.000 A 
ATOM      2  C   UNL     1      48.302   7.764  11.779  0.00  0.00    +0.000 A 
ATOM      3  C   UNL     1      47.239   7.625  12.685  0.00  0.00    +0.000 A 
ATOM      4  C   UNL     1      47.541   7.352  14.031  0.00  0.00    +0.000 A 
ATOM      5  C   UNL     1      48.856   7.125  14.447  0.00  0.00    +0.000 A 
ATOM      6  C   UNL     1      49.899   7.284  13.535  0.00  0.00    +0.000 A 
ENDROOT
BRANCH   1   8
ATOM      7  N   UNL     1      51.575   7.888  10.505  0.00  0.00    +0.000 NA
ATOM      8  C   UNL     1      50.709   7.766  11.266  0.00  0.00    +0.000 C 
ENDBRANCH   1   8
BRANCH   3   9
ATOM      9  C   UNL     1      45.775   7.711  12.292  0.00  0.00    +0.000 C 
BRANCH   9  10
ATOM     10  C   UNL     1      44.998   6.402  12.390  0.00  0.00    +0.000 C 
BRANCH  10  11
ATOM     11  O   UNL     1      44.157   6.220  11.246  0.00  0.00    +0.000 OA
BRANCH  11  12
ATOM     12  C   UNL     1      44.314   5.013  10.613  0.00  0.00    +0.000 A 
ATOM     13  C   UNL     1      43.589   3.937  11.102  0.00  0.00    +0.000 A 
ATOM     14  N   UNL     1      43.637   2.684  10.577  0.00  0.00    +0.000 NA
ATOM     15  C   UNL     1      44.452   2.501   9.507  0.00  0.00    +0.000 A 
ATOM     16  C   UNL     1      45.219   3.506   8.941  0.00  0.00    +0.000 A 
ATOM     17  C   UNL     1      45.141   4.778   9.516  0.00  0.00    +0.000 A 
BRANCH  16  18
ATOM     18  C   UNL     1      46.114   3.331   7.774  0.00  0.00    +0.000 C 
ATOM     19  N   UNL     1      46.653   2.104   7.518  0.00  0.00    +0.000 N 
ATOM     20  O   UNL     1      46.374   4.276   7.036  0.00  0.00    +0.000 OA
ATOM     21  H   UNL     1      46.508   1.266   8.056  0.00  0.00    +0.000 HD
ATOM     22  H   UNL     1      47.257   2.043   6.707  0.00  0.00    +0.000 HD
ENDBRANCH  16  18
ENDBRANCH  11  12
ENDBRANCH  10  11
ENDBRANCH   9  10
ENDBRANCH   3   9
BRANCH   5  23
ATOM     23  O   UNL     1      49.239   6.711  15.698  0.00  0.00    +0.000 OA
BRANCH  23  24
ATOM     24  C   UNL     1      48.267   6.003  16.481  0.00  0.00    +0.000 C 
ATOM     25  C   UNL     1      48.856   5.707  17.845  0.00  0.00    +0.000 C 
ATOM     26  C   UNL     1      49.478   4.337  17.687  0.00  0.00    +0.000 C 
ATOM     27  O   UNL     1      48.752   3.651  16.669  0.00  0.00    +0.000 OA
ATOM     28  C   UNL     1      47.968   4.607  15.937  0.00  0.00    +0.000 C 
ENDBRANCH  23  24
ENDBRANCH   5  23
TORSDOF 8
ENDMDL
