MODEL 1
REMARK VINA RESULT:    -8.126      0.000      0.000
REMARK INTER + INTRA:         -12.250
REMARK INTER:                 -10.976
REMARK INTRA:                  -1.274
REMARK UNBOUND:                -1.274
REMARK  Name = 
REMARK  6 active torsions:
REMARK  status: ('A' for Active; 'I' for Inactive)
REMARK    1  A    between atoms: C_2  and  C_19
REMARK    2  A    between atoms: N_3  and  C_4
REMARK    3  A    between atoms: C_4  and  C_5
REMARK    4  A    between atoms: C_8  and  C_9
REMARK    5  A    between atoms: C_9  and  N_10
REMARK    6  A    between atoms: N_10  and  C_11
REMARK                            x       y       z     vdW  Elec       q    Type
REMARK                         _______ _______ _______ _____ _____    ______ ____
ROOT
ATOM      1  C   UNL     1      46.960   7.783  13.289  0.00  0.00    +0.000 C 
ENDROOT
BRANCH   1   2
ATOM      2  C   UNL     1      46.245   6.756  12.453  0.00  0.00    +0.000 A 
ATOM      3  C   UNL     1      45.288   5.908  13.027  0.00  0.00    +0.000 A 
ATOM      4  C   UNL     1      44.577   4.994  12.239  0.00  0.00    +0.000 A 
ATOM      5  C   UNL     1      44.816   4.904  10.863  0.00  0.00    +0.000 A 
ATOM      6  C   UNL     1      45.801   5.730  10.296  0.00  0.00    +0.000 A 
ATOM      7  C   UNL     1      46.516   6.637  11.086  0.00  0.00    +0.000 A 
BRANCH   5   8
ATOM      8  C   UNL     1      44.086   3.908   9.987  0.00  0.00    +0.000 C 
BRANCH   8   9
ATOM      9  N   UNL     1      44.254   4.175   8.559  0.00  0.00    +0.000 NA
ATOM     10  H   UNL     1      44.755   5.055   8.443  0.00  0.00    +0.000 HD
BRANCH   9  11
ATOM     11  C   UNL     1      44.948   3.092   7.841  0.00  0.00    +0.000 C 
ATOM     12  C   UNL     1      45.432   1.951   8.760  0.00  0.00    +0.000 C 
ATOM     13  C   UNL     1      46.276   0.921   8.010  0.00  0.00    +0.000 C 
ATOM     14  C   UNL     1      47.462   1.580   7.321  0.00  0.00    +0.000 C 
ATOM     15  C   UNL     1      46.990   2.667   6.363  0.00  0.00    +0.000 C 
ATOM     16  C   UNL     1      46.134   3.713   7.078  0.00  0.00    +0.000 C 
ENDBRANCH   9  11
ENDBRANCH   8   9
ENDBRANCH   5   8
ENDBRANCH   1   2
BRANCH   1  19
ATOM     17  O   UNL     1      49.602   6.937  13.727  0.00  0.00    +0.000 OA
ATOM     18  C   UNL     1      48.796   6.877  14.650  0.00  0.00    +0.000 C 
ATOM     19  N   UNL     1      47.481   7.222  14.508  0.00  0.00    +0.000 N 
ATOM     20  H   UNL     1      46.897   7.325  15.331  0.00  0.00    +0.000 HD
BRANCH  18  21
ATOM     21  C   UNL     1      49.193   6.388  15.972  0.00  0.00    +0.000 A 
ATOM     22  C   UNL     1      50.109   7.095  16.736  0.00  0.00    +0.000 A 
ATOM     23  S   UNL     1      50.385   6.406  18.272  0.00  0.00    +0.000 S 
ATOM     24  C   UNL     1      49.273   5.152  17.970  0.00  0.00    +0.000 A 
ATOM     25  N   UNL     1      48.987   4.222  18.920  0.00  0.00    +0.000 NA
ATOM     26  C   UNL     1      48.088   3.356  18.566  0.00  0.00    +0.000 A 
ATOM     27  N   UNL     1      47.473   3.328  17.345  0.00  0.00    +0.000 N 
ATOM     28  C   UNL     1      47.807   4.181  16.326  0.00  0.00    +0.000 A 
ATOM     29  O   UNL     1      47.375   4.008  15.191  0.00  0.00    +0.000 OA
ATOM     30  C   UNL     1      48.738   5.227  16.700  0.00  0.00    +0.000 A 
ATOM     31  H   UNL     1      46.824   2.590  17.111  0.00  0.00    +0.000 HD
ENDBRANCH  18  21
ENDBRANCH   1  19
TORSDOF 6
ENDMDL
MODEL 2
REMARK VINA RESULT:    -7.819      1.350      1.694
REMARK INTER + INTRA:         -11.836
REMARK INTER:                 -10.822
REMARK INTRA:                  -1.014
REMARK UNBOUND:                -1.274
REMARK  Name = 
REMARK  6 active torsions:
REMARK  status: ('A' for Active; 'I' for Inactive)
REMARK    1  A    between atoms: C_2  and  C_19
REMARK    2  A    between atoms: N_3  and  C_4
REMARK    3  A    between atoms: C_4  and  C_5
REMARK    4  A    between atoms: C_8  and  C_9
REMARK    5  A    between atoms: C_9  and  N_10
REMARK    6  A    between atoms: N_10  and  C_11
REMARK                            x       y       z     vdW  Elec       q    Type
REMARK                         _______ _______ _______ _____ _____    ______ ____
ROOT
ATOM      1  C   UNL     1      48.145   7.032  13.474  0.00  0.00    +0.000 C 
ENDROOT
BRANCH   1   2
ATOM      2  C   UNL     1      47.079   6.266  12.736  0.00  0.00    +0.000 A 
ATOM      3  C   UNL     1      46.561   6.749  11.526  0.00  0.00    +0.000 A 
ATOM      4  C   UNL     1      45.615   6.008  10.806  0.00  0.00    +0.000 A 
ATOM      5  C   UNL     1      45.160   4.776  11.288  0.00  0.00    +0.000 A 
ATOM      6  C   UNL     1      45.654   4.311  12.518  0.00  0.00    +0.000 A 
ATOM      7  C   UNL     1      46.594   5.055  13.239  0.00  0.00    +0.000 A 
BRANCH   5   8
ATOM      8  C   UNL     1      44.117   3.964  10.550  0.00  0.00    +0.000 C 
BRANCH   8   9
ATOM      9  N   UNL     1      44.029   4.304   9.130  0.00  0.00    +0.000 NA
ATOM     10  H   UNL     1      44.413   5.238   8.989  0.00  0.00    +0.000 HD
BRANCH   9  11
ATOM     11  C   UNL     1      44.710   3.334   8.255  0.00  0.00    +0.000 C 
ATOM     12  C   UNL     1      45.194   2.069   8.993  0.00  0.00    +0.000 C 
ATOM     13  C   UNL     1      46.023   1.154   8.092  0.00  0.00    +0.000 C 
ATOM     14  C   UNL     1      47.207   1.900   7.496  0.00  0.00    +0.000 C 
ATOM     15  C   UNL     1      46.735   3.118   6.711  0.00  0.00    +0.000 C 
ATOM     16  C   UNL     1      45.893   4.053   7.579  0.00  0.00    +0.000 C 
ENDBRANCH   9  11
ENDBRANCH   8   9
ENDBRANCH   5   8
ENDBRANCH   1   2
BRANCH   1  19
ATOM     17  O   UNL     1      50.240   6.729  15.319  0.00  0.00    +0.000 OA
ATOM     18  C   UNL     1      49.088   6.812  15.733  0.00  0.00    +0.000 C 
ATOM     19  N   UNL     1      48.008   6.911  14.901  0.00  0.00    +0.000 N 
ATOM     20  H   UNL     1      47.100   7.154  15.284  0.00  0.00    +0.000 HD
BRANCH  18  21
ATOM     21  C   UNL     1      48.792   6.771  17.167  0.00  0.00    +0.000 A 
ATOM     22  C   UNL     1      48.325   7.902  17.819  0.00  0.00    +0.000 A 
ATOM     23  S   UNL     1      47.969   7.635  19.466  0.00  0.00    +0.000 S 
ATOM     24  C   UNL     1      48.411   5.995  19.353  0.00  0.00    +0.000 A 
ATOM     25  N   UNL     1      48.291   5.159  20.419  0.00  0.00    +0.000 NA
ATOM     26  C   UNL     1      48.620   3.928  20.172  0.00  0.00    +0.000 A 
ATOM     27  N   UNL     1      49.077   3.472  18.967  0.00  0.00    +0.000 N 
ATOM     28  C   UNL     1      49.312   4.300  17.900  0.00  0.00    +0.000 A 
ATOM     29  O   UNL     1      49.898   3.893  16.902  0.00  0.00    +0.000 OA
ATOM     30  C   UNL     1      48.871   5.667  18.094  0.00  0.00    +0.000 A 
ATOM     31  H   UNL     1      49.374   2.513  18.857  0.00  0.00    +0.000 HD
ENDBRANCH  18  21
ENDBRANCH   1  19
TORSDOF 6
ENDMDL
MODEL 3
REMARK VINA RESULT:    -7.730      1.923      2.365
REMARK INTER + INTRA:         -11.715
REMARK INTER:                 -10.607
REMARK INTRA:                  -1.107
REMARK UNBOUND:                -1.274
REMARK  Name = 
REMARK  6 active torsions:
REMARK  status: ('A' for Active; 'I' for Inactive)
REMARK    1  A    between atoms: C_2  and  C_19
REMARK    2  A    between atoms: N_3  and  C_4
REMARK    3  A    between atoms: C_4  and  C_5
REMARK    4  A    between atoms: C_8  and  C_9
REMARK    5  A    between atoms: C_9  and  N_10
REMARK    6  A    between atoms: N_10  and  C_11
REMARK                            x       y       z     vdW  Elec       q    Type
REMARK                         _______ _______ _______ _____ _____    ______ ____
ROOT
ATOM      1  C   UNL     1      47.726   7.164  13.636  0.00  0.00    +0.000 C 
ENDROOT
BRANCH   1   2
ATOM      2  C   UNL     1      46.844   6.300  12.775  0.00  0.00    +0.000 A 
ATOM      3  C   UNL     1      46.183   5.190  13.319  0.00  0.00    +0.000 A 
ATOM      4  C   UNL     1      45.313   4.420  12.535  0.00  0.00    +0.000 A 
ATOM      5  C   UNL     1      45.096   4.740  11.190  0.00  0.00    +0.000 A 
ATOM      6  C   UNL     1      45.787   5.832  10.639  0.00  0.00    +0.000 A 
ATOM      7  C   UNL     1      46.661   6.595  11.420  0.00  0.00    +0.000 A 
BRANCH   5   8
ATOM      8  C   UNL     1      44.185   3.913  10.308  0.00  0.00    +0.000 C 
BRANCH   8   9
ATOM      9  N   UNL     1      44.277   4.277   8.894  0.00  0.00    +0.000 NA
ATOM     10  H   UNL     1      44.789   5.155   8.810  0.00  0.00    +0.000 HD
BRANCH   9  11
ATOM     11  C   UNL     1      44.909   3.236   8.065  0.00  0.00    +0.000 C 
ATOM     12  C   UNL     1      45.436   2.034   8.876  0.00  0.00    +0.000 C 
ATOM     13  C   UNL     1      46.214   1.046   8.008  0.00  0.00    +0.000 C 
ATOM     14  C   UNL     1      47.362   1.737   7.286  0.00  0.00    +0.000 C 
ATOM     15  C   UNL     1      46.844   2.888   6.432  0.00  0.00    +0.000 C 
ATOM     16  C   UNL     1      46.051   3.894   7.267  0.00  0.00    +0.000 C 
ENDBRANCH   9  11
ENDBRANCH   8   9
ENDBRANCH   5   8
ENDBRANCH   1   2
BRANCH   1  19
ATOM     17  O   UNL     1      50.020   6.629  15.165  0.00  0.00    +0.000 OA
ATOM     18  C   UNL     1      48.916   6.527  15.690  0.00  0.00    +0.000 C 
ATOM     19  N   UNL     1      47.749   6.721  15.005  0.00  0.00    +0.000 N 
ATOM     20  H   UNL     1      46.875   6.800  15.513  0.00  0.00    +0.000 HD
BRANCH  18  21
ATOM     21  C   UNL     1      48.778   6.146  17.098  0.00  0.00    +0.000 A 
ATOM     22  C   UNL     1      49.055   4.850  17.504  0.00  0.00    +0.000 A 
ATOM     23  S   UNL     1      48.907   4.622  19.189  0.00  0.00    +0.000 S 
ATOM     24  C   UNL     1      48.487   6.256  19.428  0.00  0.00    +0.000 A 
ATOM     25  N   UNL     1      48.273   6.751  20.676  0.00  0.00    +0.000 NA
ATOM     26  C   UNL     1      48.009   8.021  20.708  0.00  0.00    +0.000 A 
ATOM     27  N   UNL     1      47.916   8.825  19.607  0.00  0.00    +0.000 N 
ATOM     28  C   UNL     1      48.020   8.344  18.326  0.00  0.00    +0.000 A 
ATOM     29  O   UNL     1      47.745   9.052  17.363  0.00  0.00    +0.000 OA
ATOM     30  C   UNL     1      48.410   6.951  18.239  0.00  0.00    +0.000 A 
ATOM     31  H   UNL     1      47.647   9.794  19.696  0.00  0.00    +0.000 HD
ENDBRANCH  18  21
ENDBRANCH   1  19
TORSDOF 6
ENDMDL
MODEL 4
REMARK VINA RESULT:    -7.130      3.338      5.495
REMARK INTER + INTRA:         -10.905
REMARK INTER:                 -10.105
REMARK INTRA:                  -0.800
REMARK UNBOUND:                -1.274
REMARK  Name = 
REMARK  6 active torsions:
REMARK  status: ('A' for Active; 'I' for Inactive)
REMARK    1  A    between atoms: C_2  and  C_19
REMARK    2  A    between atoms: N_3  and  C_4
REMARK    3  A    between atoms: C_4  and  C_5
REMARK    4  A    between atoms: C_8  and  C_9
REMARK    5  A    between atoms: C_9  and  N_10
REMARK    6  A    between atoms: N_10  and  C_11
REMARK                            x       y       z     vdW  Elec       q    Type
REMARK                         _______ _______ _______ _____ _____    ______ ____
ROOT
ATOM      1  C   UNL     1      47.873   6.382  14.034  0.00  0.00    +0.000 C 
ENDROOT
BRANCH   1   2
ATOM      2  C   UNL     1      46.781   5.484  13.516  0.00  0.00    +0.000 A 
ATOM      3  C   UNL     1      45.571   6.023  13.056  0.00  0.00    +0.000 A 
ATOM      4  C   UNL     1      44.579   5.195  12.516  0.00  0.00    +0.000 A 
ATOM      5  C   UNL     1      44.773   3.812  12.434  0.00  0.00    +0.000 A 
ATOM      6  C   UNL     1      45.972   3.271  12.927  0.00  0.00    +0.000 A 
ATOM      7  C   UNL     1      46.959   4.098  13.474  0.00  0.00    +0.000 A 
BRANCH   5   8
ATOM      8  C   UNL     1      43.710   2.886  11.882  0.00  0.00    +0.000 C 
BRANCH   8   9
ATOM      9  N   UNL     1      43.565   2.987  10.430  0.00  0.00    +0.000 NA
ATOM     10  H   UNL     1      42.988   3.798  10.210  0.00  0.00    +0.000 HD
BRANCH   9  11
ATOM     11  C   UNL     1      44.853   3.068   9.719  0.00  0.00    +0.000 C 
ATOM     12  C   UNL     1      44.974   4.297   8.796  0.00  0.00    +0.000 C 
ATOM     13  C   UNL     1      46.256   4.273   7.964  0.00  0.00    +0.000 C 
ATOM     14  C   UNL     1      46.357   2.991   7.150  0.00  0.00    +0.000 C 
ATOM     15  C   UNL     1      46.301   1.771   8.060  0.00  0.00    +0.000 C 
ATOM     16  C   UNL     1      45.034   1.766   8.916  0.00  0.00    +0.000 C 
ENDBRANCH   9  11
ENDBRANCH   8   9
ENDBRANCH   5   8
ENDBRANCH   1   2
BRANCH   1  19
ATOM     17  O   UNL     1      48.903   7.326  11.598  0.00  0.00    +0.000 OA
ATOM     18  C   UNL     1      48.252   8.088  12.305  0.00  0.00    +0.000 C 
ATOM     19  N   UNL     1      47.757   7.724  13.527  0.00  0.00    +0.000 N 
ATOM     20  H   UNL     1      47.081   8.320  13.994  0.00  0.00    +0.000 HD
BRANCH  18  21
ATOM     21  C   UNL     1      47.992   9.469  11.894  0.00  0.00    +0.000 A 
ATOM     22  C   UNL     1      49.021  10.260  11.405  0.00  0.00    +0.000 A 
ATOM     23  S   UNL     1      48.507  11.810  10.911  0.00  0.00    +0.000 S 
ATOM     24  C   UNL     1      46.889  11.464  11.318  0.00  0.00    +0.000 A 
ATOM     25  N   UNL     1      45.898  12.367  11.090  0.00  0.00    +0.000 NA
ATOM     26  C   UNL     1      44.712  11.947  11.405  0.00  0.00    +0.000 A 
ATOM     27  N   UNL     1      44.437  10.722  11.946  0.00  0.00    +0.000 N 
ATOM     28  C   UNL     1      45.417   9.825  12.287  0.00  0.00    +0.000 A 
ATOM     29  O   UNL     1      45.153   8.821  12.941  0.00  0.00    +0.000 OA
ATOM     30  C   UNL     1      46.751  10.206  11.869  0.00  0.00    +0.000 A 
ATOM     31  H   UNL     1      43.498  10.480  12.225  0.00  0.00    +0.000 HD
ENDBRANCH  18  21
ENDBRANCH   1  19
TORSDOF 6
ENDMDL
MODEL 5
REMARK VINA RESULT:    -6.841      1.854      2.244
REMARK INTER + INTRA:         -10.515
REMARK INTER:                  -9.415
REMARK INTRA:                  -1.100
REMARK UNBOUND:                -1.274
REMARK  Name = 
REMARK  6 active torsions:
REMARK  status: ('A' for Active; 'I' for Inactive)
REMARK    1  A    between atoms: C_2  and  C_19
REMARK    2  A    between atoms: N_3  and  C_4
REMARK    3  A    between atoms: C_4  and  C_5
REMARK    4  A    between atoms: C_8  and  C_9
REMARK    5  A    between atoms: C_9  and  N_10
REMARK    6  A    between atoms: N_10  and  C_11
REMARK                            x       y       z     vdW  Elec       q    Type
REMARK                         _______ _______ _______ _____ _____    ______ ____
ROOT
ATOM      1  C   UNL     1      46.810   7.690  13.456  0.00  0.00    +0.000 C 
ENDROOT
BRANCH   1   2
ATOM      2  C   UNL     1      46.220   6.540  12.685  0.00  0.00    +0.000 A 
ATOM      3  C   UNL     1      46.095   5.274  13.274  0.00  0.00    +0.000 A 
ATOM      4  C   UNL     1      45.490   4.218  12.581  0.00  0.00    +0.000 A 
ATOM      5  C   UNL     1      45.007   4.406  11.281  0.00  0.00    +0.000 A 
ATOM      6  C   UNL     1      45.165   5.665  10.679  0.00  0.00    +0.000 A 
ATOM      7  C   UNL     1      45.776   6.717  11.370  0.00  0.00    +0.000 A 
BRANCH   5   8
ATOM      8  C   UNL     1      44.373   3.279  10.492  0.00  0.00    +0.000 C 
BRANCH   8   9
ATOM      9  N   UNL     1      44.087   3.645   9.105  0.00  0.00    +0.000 NA
ATOM     10  H   UNL     1      44.244   4.645   8.987  0.00  0.00    +0.000 HD
BRANCH   9  11
ATOM     11  C   UNL     1      44.882   2.883   8.126  0.00  0.00    +0.000 C 
ATOM     12  C   UNL     1      45.643   1.691   8.741  0.00  0.00    +0.000 C 
ATOM     13  C   UNL     1      46.572   1.015   7.733  0.00  0.00    +0.000 C 
ATOM     14  C   UNL     1      47.553   2.013   7.135  0.00  0.00    +0.000 C 
ATOM     15  C   UNL     1      46.809   3.164   6.470  0.00  0.00    +0.000 C 
ATOM     16  C   UNL     1      45.862   3.861   7.448  0.00  0.00    +0.000 C 
ENDBRANCH   9  11
ENDBRANCH   8   9
ENDBRANCH   5   8
ENDBRANCH   1   2
BRANCH   1  19
ATOM     17  O   UNL     1      48.716   9.599  14.238  0.00  0.00    +0.000 OA
ATOM     18  C   UNL     1      49.006   8.409  14.296  0.00  0.00    +0.000 C 
ATOM     19  N   UNL     1      48.156   7.419  13.889  0.00  0.00    +0.000 N 
ATOM     20  H   UNL     1      48.363   6.452  14.117  0.00  0.00    +0.000 HD
BRANCH  18  21
ATOM     21  C   UNL     1      50.318   7.970  14.778  0.00  0.00    +0.000 A 
ATOM     22  C   UNL     1      51.475   8.572  14.309  0.00  0.00    +0.000 A 
ATOM     23  S   UNL     1      52.895   7.975  15.043  0.00  0.00    +0.000 S 
ATOM     24  C   UNL     1      52.003   6.905  16.024  0.00  0.00    +0.000 A 
ATOM     25  N   UNL     1      52.620   6.117  16.945  0.00  0.00    +0.000 NA
ATOM     26  C   UNL     1      51.811   5.390  17.652  0.00  0.00    +0.000 A 
ATOM     27  N   UNL     1      50.452   5.365  17.500  0.00  0.00    +0.000 N 
ATOM     28  C   UNL     1      49.802   6.064  16.515  0.00  0.00    +0.000 A 
ATOM     29  O   UNL     1      48.612   5.874  16.287  0.00  0.00    +0.000 OA
ATOM     30  C   UNL     1      50.650   6.965  15.761  0.00  0.00    +0.000 A 
ATOM     31  H   UNL     1      49.883   4.731  18.042  0.00  0.00    +0.000 HD
ENDBRANCH  18  21
ENDBRANCH   1  19
TORSDOF 6
ENDMDL
MODEL 6
REMARK VINA RESULT:    -6.792      1.758      2.558
REMARK INTER + INTRA:         -10.448
REMARK INTER:                  -9.895
REMARK INTRA:                  -0.553
REMARK UNBOUND:                -1.274
REMARK  Name = 
REMARK  6 active torsions:
REMARK  status: ('A' for Active; 'I' for Inactive)
REMARK    1  A    between atoms: C_2  and  C_19
REMARK    2  A    between atoms: N_3  and  C_4
REMARK    3  A    between atoms: C_4  and  C_5
REMARK    4  A    between atoms: C_8  and  C_9
REMARK    5  A    between atoms: C_9  and  N_10
REMARK    6  A    between atoms: N_10  and  C_11
REMARK                            x       y       z     vdW  Elec       q    Type
REMARK                         _______ _______ _______ _____ _____    ______ ____
ROOT
ATOM      1  C   UNL     1      47.246   7.009  13.621  0.00  0.00    +0.000 C 
ENDROOT
BRANCH   1   2
ATOM      2  C   UNL     1      46.485   6.158  12.640  0.00  0.00    +0.000 A 
ATOM      3  C   UNL     1      46.423   6.512  11.285  0.00  0.00    +0.000 A 
ATOM      4  C   UNL     1      45.768   5.689  10.359  0.00  0.00    +0.000 A 
ATOM      5  C   UNL     1      45.154   4.501  10.773  0.00  0.00    +0.000 A 
ATOM      6  C   UNL     1      45.187   4.167  12.137  0.00  0.00    +0.000 A 
ATOM      7  C   UNL     1      45.835   4.993  13.061  0.00  0.00    +0.000 A 
BRANCH   5   8
ATOM      8  C   UNL     1      44.414   3.603   9.805  0.00  0.00    +0.000 C 
BRANCH   8   9
ATOM      9  N   UNL     1      45.081   2.319   9.594  0.00  0.00    +0.000 NA
ATOM     10  H   UNL     1      44.459   1.569   9.892  0.00  0.00    +0.000 HD
BRANCH   9  11
ATOM     11  C   UNL     1      45.509   2.106   8.200  0.00  0.00    +0.000 C 
ATOM     12  C   UNL     1      46.594   1.020   8.045  0.00  0.00    +0.000 C 
ATOM     13  C   UNL     1      47.120   0.928   6.613  0.00  0.00    +0.000 C 
ATOM     14  C   UNL     1      47.650   2.273   6.137  0.00  0.00    +0.000 C 
ATOM     15  C   UNL     1      46.566   3.340   6.227  0.00  0.00    +0.000 C 
ATOM     16  C   UNL     1      46.008   3.455   7.646  0.00  0.00    +0.000 C 
ENDBRANCH   9  11
ENDBRANCH   8   9
ENDBRANCH   5   8
ENDBRANCH   1   2
BRANCH   1  19
ATOM     17  O   UNL     1      48.866   7.983  15.698  0.00  0.00    +0.000 OA
ATOM     18  C   UNL     1      48.606   6.785  15.656  0.00  0.00    +0.000 C 
ATOM     19  N   UNL     1      47.867   6.222  14.653  0.00  0.00    +0.000 N 
ATOM     20  H   UNL     1      47.529   5.270  14.751  0.00  0.00    +0.000 HD
BRANCH  18  21
ATOM     21  C   UNL     1      49.112   5.863  16.675  0.00  0.00    +0.000 A 
ATOM     22  C   UNL     1      48.233   5.089  17.418  0.00  0.00    +0.000 A 
ATOM     23  S   UNL     1      49.016   4.026  18.500  0.00  0.00    +0.000 S 
ATOM     24  C   UNL     1      50.554   4.556  17.994  0.00  0.00    +0.000 A 
ATOM     25  N   UNL     1      51.689   4.001  18.496  0.00  0.00    +0.000 NA
ATOM     26  C   UNL     1      52.784   4.470  17.983  0.00  0.00    +0.000 A 
ATOM     27  N   UNL     1      52.842   5.456  17.037  0.00  0.00    +0.000 N 
ATOM     28  C   UNL     1      51.728   6.113  16.583  0.00  0.00    +0.000 A 
ATOM     29  O   UNL     1      51.828   7.114  15.881  0.00  0.00    +0.000 OA
ATOM     30  C   UNL     1      50.472   5.562  17.053  0.00  0.00    +0.000 A 
ATOM     31  H   UNL     1      53.730   5.819  16.723  0.00  0.00    +0.000 HD
ENDBRANCH  18  21
ENDBRANCH   1  19
TORSDOF 6
ENDMDL
MODEL 7
REMARK VINA RESULT:    -6.706      3.266      7.901
REMARK INTER + INTRA:         -10.332
REMARK INTER:                  -9.089
REMARK INTRA:                  -1.243
REMARK UNBOUND:                -1.274
REMARK  Name = 
REMARK  6 active torsions:
REMARK  status: ('A' for Active; 'I' for Inactive)
REMARK    1  A    between atoms: C_2  and  C_19
REMARK    2  A    between atoms: N_3  and  C_4
REMARK    3  A    between atoms: C_4  and  C_5
REMARK    4  A    between atoms: C_8  and  C_9
REMARK    5  A    between atoms: C_9  and  N_10
REMARK    6  A    between atoms: N_10  and  C_11
REMARK                            x       y       z     vdW  Elec       q    Type
REMARK                         _______ _______ _______ _____ _____    ______ ____
ROOT
ATOM      1  C   UNL     1      48.198   8.123  11.928  0.00  0.00    +0.000 C 
ENDROOT
BRANCH   1   2
ATOM      2  C   UNL     1      48.444   8.006  13.408  0.00  0.00    +0.000 A 
ATOM      3  C   UNL     1      47.818   8.881  14.307  0.00  0.00    +0.000 A 
ATOM      4  C   UNL     1      47.995   8.735  15.689  0.00  0.00    +0.000 A 
ATOM      5  C   UNL     1      48.811   7.718  16.198  0.00  0.00    +0.000 A 
ATOM      6  C   UNL     1      49.465   6.865  15.294  0.00  0.00    +0.000 A 
ATOM      7  C   UNL     1      49.293   7.017  13.914  0.00  0.00    +0.000 A 
BRANCH   5   8
ATOM      8  C   UNL     1      49.047   7.550  17.684  0.00  0.00    +0.000 C 
BRANCH   8   9
ATOM      9  N   UNL     1      47.954   6.851  18.359  0.00  0.00    +0.000 NA
ATOM     10  H   UNL     1      47.082   7.050  17.871  0.00  0.00    +0.000 HD
BRANCH   9  11
ATOM     11  C   UNL     1      48.166   5.396  18.458  0.00  0.00    +0.000 C 
ATOM     12  C   UNL     1      49.620   4.962  18.181  0.00  0.00    +0.000 C 
ATOM     13  C   UNL     1      49.774   3.442  18.143  0.00  0.00    +0.000 C 
ATOM     14  C   UNL     1      48.835   2.822  17.118  0.00  0.00    +0.000 C 
ATOM     15  C   UNL     1      47.389   3.193  17.420  0.00  0.00    +0.000 C 
ATOM     16  C   UNL     1      47.198   4.709  17.474  0.00  0.00    +0.000 C 
ENDBRANCH   9  11
ENDBRANCH   8   9
ENDBRANCH   5   8
ENDBRANCH   1   2
BRANCH   1  19
ATOM     17  O   UNL     1      45.406   7.867  11.762  0.00  0.00    +0.000 OA
ATOM     18  C   UNL     1      46.115   6.968  11.321  0.00  0.00    +0.000 C 
ATOM     19  N   UNL     1      47.479   6.991  11.407  0.00  0.00    +0.000 N 
ATOM     20  H   UNL     1      48.027   6.320  10.878  0.00  0.00    +0.000 HD
BRANCH  18  21
ATOM     21  C   UNL     1      45.531   5.776  10.701  0.00  0.00    +0.000 A 
ATOM     22  C   UNL     1      45.786   5.483   9.370  0.00  0.00    +0.000 A 
ATOM     23  S   UNL     1      45.079   4.019   8.852  0.00  0.00    +0.000 S 
ATOM     24  C   UNL     1      44.426   3.724  10.397  0.00  0.00    +0.000 A 
ATOM     25  N   UNL     1      43.734   2.584  10.662  0.00  0.00    +0.000 NA
ATOM     26  C   UNL     1      43.339   2.473  11.892  0.00  0.00    +0.000 A 
ATOM     27  N   UNL     1      43.554   3.408  12.866  0.00  0.00    +0.000 N 
ATOM     28  C   UNL     1      44.155   4.615  12.617  0.00  0.00    +0.000 A 
ATOM     29  O   UNL     1      44.162   5.503  13.463  0.00  0.00    +0.000 OA
ATOM     30  C   UNL     1      44.699   4.748  11.280  0.00  0.00    +0.000 A 
ATOM     31  H   UNL     1      43.167   3.288  13.791  0.00  0.00    +0.000 HD
ENDBRANCH  18  21
ENDBRANCH   1  19
TORSDOF 6
ENDMDL
MODEL 8
REMARK VINA RESULT:    -6.634      4.758      7.504
REMARK INTER + INTRA:         -10.235
REMARK INTER:                  -9.223
REMARK INTRA:                  -1.012
REMARK UNBOUND:                -1.274
REMARK  Name = 
REMARK  6 active torsions:
REMARK  status: ('A' for Active; 'I' for Inactive)
REMARK    1  A    between atoms: C_2  and  C_19
REMARK    2  A    between atoms: N_3  and  C_4
REMARK    3  A    between atoms: C_4  and  C_5
REMARK    4  A    between atoms: C_8  and  C_9
REMARK    5  A    between atoms: C_9  and  N_10
REMARK    6  A    between atoms: N_10  and  C_11
REMARK                            x       y       z     vdW  Elec       q    Type
REMARK                         _______ _______ _______ _____ _____    ______ ____
ROOT
ATOM      1  C   UNL     1      46.712   8.706  12.446  0.00  0.00    +0.000 C 
ENDROOT
BRANCH   1   2
ATOM      2  C   UNL     1      48.150   8.728  12.004  0.00  0.00    +0.000 A 
ATOM      3  C   UNL     1      48.831   9.943  11.849  0.00  0.00    +0.000 A 
ATOM      4  C   UNL     1      50.187   9.964  11.498  0.00  0.00    +0.000 A 
ATOM      5  C   UNL     1      50.886   8.770  11.284  0.00  0.00    +0.000 A 
ATOM      6  C   UNL     1      50.192   7.555  11.405  0.00  0.00    +0.000 A 
ATOM      7  C   UNL     1      48.836   7.535  11.749  0.00  0.00    +0.000 A 
BRANCH   5   8
ATOM      8  C   UNL     1      52.343   8.758  10.876  0.00  0.00    +0.000 C 
BRANCH   8   9
ATOM      9  N   UNL     1      52.940   7.423  10.934  0.00  0.00    +0.000 NA
ATOM     10  H   UNL     1      52.238   6.761  11.262  0.00  0.00    +0.000 HD
BRANCH   9  11
ATOM     11  C   UNL     1      53.501   6.979   9.646  0.00  0.00    +0.000 C 
ATOM     12  C   UNL     1      52.484   7.009   8.486  0.00  0.00    +0.000 C 
ATOM     13  C   UNL     1      53.053   6.403   7.203  0.00  0.00    +0.000 C 
ATOM     14  C   UNL     1      53.541   4.981   7.438  0.00  0.00    +0.000 C 
ATOM     15  C   UNL     1      54.592   4.950   8.540  0.00  0.00    +0.000 C 
ATOM     16  C   UNL     1      54.061   5.556   9.839  0.00  0.00    +0.000 C 
ENDBRANCH   9  11
ENDBRANCH   8   9
ENDBRANCH   5   8
ENDBRANCH   1   2
BRANCH   1  19
ATOM     17  O   UNL     1      44.372   7.965  11.081  0.00  0.00    +0.000 OA
ATOM     18  C   UNL     1      45.025   7.101  11.657  0.00  0.00    +0.000 C 
ATOM     19  N   UNL     1      46.147   7.383  12.385  0.00  0.00    +0.000 N 
ATOM     20  H   UNL     1      46.749   6.627  12.694  0.00  0.00    +0.000 HD
BRANCH  18  21
ATOM     21  C   UNL     1      44.613   5.695  11.632  0.00  0.00    +0.000 A 
ATOM     22  C   UNL     1      43.937   5.144  12.710  0.00  0.00    +0.000 A 
ATOM     23  S   UNL     1      43.479   3.519  12.462  0.00  0.00    +0.000 S 
ATOM     24  C   UNL     1      44.154   3.510  10.898  0.00  0.00    +0.000 A 
ATOM     25  N   UNL     1      44.059   2.415  10.097  0.00  0.00    +0.000 NA
ATOM     26  C   UNL     1      44.576   2.570   8.918  0.00  0.00    +0.000 A 
ATOM     27  N   UNL     1      45.196   3.708   8.483  0.00  0.00    +0.000 N 
ATOM     28  C   UNL     1      45.406   4.795   9.293  0.00  0.00    +0.000 A 
ATOM     29  O   UNL     1      46.128   5.719   8.934  0.00  0.00    +0.000 OA
ATOM     30  C   UNL     1      44.763   4.709  10.589  0.00  0.00    +0.000 A 
ATOM     31  H   UNL     1      45.632   3.743   7.573  0.00  0.00    +0.000 HD
ENDBRANCH  18  21
ENDBRANCH   1  19
TORSDOF 6
ENDMDL
MODEL 9
REMARK VINA RESULT:    -6.614      3.430      7.743
REMARK INTER + INTRA:         -10.208
REMARK INTER:                  -8.805
REMARK INTRA:                  -1.403
REMARK UNBOUND:                -1.274
REMARK  Name = 
REMARK  6 active torsions:
REMARK  status: ('A' for Active; 'I' for Inactive)
REMARK    1  A    between atoms: C_2  and  C_19
REMARK    2  A    between atoms: N_3  and  C_4
REMARK    3  A    between atoms: C_4  and  C_5
REMARK    4  A    between atoms: C_8  and  C_9
REMARK    5  A    between atoms: C_9  and  N_10
REMARK    6  A    between atoms: N_10  and  C_11
REMARK                            x       y       z     vdW  Elec       q    Type
REMARK                         _______ _______ _______ _____ _____    ______ ____
ROOT
ATOM      1  C   UNL     1      47.834   9.040  14.121  0.00  0.00    +0.000 C 
ENDROOT
BRANCH   1   2
ATOM      2  C   UNL     1      48.559   8.353  15.248  0.00  0.00    +0.000 A 
ATOM      3  C   UNL     1      48.413   8.800  16.568  0.00  0.00    +0.000 A 
ATOM      4  C   UNL     1      49.037   8.125  17.626  0.00  0.00    +0.000 A 
ATOM      5  C   UNL     1      49.827   6.996  17.381  0.00  0.00    +0.000 A 
ATOM      6  C   UNL     1      50.000   6.571  16.053  0.00  0.00    +0.000 A 
ATOM      7  C   UNL     1      49.382   7.251  14.998  0.00  0.00    +0.000 A 
BRANCH   5   8
ATOM      8  C   UNL     1      50.538   6.260  18.496  0.00  0.00    +0.000 C 
BRANCH   8   9
ATOM      9  N   UNL     1      49.621   5.538  19.378  0.00  0.00    +0.000 NA
ATOM     10  H   UNL     1      48.796   6.114  19.541  0.00  0.00    +0.000 HD
BRANCH   9  11
ATOM     11  C   UNL     1      49.228   4.218  18.856  0.00  0.00    +0.000 C 
ATOM     12  C   UNL     1      50.263   3.602  17.892  0.00  0.00    +0.000 C 
ATOM     13  C   UNL     1      49.760   2.307  17.254  0.00  0.00    +0.000 C 
ATOM     14  C   UNL     1      48.438   2.528  16.534  0.00  0.00    +0.000 C 
ATOM     15  C   UNL     1      47.390   3.079  17.494  0.00  0.00    +0.000 C 
ATOM     16  C   UNL     1      47.862   4.372  18.159  0.00  0.00    +0.000 C 
ENDBRANCH   9  11
ENDBRANCH   8   9
ENDBRANCH   5   8
ENDBRANCH   1   2
BRANCH   1  19
ATOM     17  O   UNL     1      47.805   7.415  11.831  0.00  0.00    +0.000 OA
ATOM     18  C   UNL     1      46.805   7.463  12.540  0.00  0.00    +0.000 C 
ATOM     19  N   UNL     1      46.719   8.266  13.644  0.00  0.00    +0.000 N 
ATOM     20  H   UNL     1      45.950   8.144  14.295  0.00  0.00    +0.000 HD
BRANCH  18  21
ATOM     21  C   UNL     1      45.610   6.680  12.221  0.00  0.00    +0.000 A 
ATOM     22  C   UNL     1      44.514   7.285  11.624  0.00  0.00    +0.000 A 
ATOM     23  S   UNL     1      43.251   6.195  11.264  0.00  0.00    +0.000 S 
ATOM     24  C   UNL     1      44.140   4.878  11.878  0.00  0.00    +0.000 A 
ATOM     25  N   UNL     1      43.647   3.612  11.824  0.00  0.00    +0.000 NA
ATOM     26  C   UNL     1      44.453   2.706  12.285  0.00  0.00    +0.000 A 
ATOM     27  N   UNL     1      45.689   2.958  12.812  0.00  0.00    +0.000 N 
ATOM     28  C   UNL     1      46.178   4.228  12.981  0.00  0.00    +0.000 A 
ATOM     29  O   UNL     1      47.202   4.429  13.627  0.00  0.00    +0.000 OA
ATOM     30  C   UNL     1      45.357   5.269  12.396  0.00  0.00    +0.000 A 
ATOM     31  H   UNL     1      46.242   2.213  13.210  0.00  0.00    +0.000 HD
ENDBRANCH  18  21
ENDBRANCH   1  19
TORSDOF 6
ENDMDL
