MODEL 1
REMARK VINA RESULT:    -8.158      0.000      0.000
REMARK INTER + INTRA:         -11.928
REMARK INTER:                 -11.259
REMARK INTRA:                  -0.670
REMARK UNBOUND:                -0.670
REMARK  Name = 
REMARK  9 active torsions:
REMARK  status: ('A' for Active; 'I' for Inactive)
REMARK    1  A    between atoms: C_1  and  C_2
REMARK    2  A    between atoms: C_6  and  N_7
REMARK    3  A    between atoms: N_7  and  C_8
REMARK    4  A    between atoms: C_8  and  C_9
REMARK    5  A    between atoms: C_12  and  C_13
REMARK    6  A    between atoms: C_13  and  O_15
REMARK    7  A    between atoms: C_19  and  O_20
REMARK    8  A    between atoms: O_20  and  C_21
REMARK    9  A    between atoms: N_23  and  C_24
REMARK                            x       y       z     vdW  Elec       q    Type
REMARK                         _______ _______ _______ _____ _____    ______ ____
ROOT
ATOM      1  C   UNL     1      47.437   8.350  13.857  0.00  0.00    +0.000 C 
ATOM      2  C   UNL     1      46.547   7.563  12.932  0.00  0.00    +0.000 A 
ATOM      3  C   UNL     1      45.599   8.184  12.100  0.00  0.00    +0.000 A 
ATOM      4 CL   UNL     1      45.376   9.902  12.052  0.00  0.00    +0.000 Cl
ATOM      5  C   UNL     1      44.771   7.431  11.258  0.00  0.00    +0.000 A 
ATOM      6  C   UNL     1      44.873   6.042  11.187  0.00  0.00    +0.000 A 
ATOM      7  C   UNL     1      45.796   5.423  12.035  0.00  0.00    +0.000 A 
ATOM      8  C   UNL     1      46.631   6.156  12.893  0.00  0.00    +0.000 A 
ENDROOT
BRANCH   6   9
ATOM      9  N   UNL     1      43.971   5.338  10.392  0.00  0.00    +0.000 N 
ATOM     10  H   UNL     1      43.885   5.715   9.453  0.00  0.00    +0.000 HD
BRANCH   9  11
ATOM     11  C   UNL     1      43.932   3.881  10.384  0.00  0.00    +0.000 C 
BRANCH  11  12
ATOM     12  C   UNL     1      44.868   3.380   9.307  0.00  0.00    +0.000 A 
ATOM     13  C   UNL     1      45.518   4.263   8.434  0.00  0.00    +0.000 A 
ATOM     14  C   UNL     1      46.416   3.779   7.473  0.00  0.00    +0.000 A 
ATOM     15  C   UNL     1      46.660   2.403   7.371  0.00  0.00    +0.000 A 
ATOM     16  C   UNL     1      46.015   1.518   8.242  0.00  0.00    +0.000 A 
ATOM     17  C   UNL     1      45.125   2.004   9.199  0.00  0.00    +0.000 A 
BRANCH  15  18
ATOM     18  C   UNL     1      47.635   1.834   6.407  0.00  0.00    +0.000 C 
ATOM     19  O   UNL     1      47.398   0.842   5.738  0.00  0.00    +0.000 OA
BRANCH  18  20
ATOM     20  O   UNL     1      48.791   2.523   6.315  0.00  0.00    +0.000 OA
ATOM     21  H   UNL     1      48.705   3.430   5.970  0.00  0.00    +0.000 HD
ENDBRANCH  18  20
ENDBRANCH  15  18
ENDBRANCH  11  12
ENDBRANCH   9  11
ENDBRANCH   6   9
BRANCH   8  22
ATOM     22  O   UNL     1      47.576   5.548  13.704  0.00  0.00    +0.000 OA
BRANCH  22  23
ATOM     23  C   UNL     1      47.132   4.865  14.910  0.00  0.00    +0.000 C 
ATOM     24  C   UNL     1      48.021   5.017  16.166  0.00  0.00    +0.000 C 
ATOM     25  N   UNL     1      48.191   3.558  16.250  0.00  0.00    +0.000 NA
ATOM     26  C   UNL     1      47.484   3.023  17.412  0.00  0.00    +0.000 C 
ATOM     27  C   UNL     1      47.419   3.353  15.015  0.00  0.00    +0.000 C 
ENDBRANCH  22  23
ENDBRANCH   8  22
TORSDOF 7
ENDMDL
MODEL 2
REMARK VINA RESULT:    -7.675      2.689      5.085
REMARK INTER + INTRA:         -11.262
REMARK INTER:                 -10.356
REMARK INTRA:                  -0.905
REMARK UNBOUND:                -0.670
REMARK  Name = 
REMARK  9 active torsions:
REMARK  status: ('A' for Active; 'I' for Inactive)
REMARK    1  A    between atoms: C_1  and  C_2
REMARK    2  A    between atoms: C_6  and  N_7
REMARK    3  A    between atoms: N_7  and  C_8
REMARK    4  A    between atoms: C_8  and  C_9
REMARK    5  A    between atoms: C_12  and  C_13
REMARK    6  A    between atoms: C_13  and  O_15
REMARK    7  A    between atoms: C_19  and  O_20
REMARK    8  A    between atoms: O_20  and  C_21
REMARK    9  A    between atoms: N_23  and  C_24
REMARK                            x       y       z     vdW  Elec       q    Type
REMARK                         _______ _______ _______ _____ _____    ______ ____
ROOT
ATOM      1  C   UNL     1      47.288   9.505  12.457  0.00  0.00    +0.000 C 
ATOM      2  C   UNL     1      46.564   8.210  12.204  0.00  0.00    +0.000 A 
ATOM      3  C   UNL     1      47.222   6.968  12.237  0.00  0.00    +0.000 A 
ATOM      4 CL   UNL     1      48.913   6.812  12.582  0.00  0.00    +0.000 Cl
ATOM      5  C   UNL     1      46.531   5.776  11.984  0.00  0.00    +0.000 A 
ATOM      6  C   UNL     1      45.162   5.769  11.720  0.00  0.00    +0.000 A 
ATOM      7  C   UNL     1      44.514   7.006  11.659  0.00  0.00    +0.000 A 
ATOM      8  C   UNL     1      45.187   8.214  11.902  0.00  0.00    +0.000 A 
ENDROOT
BRANCH   6   9
ATOM      9  N   UNL     1      44.543   4.563  11.397  0.00  0.00    +0.000 N 
ATOM     10  H   UNL     1      43.968   4.193  12.149  0.00  0.00    +0.000 HD
BRANCH   9  11
ATOM     11  C   UNL     1      43.920   4.346  10.097  0.00  0.00    +0.000 C 
BRANCH  11  12
ATOM     12  C   UNL     1      44.922   3.670   9.188  0.00  0.00    +0.000 A 
ATOM     13  C   UNL     1      45.112   2.282   9.214  0.00  0.00    +0.000 A 
ATOM     14  C   UNL     1      46.014   1.672   8.332  0.00  0.00    +0.000 A 
ATOM     15  C   UNL     1      46.742   2.452   7.422  0.00  0.00    +0.000 A 
ATOM     16  C   UNL     1      46.553   3.837   7.392  0.00  0.00    +0.000 A 
ATOM     17  C   UNL     1      45.653   4.440   8.270  0.00  0.00    +0.000 A 
BRANCH  15  18
ATOM     18  C   UNL     1      47.675   1.860   6.430  0.00  0.00    +0.000 C 
ATOM     19  O   UNL     1      47.423   0.838   5.817  0.00  0.00    +0.000 OA
BRANCH  18  20
ATOM     20  O   UNL     1      48.811   2.566   6.248  0.00  0.00    +0.000 OA
ATOM     21  H   UNL     1      48.720   3.356   5.685  0.00  0.00    +0.000 HD
ENDBRANCH  18  20
ENDBRANCH  15  18
ENDBRANCH  11  12
ENDBRANCH   9  11
ENDBRANCH   6   9
BRANCH   8  22
ATOM     22  O   UNL     1      44.538   9.439  11.884  0.00  0.00    +0.000 OA
BRANCH  22  23
ATOM     23  C   UNL     1      44.057   9.960  10.614  0.00  0.00    +0.000 C 
ATOM     24  C   UNL     1      44.094  11.494  10.430  0.00  0.00    +0.000 C 
ATOM     25  N   UNL     1      42.643  11.524  10.187  0.00  0.00    +0.000 NA
ATOM     26  C   UNL     1      42.361  11.852   8.792  0.00  0.00    +0.000 C 
ATOM     27  C   UNL     1      42.529  10.078  10.429  0.00  0.00    +0.000 C 
ENDBRANCH  22  23
ENDBRANCH   8  22
TORSDOF 7
ENDMDL
MODEL 3
REMARK VINA RESULT:    -6.653      3.133      7.833
REMARK INTER + INTRA:          -9.851
REMARK INTER:                  -9.424
REMARK INTRA:                  -0.426
REMARK UNBOUND:                -0.670
REMARK  Name = 
REMARK  9 active torsions:
REMARK  status: ('A' for Active; 'I' for Inactive)
REMARK    1  A    between atoms: C_1  and  C_2
REMARK    2  A    between atoms: C_6  and  N_7
REMARK    3  A    between atoms: N_7  and  C_8
REMARK    4  A    between atoms: C_8  and  C_9
REMARK    5  A    between atoms: C_12  and  C_13
REMARK    6  A    between atoms: C_13  and  O_15
REMARK    7  A    between atoms: C_19  and  O_20
REMARK    8  A    between atoms: O_20  and  C_21
REMARK    9  A    between atoms: N_23  and  C_24
REMARK                            x       y       z     vdW  Elec       q    Type
REMARK                         _______ _______ _______ _____ _____    ______ ____
ROOT
ATOM      1  C   UNL     1      44.756   7.738  11.355  0.00  0.00    +0.000 C 
ATOM      2  C   UNL     1      45.393   6.738  12.283  0.00  0.00    +0.000 A 
ATOM      3  C   UNL     1      46.608   6.999  12.941  0.00  0.00    +0.000 A 
ATOM      4 CL   UNL     1      47.473   8.489  12.756  0.00  0.00    +0.000 Cl
ATOM      5  C   UNL     1      47.190   6.048  13.789  0.00  0.00    +0.000 A 
ATOM      6  C   UNL     1      46.577   4.822  14.039  0.00  0.00    +0.000 A 
ATOM      7  C   UNL     1      45.383   4.551  13.363  0.00  0.00    +0.000 A 
ATOM      8  C   UNL     1      44.784   5.486  12.503  0.00  0.00    +0.000 A 
ENDROOT
BRANCH   6   9
ATOM      9  N   UNL     1      47.239   3.883  14.828  0.00  0.00    +0.000 N 
ATOM     10  H   UNL     1      48.162   3.643  14.476  0.00  0.00    +0.000 HD
BRANCH   9  11
ATOM     11  C   UNL     1      47.231   3.963  16.283  0.00  0.00    +0.000 C 
BRANCH  11  12
ATOM     12  C   UNL     1      48.606   3.595  16.794  0.00  0.00    +0.000 A 
ATOM     13  C   UNL     1      49.066   2.271  16.766  0.00  0.00    +0.000 A 
ATOM     14  C   UNL     1      50.360   1.960  17.203  0.00  0.00    +0.000 A 
ATOM     15  C   UNL     1      51.202   2.973  17.682  0.00  0.00    +0.000 A 
ATOM     16  C   UNL     1      50.748   4.295  17.709  0.00  0.00    +0.000 A 
ATOM     17  C   UNL     1      49.460   4.602  17.270  0.00  0.00    +0.000 A 
BRANCH  15  18
ATOM     18  C   UNL     1      52.599   2.714  18.113  0.00  0.00    +0.000 C 
ATOM     19  O   UNL     1      53.455   3.582  18.131  0.00  0.00    +0.000 OA
BRANCH  18  20
ATOM     20  O   UNL     1      52.832   1.444  18.508  0.00  0.00    +0.000 OA
ATOM     21  H   UNL     1      53.210   1.352  19.400  0.00  0.00    +0.000 HD
ENDBRANCH  18  20
ENDBRANCH  15  18
ENDBRANCH  11  12
ENDBRANCH   9  11
ENDBRANCH   6   9
BRANCH   8  22
ATOM     22  O   UNL     1      43.580   5.237  11.863  0.00  0.00    +0.000 OA
BRANCH  22  23
ATOM     23  C   UNL     1      43.563   4.333  10.723  0.00  0.00    +0.000 C 
ATOM     24  C   UNL     1      43.757   2.829  11.021  0.00  0.00    +0.000 C 
ATOM     25  N   UNL     1      44.936   2.784  10.142  0.00  0.00    +0.000 NA
ATOM     26  C   UNL     1      44.651   2.010   8.936  0.00  0.00    +0.000 C 
ATOM     27  C   UNL     1      44.852   4.229   9.881  0.00  0.00    +0.000 C 
ENDBRANCH  22  23
ENDBRANCH   8  22
TORSDOF 7
ENDMDL
MODEL 4
REMARK VINA RESULT:    -6.298      3.838      6.944
REMARK INTER + INTRA:          -9.361
REMARK INTER:                  -8.594
REMARK INTRA:                  -0.767
REMARK UNBOUND:                -0.670
REMARK  Name = 
REMARK  9 active torsions:
REMARK  status: ('A' for Active; 'I' for Inactive)
REMARK    1  A    between atoms: C_1  and  C_2
REMARK    2  A    between atoms: C_6  and  N_7
REMARK    3  A    between atoms: N_7  and  C_8
REMARK    4  A    between atoms: C_8  and  C_9
REMARK    5  A    between atoms: C_12  and  C_13
REMARK    6  A    between atoms: C_13  and  O_15
REMARK    7  A    between atoms: C_19  and  O_20
REMARK    8  A    between atoms: O_20  and  C_21
REMARK    9  A    between atoms: N_23  and  C_24
REMARK                            x       y       z     vdW  Elec       q    Type
REMARK                         _______ _______ _______ _____ _____    ______ ____
ROOT
ATOM      1  C   UNL     1      43.069   9.809  10.381  0.00  0.00    +0.000 C 
ATOM      2  C   UNL     1      44.315   9.514  11.174  0.00  0.00    +0.000 A 
ATOM      3  C   UNL     1      45.261  10.510  11.475  0.00  0.00    +0.000 A 
ATOM      4 CL   UNL     1      45.078  12.159  10.976  0.00  0.00    +0.000 Cl
ATOM      5  C   UNL     1      46.421  10.210  12.202  0.00  0.00    +0.000 A 
ATOM      6  C   UNL     1      46.669   8.925  12.681  0.00  0.00    +0.000 A 
ATOM      7  C   UNL     1      45.742   7.929  12.357  0.00  0.00    +0.000 A 
ATOM      8  C   UNL     1      44.576   8.204  11.624  0.00  0.00    +0.000 A 
ENDROOT
BRANCH   6   9
ATOM      9  N   UNL     1      47.875   8.666  13.328  0.00  0.00    +0.000 N 
ATOM     10  H   UNL     1      47.866   8.925  14.311  0.00  0.00    +0.000 HD
BRANCH   9  11
ATOM     11  C   UNL     1      48.610   7.426  13.113  0.00  0.00    +0.000 C 
BRANCH  11  12
ATOM     12  C   UNL     1      48.248   6.454  14.214  0.00  0.00    +0.000 A 
ATOM     13  C   UNL     1      47.392   5.369  13.979  0.00  0.00    +0.000 A 
ATOM     14  C   UNL     1      47.107   4.456  15.002  0.00  0.00    +0.000 A 
ATOM     15  C   UNL     1      47.670   4.629  16.274  0.00  0.00    +0.000 A 
ATOM     16  C   UNL     1      48.526   5.708  16.512  0.00  0.00    +0.000 A 
ATOM     17  C   UNL     1      48.810   6.614  15.490  0.00  0.00    +0.000 A 
BRANCH  15  18
ATOM     18  C   UNL     1      47.444   3.669  17.385  0.00  0.00    +0.000 C 
ATOM     19  O   UNL     1      46.484   2.920  17.423  0.00  0.00    +0.000 OA
BRANCH  18  20
ATOM     20  O   UNL     1      48.406   3.679  18.331  0.00  0.00    +0.000 OA
ATOM     21  H   UNL     1      48.984   4.463  18.324  0.00  0.00    +0.000 HD
ENDBRANCH  18  20
ENDBRANCH  15  18
ENDBRANCH  11  12
ENDBRANCH   9  11
ENDBRANCH   6   9
BRANCH   8  22
ATOM     22  O   UNL     1      43.635   7.228  11.337  0.00  0.00    +0.000 OA
BRANCH  22  23
ATOM     23  C   UNL     1      43.935   5.843  11.667  0.00  0.00    +0.000 C 
ATOM     24  C   UNL     1      43.767   4.804  10.536  0.00  0.00    +0.000 C 
ATOM     25  N   UNL     1      42.797   4.048  11.343  0.00  0.00    +0.000 NA
ATOM     26  C   UNL     1      43.366   2.771  11.769  0.00  0.00    +0.000 C 
ATOM     27  C   UNL     1      42.854   5.044  12.424  0.00  0.00    +0.000 C 
ENDBRANCH  22  23
ENDBRANCH   8  22
TORSDOF 7
ENDMDL
MODEL 5
REMARK VINA RESULT:    -6.242      3.609      7.942
REMARK INTER + INTRA:          -9.283
REMARK INTER:                  -8.397
REMARK INTRA:                  -0.887
REMARK UNBOUND:                -0.670
REMARK  Name = 
REMARK  9 active torsions:
REMARK  status: ('A' for Active; 'I' for Inactive)
REMARK    1  A    between atoms: C_1  and  C_2
REMARK    2  A    between atoms: C_6  and  N_7
REMARK    3  A    between atoms: N_7  and  C_8
REMARK    4  A    between atoms: C_8  and  C_9
REMARK    5  A    between atoms: C_12  and  C_13
REMARK    6  A    between atoms: C_13  and  O_15
REMARK    7  A    between atoms: C_19  and  O_20
REMARK    8  A    between atoms: O_20  and  C_21
REMARK    9  A    between atoms: N_23  and  C_24
REMARK                            x       y       z     vdW  Elec       q    Type
REMARK                         _______ _______ _______ _____ _____    ______ ____
ROOT
ATOM      1  C   UNL     1      49.339   7.685  11.379  0.00  0.00    +0.000 C 
ATOM      2  C   UNL     1      49.055   7.275  12.800  0.00  0.00    +0.000 A 
ATOM      3  C   UNL     1      49.882   7.663  13.869  0.00  0.00    +0.000 A 
ATOM      4 CL   UNL     1      51.289   8.652  13.654  0.00  0.00    +0.000 Cl
ATOM      5  C   UNL     1      49.607   7.258  15.181  0.00  0.00    +0.000 A 
ATOM      6  C   UNL     1      48.489   6.482  15.485  0.00  0.00    +0.000 A 
ATOM      7  C   UNL     1      47.683   6.072  14.419  0.00  0.00    +0.000 A 
ATOM      8  C   UNL     1      47.943   6.460  13.094  0.00  0.00    +0.000 A 
ENDROOT
BRANCH   6   9
ATOM      9  N   UNL     1      48.309   6.041  16.795  0.00  0.00    +0.000 N 
ATOM     10  H   UNL     1      47.797   6.702  17.373  0.00  0.00    +0.000 HD
BRANCH   9  11
ATOM     11  C   UNL     1      47.927   4.667  17.095  0.00  0.00    +0.000 C 
BRANCH  11  12
ATOM     12  C   UNL     1      49.184   3.835  17.225  0.00  0.00    +0.000 A 
ATOM     13  C   UNL     1      50.373   4.381  17.727  0.00  0.00    +0.000 A 
ATOM     14  C   UNL     1      51.512   3.579  17.881  0.00  0.00    +0.000 A 
ATOM     15  C   UNL     1      51.471   2.225  17.521  0.00  0.00    +0.000 A 
ATOM     16  C   UNL     1      50.286   1.676  17.022  0.00  0.00    +0.000 A 
ATOM     17  C   UNL     1      49.153   2.476  16.874  0.00  0.00    +0.000 A 
BRANCH  15  18
ATOM     18  C   UNL     1      52.630   1.314  17.705  0.00  0.00    +0.000 C 
ATOM     19  O   UNL     1      53.778   1.655  17.478  0.00  0.00    +0.000 OA
BRANCH  18  20
ATOM     20  O   UNL     1      52.305   0.091  18.171  0.00  0.00    +0.000 OA
ATOM     21  H   UNL     1      52.806  -0.200  18.954  0.00  0.00    +0.000 HD
ENDBRANCH  18  20
ENDBRANCH  15  18
ENDBRANCH  11  12
ENDBRANCH   9  11
ENDBRANCH   6   9
BRANCH   8  22
ATOM     22  O   UNL     1      47.122   6.091  12.041  0.00  0.00    +0.000 OA
BRANCH  22  23
ATOM     23  C   UNL     1      45.767   5.646  12.327  0.00  0.00    +0.000 C 
ATOM     24  C   UNL     1      44.984   4.998  11.163  0.00  0.00    +0.000 C 
ATOM     25  N   UNL     1      43.922   6.009  11.284  0.00  0.00    +0.000 NA
ATOM     26  C   UNL     1      42.694   5.409  11.800  0.00  0.00    +0.000 C 
ATOM     27  C   UNL     1      44.657   6.717  12.343  0.00  0.00    +0.000 C 
ENDBRANCH  22  23
ENDBRANCH   8  22
TORSDOF 7
ENDMDL
MODEL 6
REMARK VINA RESULT:    -6.035      3.422      5.171
REMARK INTER + INTRA:          -8.998
REMARK INTER:                  -8.544
REMARK INTRA:                  -0.454
REMARK UNBOUND:                -0.670
REMARK  Name = 
REMARK  9 active torsions:
REMARK  status: ('A' for Active; 'I' for Inactive)
REMARK    1  A    between atoms: C_1  and  C_2
REMARK    2  A    between atoms: C_6  and  N_7
REMARK    3  A    between atoms: N_7  and  C_8
REMARK    4  A    between atoms: C_8  and  C_9
REMARK    5  A    between atoms: C_12  and  C_13
REMARK    6  A    between atoms: C_13  and  O_15
REMARK    7  A    between atoms: C_19  and  O_20
REMARK    8  A    between atoms: O_20  and  C_21
REMARK    9  A    between atoms: N_23  and  C_24
REMARK                            x       y       z     vdW  Elec       q    Type
REMARK                         _______ _______ _______ _____ _____    ______ ____
ROOT
ATOM      1  C   UNL     1      48.691   6.618  19.598  0.00  0.00    +0.000 C 
ATOM      2  C   UNL     1      48.630   6.601  18.094  0.00  0.00    +0.000 A 
ATOM      3  C   UNL     1      48.943   7.734  17.322  0.00  0.00    +0.000 A 
ATOM      4 CL   UNL     1      49.436   9.240  18.023  0.00  0.00    +0.000 Cl
ATOM      5  C   UNL     1      48.865   7.700  15.923  0.00  0.00    +0.000 A 
ATOM      6  C   UNL     1      48.506   6.539  15.241  0.00  0.00    +0.000 A 
ATOM      7  C   UNL     1      48.167   5.422  16.010  0.00  0.00    +0.000 A 
ATOM      8  C   UNL     1      48.231   5.433  17.413  0.00  0.00    +0.000 A 
ENDROOT
BRANCH   6   9
ATOM      9  N   UNL     1      48.368   6.585  13.855  0.00  0.00    +0.000 N 
ATOM     10  H   UNL     1      48.563   5.696  13.403  0.00  0.00    +0.000 HD
BRANCH   9  11
ATOM     11  C   UNL     1      47.249   7.270  13.219  0.00  0.00    +0.000 C 
BRANCH  11  12
ATOM     12  C   UNL     1      46.359   6.235  12.567  0.00  0.00    +0.000 A 
ATOM     13  C   UNL     1      45.913   6.383  11.246  0.00  0.00    +0.000 A 
ATOM     14  C   UNL     1      45.127   5.390  10.648  0.00  0.00    +0.000 A 
ATOM     15  C   UNL     1      44.770   4.245  11.373  0.00  0.00    +0.000 A 
ATOM     16  C   UNL     1      45.214   4.093  12.690  0.00  0.00    +0.000 A 
ATOM     17  C   UNL     1      46.000   5.082  13.282  0.00  0.00    +0.000 A 
BRANCH  15  18
ATOM     18  C   UNL     1      43.979   3.137  10.779  0.00  0.00    +0.000 C 
ATOM     19  O   UNL     1      44.346   2.520   9.794  0.00  0.00    +0.000 OA
BRANCH  18  20
ATOM     20  O   UNL     1      42.837   2.855  11.439  0.00  0.00    +0.000 OA
ATOM     21  H   UNL     1      42.171   3.566  11.435  0.00  0.00    +0.000 HD
ENDBRANCH  18  20
ENDBRANCH  15  18
ENDBRANCH  11  12
ENDBRANCH   9  11
ENDBRANCH   6   9
BRANCH   8  22
ATOM     22  O   UNL     1      47.936   4.315  18.176  0.00  0.00    +0.000 OA
BRANCH  22  23
ATOM     23  C   UNL     1      48.926   3.254  18.280  0.00  0.00    +0.000 C 
ATOM     24  C   UNL     1      50.396   3.640  18.001  0.00  0.00    +0.000 C 
ATOM     25  N   UNL     1      50.477   2.645  16.920  0.00  0.00    +0.000 NA
ATOM     26  C   UNL     1      51.350   1.537  17.302  0.00  0.00    +0.000 C 
ATOM     27  C   UNL     1      49.059   2.288  17.084  0.00  0.00    +0.000 C 
ENDBRANCH  22  23
ENDBRANCH   8  22
TORSDOF 7
ENDMDL
MODEL 7
REMARK VINA RESULT:    -5.929      1.983      2.556
REMARK INTER + INTRA:          -8.852
REMARK INTER:                  -8.066
REMARK INTRA:                  -0.786
REMARK UNBOUND:                -0.670
REMARK  Name = 
REMARK  9 active torsions:
REMARK  status: ('A' for Active; 'I' for Inactive)
REMARK    1  A    between atoms: C_1  and  C_2
REMARK    2  A    between atoms: C_6  and  N_7
REMARK    3  A    between atoms: N_7  and  C_8
REMARK    4  A    between atoms: C_8  and  C_9
REMARK    5  A    between atoms: C_12  and  C_13
REMARK    6  A    between atoms: C_13  and  O_15
REMARK    7  A    between atoms: C_19  and  O_20
REMARK    8  A    between atoms: O_20  and  C_21
REMARK    9  A    between atoms: N_23  and  C_24
REMARK                            x       y       z     vdW  Elec       q    Type
REMARK                         _______ _______ _______ _____ _____    ______ ____
ROOT
ATOM      1  C   UNL     1      50.549   8.082  13.846  0.00  0.00    +0.000 C 
ATOM      2  C   UNL     1      49.204   7.467  13.565  0.00  0.00    +0.000 A 
ATOM      3  C   UNL     1      48.405   7.880  12.484  0.00  0.00    +0.000 A 
ATOM      4 CL   UNL     1      48.896   9.119  11.376  0.00  0.00    +0.000 Cl
ATOM      5  C   UNL     1      47.150   7.304  12.250  0.00  0.00    +0.000 A 
ATOM      6  C   UNL     1      46.656   6.280  13.056  0.00  0.00    +0.000 A 
ATOM      7  C   UNL     1      47.438   5.889  14.147  0.00  0.00    +0.000 A 
ATOM      8  C   UNL     1      48.696   6.456  14.407  0.00  0.00    +0.000 A 
ENDROOT
BRANCH   6   9
ATOM      9  N   UNL     1      45.369   5.799  12.825  0.00  0.00    +0.000 N 
ATOM     10  H   UNL     1      44.762   5.872  13.637  0.00  0.00    +0.000 HD
BRANCH   9  11
ATOM     11  C   UNL     1      44.648   6.100  11.595  0.00  0.00    +0.000 C 
BRANCH  11  12
ATOM     12  C   UNL     1      45.040   5.085  10.545  0.00  0.00    +0.000 A 
ATOM     13  C   UNL     1      45.722   5.463   9.380  0.00  0.00    +0.000 A 
ATOM     14  C   UNL     1      46.115   4.499   8.443  0.00  0.00    +0.000 A 
ATOM     15  C   UNL     1      45.816   3.146   8.660  0.00  0.00    +0.000 A 
ATOM     16  C   UNL     1      45.137   2.765   9.821  0.00  0.00    +0.000 A 
ATOM     17  C   UNL     1      44.751   3.727  10.754  0.00  0.00    +0.000 A 
BRANCH  15  18
ATOM     18  C   UNL     1      46.247   2.073   7.728  0.00  0.00    +0.000 C 
ATOM     19  O   UNL     1      46.427   0.922   8.087  0.00  0.00    +0.000 OA
BRANCH  18  20
ATOM     20  O   UNL     1      46.396   2.476   6.449  0.00  0.00    +0.000 OA
ATOM     21  H   UNL     1      45.825   2.022   5.804  0.00  0.00    +0.000 HD
ENDBRANCH  18  20
ENDBRANCH  15  18
ENDBRANCH  11  12
ENDBRANCH   9  11
ENDBRANCH   6   9
BRANCH   8  22
ATOM     22  O   UNL     1      49.491   6.042  15.463  0.00  0.00    +0.000 OA
BRANCH  22  23
ATOM     23  C   UNL     1      48.862   5.733  16.738  0.00  0.00    +0.000 C 
ATOM     24  C   UNL     1      49.704   5.980  18.010  0.00  0.00    +0.000 C 
ATOM     25  N   UNL     1      49.568   4.568  18.403  0.00  0.00    +0.000 NA
ATOM     26  C   UNL     1      48.714   4.442  19.582  0.00  0.00    +0.000 C 
ATOM     27  C   UNL     1      48.828   4.252  17.171  0.00  0.00    +0.000 C 
ENDBRANCH  22  23
ENDBRANCH   8  22
TORSDOF 7
ENDMDL
MODEL 8
REMARK VINA RESULT:    -5.894      4.215      7.776
REMARK INTER + INTRA:          -8.804
REMARK INTER:                  -7.972
REMARK INTRA:                  -0.832
REMARK UNBOUND:                -0.670
REMARK  Name = 
REMARK  9 active torsions:
REMARK  status: ('A' for Active; 'I' for Inactive)
REMARK    1  A    between atoms: C_1  and  C_2
REMARK    2  A    between atoms: C_6  and  N_7
REMARK    3  A    between atoms: N_7  and  C_8
REMARK    4  A    between atoms: C_8  and  C_9
REMARK    5  A    between atoms: C_12  and  C_13
REMARK    6  A    between atoms: C_13  and  O_15
REMARK    7  A    between atoms: C_19  and  O_20
REMARK    8  A    between atoms: O_20  and  C_21
REMARK    9  A    between atoms: N_23  and  C_24
REMARK                            x       y       z     vdW  Elec       q    Type
REMARK                         _______ _______ _______ _____ _____    ______ ____
ROOT
ATOM      1  C   UNL     1      45.267   7.184  11.038  0.00  0.00    +0.000 C 
ATOM      2  C   UNL     1      45.716   6.230  12.113  0.00  0.00    +0.000 A 
ATOM      3  C   UNL     1      44.860   5.249  12.646  0.00  0.00    +0.000 A 
ATOM      4 CL   UNL     1      43.225   5.041  12.110  0.00  0.00    +0.000 Cl
ATOM      5  C   UNL     1      45.294   4.382  13.656  0.00  0.00    +0.000 A 
ATOM      6  C   UNL     1      46.596   4.434  14.153  0.00  0.00    +0.000 A 
ATOM      7  C   UNL     1      47.437   5.427  13.643  0.00  0.00    +0.000 A 
ATOM      8  C   UNL     1      47.022   6.313  12.635  0.00  0.00    +0.000 A 
ENDROOT
BRANCH   6   9
ATOM      9  N   UNL     1      46.949   3.601  15.212  0.00  0.00    +0.000 N 
ATOM     10  H   UNL     1      47.619   2.883  14.952  0.00  0.00    +0.000 HD
BRANCH   9  11
ATOM     11  C   UNL     1      47.228   4.129  16.542  0.00  0.00    +0.000 C 
BRANCH  11  12
ATOM     12  C   UNL     1      48.610   3.680  16.959  0.00  0.00    +0.000 A 
ATOM     13  C   UNL     1      49.025   2.351  16.804  0.00  0.00    +0.000 A 
ATOM     14  C   UNL     1      50.326   1.968  17.155  0.00  0.00    +0.000 A 
ATOM     15  C   UNL     1      51.220   2.913  17.676  0.00  0.00    +0.000 A 
ATOM     16  C   UNL     1      50.811   4.242  17.830  0.00  0.00    +0.000 A 
ATOM     17  C   UNL     1      49.516   4.620  17.476  0.00  0.00    +0.000 A 
BRANCH  15  18
ATOM     18  C   UNL     1      52.625   2.579  18.022  0.00  0.00    +0.000 C 
ATOM     19  O   UNL     1      53.538   3.379  17.910  0.00  0.00    +0.000 OA
BRANCH  18  20
ATOM     20  O   UNL     1      52.798   1.327  18.494  0.00  0.00    +0.000 OA
ATOM     21  H   UNL     1      52.575   1.206  19.434  0.00  0.00    +0.000 HD
ENDBRANCH  18  20
ENDBRANCH  15  18
ENDBRANCH  11  12
ENDBRANCH   9  11
ENDBRANCH   6   9
BRANCH   8  22
ATOM     22  O   UNL     1      47.867   7.271  12.099  0.00  0.00    +0.000 OA
BRANCH  22  23
ATOM     23  C   UNL     1      49.271   7.265  12.481  0.00  0.00    +0.000 C 
ATOM     24  C   UNL     1      49.726   8.349  13.485  0.00  0.00    +0.000 C 
ATOM     25  N   UNL     1      50.718   8.855  12.524  0.00  0.00    +0.000 NA
ATOM     26  C   UNL     1      52.075   8.556  12.978  0.00  0.00    +0.000 C 
ATOM     27  C   UNL     1      50.277   7.899  11.497  0.00  0.00    +0.000 C 
ENDBRANCH  22  23
ENDBRANCH   8  22
TORSDOF 7
ENDMDL
MODEL 9
REMARK VINA RESULT:    -5.801      3.392      4.889
REMARK INTER + INTRA:          -8.675
REMARK INTER:                  -7.837
REMARK INTRA:                  -0.838
REMARK UNBOUND:                -0.670
REMARK  Name = 
REMARK  9 active torsions:
REMARK  status: ('A' for Active; 'I' for Inactive)
REMARK    1  A    between atoms: C_1  and  C_2
REMARK    2  A    between atoms: C_6  and  N_7
REMARK    3  A    between atoms: N_7  and  C_8
REMARK    4  A    between atoms: C_8  and  C_9
REMARK    5  A    between atoms: C_12  and  C_13
REMARK    6  A    between atoms: C_13  and  O_15
REMARK    7  A    between atoms: C_19  and  O_20
REMARK    8  A    between atoms: O_20  and  C_21
REMARK    9  A    between atoms: N_23  and  C_24
REMARK                            x       y       z     vdW  Elec       q    Type
REMARK                         _______ _______ _______ _____ _____    ______ ____
ROOT
ATOM      1  C   UNL     1      52.163   7.517  15.631  0.00  0.00    +0.000 C 
ATOM      2  C   UNL     1      50.749   7.633  15.126  0.00  0.00    +0.000 A 
ATOM      3  C   UNL     1      50.343   8.680  14.279  0.00  0.00    +0.000 A 
ATOM      4 CL   UNL     1      51.426   9.918  13.734  0.00  0.00    +0.000 Cl
ATOM      5  C   UNL     1      49.019   8.777  13.832  0.00  0.00    +0.000 A 
ATOM      6  C   UNL     1      48.060   7.827  14.182  0.00  0.00    +0.000 A 
ATOM      7  C   UNL     1      48.457   6.803  15.046  0.00  0.00    +0.000 A 
ATOM      8  C   UNL     1      49.777   6.689  15.512  0.00  0.00    +0.000 A 
ENDROOT
BRANCH   6   9
ATOM      9  N   UNL     1      46.741   8.017  13.775  0.00  0.00    +0.000 N 
ATOM     10  H   UNL     1      46.278   8.782  14.258  0.00  0.00    +0.000 HD
BRANCH   9  11
ATOM     11  C   UNL     1      46.359   7.971  12.369  0.00  0.00    +0.000 C 
BRANCH  11  12
ATOM     12  C   UNL     1      45.777   6.607  12.072  0.00  0.00    +0.000 A 
ATOM     13  C   UNL     1      45.350   5.755  13.100  0.00  0.00    +0.000 A 
ATOM     14  C   UNL     1      44.771   4.515  12.799  0.00  0.00    +0.000 A 
ATOM     15  C   UNL     1      44.626   4.113  11.464  0.00  0.00    +0.000 A 
ATOM     16  C   UNL     1      45.049   4.962  10.436  0.00  0.00    +0.000 A 
ATOM     17  C   UNL     1      45.621   6.197  10.739  0.00  0.00    +0.000 A 
BRANCH  15  18
ATOM     18  C   UNL     1      43.978   2.834  11.081  0.00  0.00    +0.000 C 
ATOM     19  O   UNL     1      42.928   2.454  11.571  0.00  0.00    +0.000 OA
BRANCH  18  20
ATOM     20  O   UNL     1      44.634   2.143  10.126  0.00  0.00    +0.000 OA
ATOM     21  H   UNL     1      45.182   2.683   9.528  0.00  0.00    +0.000 HD
ENDBRANCH  18  20
ENDBRANCH  15  18
ENDBRANCH  11  12
ENDBRANCH   9  11
ENDBRANCH   6   9
BRANCH   8  22
ATOM     22  O   UNL     1      50.184   5.651  16.335  0.00  0.00    +0.000 OA
BRANCH  22  23
ATOM     23  C   UNL     1      49.354   5.289  17.474  0.00  0.00    +0.000 C 
ATOM     24  C   UNL     1      49.378   6.245  18.688  0.00  0.00    +0.000 C 
ATOM     25  N   UNL     1      49.828   5.155  19.568  0.00  0.00    +0.000 NA
ATOM     26  C   UNL     1      48.770   4.778  20.503  0.00  0.00    +0.000 C 
ATOM     27  C   UNL     1      49.901   4.215  18.438  0.00  0.00    +0.000 C 
ENDBRANCH  22  23
ENDBRANCH   8  22
TORSDOF 7
ENDMDL
