MODEL 1
REMARK VINA RESULT:    -7.850      0.000      0.000
REMARK INTER + INTRA:         -12.151
REMARK INTER:                 -11.062
REMARK INTRA:                  -1.088
REMARK UNBOUND:                -1.088
REMARK  Name = 
REMARK  8 active torsions:
REMARK  status: ('A' for Active; 'I' for Inactive)
REMARK    1  A    between atoms: C_1  and  O_2
REMARK    2  A    between atoms: O_2  and  C_3
REMARK    3  A    between atoms: C_7  and  C_8
REMARK    4  A    between atoms: N_10  and  C_11
REMARK    5  A    between atoms: C_11  and  C_12
REMARK    6  A    between atoms: C_15  and  C_16
REMARK    7  A    between atoms: C_16  and  N_17
REMARK    8  A    between atoms: C_18  and  C_20
REMARK                            x       y       z     vdW  Elec       q    Type
REMARK                         _______ _______ _______ _____ _____    ______ ____
ROOT
ATOM      1  C   UNL     1      46.886   2.209   6.430  0.00  0.00    +0.000 A 
ATOM      2  C   UNL     1      46.560   1.251   7.401  0.00  0.00    +0.000 A 
ATOM      3  C   UNL     1      45.858   1.614   8.557  0.00  0.00    +0.000 A 
ATOM      4  C   UNL     1      45.452   2.940   8.762  0.00  0.00    +0.000 A 
ATOM      5  C   UNL     1      45.825   3.905   7.818  0.00  0.00    +0.000 A 
ATOM      6  C   UNL     1      46.523   3.543   6.660  0.00  0.00    +0.000 A 
ENDROOT
BRANCH   1   7
ATOM      7  C   UNL     1      47.548   1.807   5.134  0.00  0.00    +0.000 C 
BRANCH   7  10
ATOM      8  C   UNL     1      46.707   0.042   3.629  0.00  0.00    +0.000 C 
ATOM      9  O   UNL     1      46.361   0.855   2.775  0.00  0.00    +0.000 OA
ATOM     10  N   UNL     1      47.279   0.417   4.827  0.00  0.00    +0.000 N 
ATOM     11  H   UNL     1      47.364  -0.253   5.578  0.00  0.00    +0.000 HD
BRANCH   8  16
ATOM     12  C   UNL     1      46.597  -3.695   4.280  0.00  0.00    +0.000 A 
ATOM     13  C   UNL     1      46.054  -4.169   3.085  0.00  0.00    +0.000 A 
ATOM     14  C   UNL     1      45.743  -3.281   2.053  0.00  0.00    +0.000 A 
ATOM     15  C   UNL     1      45.969  -1.912   2.207  0.00  0.00    +0.000 A 
ATOM     16  C   UNL     1      46.516  -1.422   3.399  0.00  0.00    +0.000 A 
ATOM     17  C   UNL     1      46.829  -2.320   4.430  0.00  0.00    +0.000 A 
BRANCH  12  19
ATOM     18  C   UNL     1      47.962  -5.429   5.168  0.00  0.00    +0.000 C 
ATOM     19  O   UNL     1      46.932  -4.466   5.360  0.00  0.00    +0.000 OA
ENDBRANCH  12  19
ENDBRANCH   8  16
ENDBRANCH   7  10
ENDBRANCH   1   7
BRANCH   4  20
ATOM     20  C   UNL     1      44.639   3.330   9.972  0.00  0.00    +0.000 C 
BRANCH  20  21
ATOM     21  N   UNL     1      45.119   4.548  10.564  0.00  0.00    +0.000 N 
ATOM     22  C   UNL     1      44.258   5.479  11.092  0.00  0.00    +0.000 C 
ATOM     23  O   UNL     1      43.041   5.320  11.111  0.00  0.00    +0.000 OA
ATOM     24  H   UNL     1      46.090   4.798  10.395  0.00  0.00    +0.000 HD
BRANCH  22  25
ATOM     25  C   UNL     1      44.886   6.652  11.675  0.00  0.00    +0.000 A 
ATOM     26  C   UNL     1      44.525   7.952  11.362  0.00  0.00    +0.000 A 
ATOM     27  O   UNL     1      45.238   8.852  12.086  0.00  0.00    +0.000 OA
ATOM     28  C   UNL     1      46.103   8.149  12.868  0.00  0.00    +0.000 A 
ATOM     29  N   UNL     1      46.984   8.723  13.723  0.00  0.00    +0.000 NA
ATOM     30  C   UNL     1      47.739   7.868  14.334  0.00  0.00    +0.000 A 
ATOM     31  N   UNL     1      47.684   6.501  14.167  0.00  0.00    +0.000 N 
ATOM     32  C   UNL     1      46.774   5.884  13.339  0.00  0.00    +0.000 A 
ATOM     33  O   UNL     1      46.695   4.664  13.238  0.00  0.00    +0.000 OA
ATOM     34  C   UNL     1      45.927   6.801  12.630  0.00  0.00    +0.000 A 
ATOM     35  H   UNL     1      48.304   5.894  14.682  0.00  0.00    +0.000 HD
ENDBRANCH  22  25
ENDBRANCH  20  21
ENDBRANCH   4  20
TORSDOF 7
ENDMDL
MODEL 2
REMARK VINA RESULT:    -7.691      3.795      6.905
REMARK INTER + INTRA:         -11.927
REMARK INTER:                 -11.183
REMARK INTRA:                  -0.744
REMARK UNBOUND:                -1.088
REMARK  Name = 
REMARK  8 active torsions:
REMARK  status: ('A' for Active; 'I' for Inactive)
REMARK    1  A    between atoms: C_1  and  O_2
REMARK    2  A    between atoms: O_2  and  C_3
REMARK    3  A    between atoms: C_7  and  C_8
REMARK    4  A    between atoms: N_10  and  C_11
REMARK    5  A    between atoms: C_11  and  C_12
REMARK    6  A    between atoms: C_15  and  C_16
REMARK    7  A    between atoms: C_16  and  N_17
REMARK    8  A    between atoms: C_18  and  C_20
REMARK                            x       y       z     vdW  Elec       q    Type
REMARK                         _______ _______ _______ _____ _____    ______ ____
ROOT
ATOM      1  C   UNL     1      44.913   5.267  11.406  0.00  0.00    +0.000 A 
ATOM      2  C   UNL     1      45.620   6.458  11.192  0.00  0.00    +0.000 A 
ATOM      3  C   UNL     1      46.612   6.874  12.090  0.00  0.00    +0.000 A 
ATOM      4  C   UNL     1      46.930   6.099  13.214  0.00  0.00    +0.000 A 
ATOM      5  C   UNL     1      46.186   4.937  13.456  0.00  0.00    +0.000 A 
ATOM      6  C   UNL     1      45.198   4.519  12.557  0.00  0.00    +0.000 A 
ENDROOT
BRANCH   1   7
ATOM      7  C   UNL     1      43.920   4.760  10.389  0.00  0.00    +0.000 C 
BRANCH   7  10
ATOM      8  C   UNL     1      45.361   3.903   8.579  0.00  0.00    +0.000 C 
ATOM      9  O   UNL     1      45.689   5.034   8.227  0.00  0.00    +0.000 OA
ATOM     10  N   UNL     1      44.482   3.671   9.617  0.00  0.00    +0.000 N 
ATOM     11  H   UNL     1      44.084   2.751   9.746  0.00  0.00    +0.000 HD
BRANCH   8  16
ATOM     12  C   UNL     1      46.975   1.757   5.897  0.00  0.00    +0.000 A 
ATOM     13  C   UNL     1      47.086   0.530   6.554  0.00  0.00    +0.000 A 
ATOM     14  C   UNL     1      46.616   0.387   7.860  0.00  0.00    +0.000 A 
ATOM     15  C   UNL     1      46.035   1.468   8.524  0.00  0.00    +0.000 A 
ATOM     16  C   UNL     1      45.913   2.704   7.879  0.00  0.00    +0.000 A 
ATOM     17  C   UNL     1      46.385   2.840   6.564  0.00  0.00    +0.000 A 
BRANCH  12  19
ATOM     18  C   UNL     1      46.955   1.141   3.600  0.00  0.00    +0.000 C 
ATOM     19  O   UNL     1      47.407   2.019   4.625  0.00  0.00    +0.000 OA
ENDBRANCH  12  19
ENDBRANCH   8  16
ENDBRANCH   7  10
ENDBRANCH   1   7
BRANCH   4  20
ATOM     20  C   UNL     1      48.041   6.504  14.152  0.00  0.00    +0.000 C 
BRANCH  20  21
ATOM     21  N   UNL     1      47.970   5.791  15.397  0.00  0.00    +0.000 N 
ATOM     22  C   UNL     1      49.040   5.737  16.258  0.00  0.00    +0.000 C 
ATOM     23  O   UNL     1      50.102   6.307  16.030  0.00  0.00    +0.000 OA
ATOM     24  H   UNL     1      47.186   5.157  15.528  0.00  0.00    +0.000 HD
BRANCH  22  25
ATOM     25  C   UNL     1      48.816   4.997  17.488  0.00  0.00    +0.000 A 
ATOM     26  C   UNL     1      48.580   3.634  17.532  0.00  0.00    +0.000 A 
ATOM     27  O   UNL     1      48.455   3.193  18.810  0.00  0.00    +0.000 OA
ATOM     28  C   UNL     1      48.580   4.276  19.626  0.00  0.00    +0.000 A 
ATOM     29  N   UNL     1      48.499   4.216  20.977  0.00  0.00    +0.000 NA
ATOM     30  C   UNL     1      48.603   5.371  21.550  0.00  0.00    +0.000 A 
ATOM     31  N   UNL     1      48.783   6.569  20.893  0.00  0.00    +0.000 N 
ATOM     32  C   UNL     1      48.910   6.661  19.525  0.00  0.00    +0.000 A 
ATOM     33  O   UNL     1      49.126   7.723  18.953  0.00  0.00    +0.000 OA
ATOM     34  C   UNL     1      48.785   5.399  18.850  0.00  0.00    +0.000 A 
ATOM     35  H   UNL     1      48.860   7.433  21.408  0.00  0.00    +0.000 HD
ENDBRANCH  22  25
ENDBRANCH  20  21
ENDBRANCH   4  20
TORSDOF 7
ENDMDL
MODEL 3
REMARK VINA RESULT:    -7.426      8.040     11.372
REMARK INTER + INTRA:         -11.553
REMARK INTER:                 -10.450
REMARK INTRA:                  -1.103
REMARK UNBOUND:                -1.088
REMARK  Name = 
REMARK  8 active torsions:
REMARK  status: ('A' for Active; 'I' for Inactive)
REMARK    1  A    between atoms: C_1  and  O_2
REMARK    2  A    between atoms: O_2  and  C_3
REMARK    3  A    between atoms: C_7  and  C_8
REMARK    4  A    between atoms: N_10  and  C_11
REMARK    5  A    between atoms: C_11  and  C_12
REMARK    6  A    between atoms: C_15  and  C_16
REMARK    7  A    between atoms: C_16  and  N_17
REMARK    8  A    between atoms: C_18  and  C_20
REMARK                            x       y       z     vdW  Elec       q    Type
REMARK                         _______ _______ _______ _____ _____    ______ ____
ROOT
ATOM      1  C   UNL     1      45.046   9.112  11.953  0.00  0.00    +0.000 A 
ATOM      2  C   UNL     1      44.388   8.008  11.395  0.00  0.00    +0.000 A 
ATOM      3  C   UNL     1      44.735   6.702  11.766  0.00  0.00    +0.000 A 
ATOM      4  C   UNL     1      45.740   6.473  12.716  0.00  0.00    +0.000 A 
ATOM      5  C   UNL     1      46.434   7.574  13.233  0.00  0.00    +0.000 A 
ATOM      6  C   UNL     1      46.084   8.878  12.866  0.00  0.00    +0.000 A 
ENDROOT
BRANCH   1   7
ATOM      7  C   UNL     1      44.606  10.520  11.638  0.00  0.00    +0.000 C 
BRANCH   7  10
ATOM      8  C   UNL     1      42.221  10.959  11.185  0.00  0.00    +0.000 C 
ATOM      9  O   UNL     1      42.401  11.004   9.970  0.00  0.00    +0.000 OA
ATOM     10  N   UNL     1      43.246  10.747  12.083  0.00  0.00    +0.000 N 
ATOM     11  H   UNL     1      43.098  10.915  13.069  0.00  0.00    +0.000 HD
BRANCH   8  16
ATOM     12  C   UNL     1      38.517  10.428  11.823  0.00  0.00    +0.000 A 
ATOM     13  C   UNL     1      38.284  11.327  12.865  0.00  0.00    +0.000 A 
ATOM     14  C   UNL     1      39.320  12.127  13.349  0.00  0.00    +0.000 A 
ATOM     15  C   UNL     1      40.600  12.033  12.800  0.00  0.00    +0.000 A 
ATOM     16  C   UNL     1      40.850  11.139  11.752  0.00  0.00    +0.000 A 
ATOM     17  C   UNL     1      39.802  10.341  11.269  0.00  0.00    +0.000 A 
BRANCH  12  19
ATOM     18  C   UNL     1      37.241   9.815   9.912  0.00  0.00    +0.000 C 
ATOM     19  O   UNL     1      37.585   9.590  11.274  0.00  0.00    +0.000 OA
ENDBRANCH  12  19
ENDBRANCH   8  16
ENDBRANCH   7  10
ENDBRANCH   1   7
BRANCH   4  20
ATOM     20  C   UNL     1      46.078   5.074  13.172  0.00  0.00    +0.000 C 
BRANCH  20  21
ATOM     21  N   UNL     1      46.624   5.065  14.500  0.00  0.00    +0.000 N 
ATOM     22  C   UNL     1      47.252   3.956  15.014  0.00  0.00    +0.000 C 
ATOM     23  O   UNL     1      47.404   2.924  14.369  0.00  0.00    +0.000 OA
ATOM     24  H   UNL     1      46.351   5.823  15.122  0.00  0.00    +0.000 HD
BRANCH  22  25
ATOM     25  C   UNL     1      47.772   4.101  16.363  0.00  0.00    +0.000 A 
ATOM     26  C   UNL     1      47.414   3.277  17.416  0.00  0.00    +0.000 A 
ATOM     27  O   UNL     1      48.085   3.602  18.551  0.00  0.00    +0.000 OA
ATOM     28  C   UNL     1      48.877   4.671  18.260  0.00  0.00    +0.000 A 
ATOM     29  N   UNL     1      49.688   5.276  19.161  0.00  0.00    +0.000 NA
ATOM     30  C   UNL     1      50.318   6.298  18.681  0.00  0.00    +0.000 A 
ATOM     31  N   UNL     1      50.209   6.760  17.388  0.00  0.00    +0.000 N 
ATOM     32  C   UNL     1      49.427   6.146  16.436  0.00  0.00    +0.000 A 
ATOM     33  O   UNL     1      49.378   6.530  15.273  0.00  0.00    +0.000 OA
ATOM     34  C   UNL     1      48.698   5.013  16.935  0.00  0.00    +0.000 A 
ATOM     35  H   UNL     1      50.736   7.565  17.081  0.00  0.00    +0.000 HD
ENDBRANCH  22  25
ENDBRANCH  20  21
ENDBRANCH   4  20
TORSDOF 7
ENDMDL
MODEL 4
REMARK VINA RESULT:    -7.339      3.642      6.835
REMARK INTER + INTRA:         -11.430
REMARK INTER:                 -10.543
REMARK INTRA:                  -0.887
REMARK UNBOUND:                -1.088
REMARK  Name = 
REMARK  8 active torsions:
REMARK  status: ('A' for Active; 'I' for Inactive)
REMARK    1  A    between atoms: C_1  and  O_2
REMARK    2  A    between atoms: O_2  and  C_3
REMARK    3  A    between atoms: C_7  and  C_8
REMARK    4  A    between atoms: N_10  and  C_11
REMARK    5  A    between atoms: C_11  and  C_12
REMARK    6  A    between atoms: C_15  and  C_16
REMARK    7  A    between atoms: C_16  and  N_17
REMARK    8  A    between atoms: C_18  and  C_20
REMARK                            x       y       z     vdW  Elec       q    Type
REMARK                         _______ _______ _______ _____ _____    ______ ____
ROOT
ATOM      1  C   UNL     1      45.146   5.299  11.678  0.00  0.00    +0.000 A 
ATOM      2  C   UNL     1      45.624   6.608  11.530  0.00  0.00    +0.000 A 
ATOM      3  C   UNL     1      46.674   7.082  12.327  0.00  0.00    +0.000 A 
ATOM      4  C   UNL     1      47.280   6.252  13.280  0.00  0.00    +0.000 A 
ATOM      5  C   UNL     1      46.765   4.962  13.465  0.00  0.00    +0.000 A 
ATOM      6  C   UNL     1      45.719   4.486  12.666  0.00  0.00    +0.000 A 
ENDROOT
BRANCH   1   7
ATOM      7  C   UNL     1      44.088   4.749  10.752  0.00  0.00    +0.000 C 
BRANCH   7  10
ATOM      8  C   UNL     1      45.339   3.942   8.785  0.00  0.00    +0.000 C 
ATOM      9  O   UNL     1      45.532   5.082   8.368  0.00  0.00    +0.000 OA
ATOM     10  N   UNL     1      44.624   3.680   9.935  0.00  0.00    +0.000 N 
ATOM     11  H   UNL     1      44.316   2.738  10.135  0.00  0.00    +0.000 HD
BRANCH   8  16
ATOM     12  C   UNL     1      46.985   1.888   6.051  0.00  0.00    +0.000 A 
ATOM     13  C   UNL     1      47.041   0.627   6.647  0.00  0.00    +0.000 A 
ATOM     14  C   UNL     1      46.523   0.432   7.929  0.00  0.00    +0.000 A 
ATOM     15  C   UNL     1      45.949   1.494   8.628  0.00  0.00    +0.000 A 
ATOM     16  C   UNL     1      45.882   2.765   8.042  0.00  0.00    +0.000 A 
ATOM     17  C   UNL     1      46.402   2.953   6.753  0.00  0.00    +0.000 A 
BRANCH  12  19
ATOM     18  C   UNL     1      46.954   1.450   3.713  0.00  0.00    +0.000 C 
ATOM     19  O   UNL     1      47.466   2.201   4.808  0.00  0.00    +0.000 OA
ENDBRANCH  12  19
ENDBRANCH   8  16
ENDBRANCH   7  10
ENDBRANCH   1   7
BRANCH   4  20
ATOM     20  C   UNL     1      48.454   6.730  14.099  0.00  0.00    +0.000 C 
BRANCH  20  21
ATOM     21  N   UNL     1      48.195   6.627  15.508  0.00  0.00    +0.000 N 
ATOM     22  C   UNL     1      48.957   7.303  16.432  0.00  0.00    +0.000 C 
ATOM     23  O   UNL     1      49.879   8.046  16.112  0.00  0.00    +0.000 OA
ATOM     24  H   UNL     1      47.574   5.883  15.816  0.00  0.00    +0.000 HD
BRANCH  22  25
ATOM     25  C   UNL     1      48.566   7.119  17.819  0.00  0.00    +0.000 A 
ATOM     26  C   UNL     1      47.863   8.062  18.549  0.00  0.00    +0.000 A 
ATOM     27  O   UNL     1      47.587   7.615  19.801  0.00  0.00    +0.000 OA
ATOM     28  C   UNL     1      48.135   6.374  19.917  0.00  0.00    +0.000 A 
ATOM     29  N   UNL     1      48.066   5.621  21.042  0.00  0.00    +0.000 NA
ATOM     30  C   UNL     1      48.693   4.494  20.946  0.00  0.00    +0.000 A 
ATOM     31  N   UNL     1      49.374   4.059  19.829  0.00  0.00    +0.000 N 
ATOM     32  C   UNL     1      49.430   4.779  18.658  0.00  0.00    +0.000 A 
ATOM     33  O   UNL     1      49.990   4.360  17.651  0.00  0.00    +0.000 OA
ATOM     34  C   UNL     1      48.756   6.046  18.729  0.00  0.00    +0.000 A 
ATOM     35  H   UNL     1      49.838   3.163  19.825  0.00  0.00    +0.000 HD
ENDBRANCH  22  25
ENDBRANCH  20  21
ENDBRANCH   4  20
TORSDOF 7
ENDMDL
MODEL 5
REMARK VINA RESULT:    -7.276      4.170      8.342
REMARK INTER + INTRA:         -11.342
REMARK INTER:                 -10.345
REMARK INTRA:                  -0.997
REMARK UNBOUND:                -1.088
REMARK  Name = 
REMARK  8 active torsions:
REMARK  status: ('A' for Active; 'I' for Inactive)
REMARK    1  A    between atoms: C_1  and  O_2
REMARK    2  A    between atoms: O_2  and  C_3
REMARK    3  A    between atoms: C_7  and  C_8
REMARK    4  A    between atoms: N_10  and  C_11
REMARK    5  A    between atoms: C_11  and  C_12
REMARK    6  A    between atoms: C_15  and  C_16
REMARK    7  A    between atoms: C_16  and  N_17
REMARK    8  A    between atoms: C_18  and  C_20
REMARK                            x       y       z     vdW  Elec       q    Type
REMARK                         _______ _______ _______ _____ _____    ______ ____
ROOT
ATOM      1  C   UNL     1      46.042   7.470  12.567  0.00  0.00    +0.000 A 
ATOM      2  C   UNL     1      46.353   8.712  13.139  0.00  0.00    +0.000 A 
ATOM      3  C   UNL     1      47.371   8.825  14.095  0.00  0.00    +0.000 A 
ATOM      4  C   UNL     1      48.110   7.701  14.489  0.00  0.00    +0.000 A 
ATOM      5  C   UNL     1      47.763   6.453  13.956  0.00  0.00    +0.000 A 
ATOM      6  C   UNL     1      46.749   6.340  12.998  0.00  0.00    +0.000 A 
ENDROOT
BRANCH   1   7
ATOM      7  C   UNL     1      45.021   7.359  11.460  0.00  0.00    +0.000 C 
BRANCH   7  10
ATOM      8  C   UNL     1      44.542   5.110  10.568  0.00  0.00    +0.000 C 
ATOM      9  O   UNL     1      43.570   4.961  11.306  0.00  0.00    +0.000 OA
ATOM     10  N   UNL     1      45.325   6.245  10.587  0.00  0.00    +0.000 N 
ATOM     11  H   UNL     1      46.221   6.249  10.118  0.00  0.00    +0.000 HD
BRANCH   8  16
ATOM     12  C   UNL     1      46.013   3.420   7.504  0.00  0.00    +0.000 A 
ATOM     13  C   UNL     1      45.786   2.074   7.794  0.00  0.00    +0.000 A 
ATOM     14  C   UNL     1      45.132   1.709   8.973  0.00  0.00    +0.000 A 
ATOM     15  C   UNL     1      44.704   2.685   9.874  0.00  0.00    +0.000 A 
ATOM     16  C   UNL     1      44.922   4.040   9.597  0.00  0.00    +0.000 A 
ATOM     17  C   UNL     1      45.577   4.399   8.409  0.00  0.00    +0.000 A 
BRANCH  12  19
ATOM     18  C   UNL     1      47.031   2.938   5.409  0.00  0.00    +0.000 C 
ATOM     19  O   UNL     1      46.649   3.896   6.390  0.00  0.00    +0.000 OA
ENDBRANCH  12  19
ENDBRANCH   8  16
ENDBRANCH   7  10
ENDBRANCH   1   7
BRANCH   4  20
ATOM     20  C   UNL     1      49.252   7.823  15.469  0.00  0.00    +0.000 C 
BRANCH  20  21
ATOM     21  N   UNL     1      49.744   6.535  15.872  0.00  0.00    +0.000 N 
ATOM     22  C   UNL     1      49.309   5.926  17.025  0.00  0.00    +0.000 C 
ATOM     23  O   UNL     1      48.465   6.427  17.760  0.00  0.00    +0.000 OA
ATOM     24  H   UNL     1      50.572   6.182  15.398  0.00  0.00    +0.000 HD
BRANCH  22  25
ATOM     25  C   UNL     1      49.879   4.617  17.294  0.00  0.00    +0.000 A 
ATOM     26  C   UNL     1      49.127   3.460  17.403  0.00  0.00    +0.000 A 
ATOM     27  O   UNL     1      49.915   2.373  17.607  0.00  0.00    +0.000 OA
ATOM     28  C   UNL     1      51.203   2.812  17.664  0.00  0.00    +0.000 A 
ATOM     29  N   UNL     1      52.268   2.000  17.867  0.00  0.00    +0.000 NA
ATOM     30  C   UNL     1      53.394   2.634  17.930  0.00  0.00    +0.000 A 
ATOM     31  N   UNL     1      53.543   3.998  17.802  0.00  0.00    +0.000 N 
ATOM     32  C   UNL     1      52.488   4.847  17.555  0.00  0.00    +0.000 A 
ATOM     33  O   UNL     1      52.636   6.053  17.388  0.00  0.00    +0.000 OA
ATOM     34  C   UNL     1      51.216   4.181  17.493  0.00  0.00    +0.000 A 
ATOM     35  H   UNL     1      54.456   4.425  17.858  0.00  0.00    +0.000 HD
ENDBRANCH  22  25
ENDBRANCH  20  21
ENDBRANCH   4  20
TORSDOF 7
ENDMDL
MODEL 6
REMARK VINA RESULT:    -7.112      3.874     11.487
REMARK INTER + INTRA:         -11.111
REMARK INTER:                  -9.957
REMARK INTRA:                  -1.154
REMARK UNBOUND:                -1.088
REMARK  Name = 
REMARK  8 active torsions:
REMARK  status: ('A' for Active; 'I' for Inactive)
REMARK    1  A    between atoms: C_1  and  O_2
REMARK    2  A    between atoms: O_2  and  C_3
REMARK    3  A    between atoms: C_7  and  C_8
REMARK    4  A    between atoms: N_10  and  C_11
REMARK    5  A    between atoms: C_11  and  C_12
REMARK    6  A    between atoms: C_15  and  C_16
REMARK    7  A    between atoms: C_16  and  N_17
REMARK    8  A    between atoms: C_18  and  C_20
REMARK                            x       y       z     vdW  Elec       q    Type
REMARK                         _______ _______ _______ _____ _____    ______ ____
ROOT
ATOM      1  C   UNL     1      48.133   8.039  13.783  0.00  0.00    +0.000 A 
ATOM      2  C   UNL     1      46.971   8.808  13.625  0.00  0.00    +0.000 A 
ATOM      3  C   UNL     1      45.934   8.375  12.788  0.00  0.00    +0.000 A 
ATOM      4  C   UNL     1      46.030   7.157  12.102  0.00  0.00    +0.000 A 
ATOM      5  C   UNL     1      47.214   6.416  12.218  0.00  0.00    +0.000 A 
ATOM      6  C   UNL     1      48.248   6.845  13.057  0.00  0.00    +0.000 A 
ENDROOT
BRANCH   1   7
ATOM      7  C   UNL     1      49.206   8.446  14.763  0.00  0.00    +0.000 C 
BRANCH   7  10
ATOM      8  C   UNL     1      48.621   7.844  17.083  0.00  0.00    +0.000 C 
ATOM      9  O   UNL     1      48.031   8.905  17.271  0.00  0.00    +0.000 OA
ATOM     10  N   UNL     1      49.246   7.539  15.891  0.00  0.00    +0.000 N 
ATOM     11  H   UNL     1      49.884   6.756  15.841  0.00  0.00    +0.000 HD
BRANCH   8  16
ATOM     12  C   UNL     1      48.667   4.462  18.804  0.00  0.00    +0.000 A 
ATOM     13  C   UNL     1      48.939   4.826  20.124  0.00  0.00    +0.000 A 
ATOM     14  C   UNL     1      49.084   6.172  20.466  0.00  0.00    +0.000 A 
ATOM     15  C   UNL     1      48.964   7.165  19.493  0.00  0.00    +0.000 A 
ATOM     16  C   UNL     1      48.689   6.816  18.165  0.00  0.00    +0.000 A 
ATOM     17  C   UNL     1      48.540   5.462  17.829  0.00  0.00    +0.000 A 
BRANCH  12  19
ATOM     18  C   UNL     1      47.389   2.924  17.515  0.00  0.00    +0.000 C 
ATOM     19  O   UNL     1      48.513   3.180  18.350  0.00  0.00    +0.000 OA
ENDBRANCH  12  19
ENDBRANCH   8  16
ENDBRANCH   7  10
ENDBRANCH   1   7
BRANCH   4  20
ATOM     20  C   UNL     1      44.892   6.650  11.249  0.00  0.00    +0.000 C 
BRANCH  20  21
ATOM     21  N   UNL     1      45.242   5.436  10.566  0.00  0.00    +0.000 N 
ATOM     22  C   UNL     1      44.287   4.522  10.187  0.00  0.00    +0.000 C 
ATOM     23  O   UNL     1      43.089   4.696  10.386  0.00  0.00    +0.000 OA
ATOM     24  H   UNL     1      46.223   5.171  10.556  0.00  0.00    +0.000 HD
BRANCH  22  25
ATOM     25  C   UNL     1      44.785   3.351   9.486  0.00  0.00    +0.000 A 
ATOM     26  C   UNL     1      44.313   2.068   9.703  0.00  0.00    +0.000 A 
ATOM     27  O   UNL     1      44.916   1.172   8.881  0.00  0.00    +0.000 OA
ATOM     28  C   UNL     1      45.820   1.858   8.128  0.00  0.00    +0.000 A 
ATOM     29  N   UNL     1      46.618   1.282   7.197  0.00  0.00    +0.000 NA
ATOM     30  C   UNL     1      47.432   2.113   6.632  0.00  0.00    +0.000 A 
ATOM     31  N   UNL     1      47.511   3.460   6.913  0.00  0.00    +0.000 N 
ATOM     32  C   UNL     1      46.688   4.085   7.823  0.00  0.00    +0.000 A 
ATOM     33  O   UNL     1      46.727   5.293   8.027  0.00  0.00    +0.000 OA
ATOM     34  C   UNL     1      45.779   3.191   8.484  0.00  0.00    +0.000 A 
ATOM     35  H   UNL     1      48.170   4.050   6.428  0.00  0.00    +0.000 HD
ENDBRANCH  22  25
ENDBRANCH  20  21
ENDBRANCH   4  20
TORSDOF 7
ENDMDL
MODEL 7
REMARK VINA RESULT:    -7.018      3.231      6.518
REMARK INTER + INTRA:         -10.979
REMARK INTER:                 -10.066
REMARK INTRA:                  -0.913
REMARK UNBOUND:                -1.088
REMARK  Name = 
REMARK  8 active torsions:
REMARK  status: ('A' for Active; 'I' for Inactive)
REMARK    1  A    between atoms: C_1  and  O_2
REMARK    2  A    between atoms: O_2  and  C_3
REMARK    3  A    between atoms: C_7  and  C_8
REMARK    4  A    between atoms: N_10  and  C_11
REMARK    5  A    between atoms: C_11  and  C_12
REMARK    6  A    between atoms: C_15  and  C_16
REMARK    7  A    between atoms: C_16  and  N_17
REMARK    8  A    between atoms: C_18  and  C_20
REMARK                            x       y       z     vdW  Elec       q    Type
REMARK                         _______ _______ _______ _____ _____    ______ ____
ROOT
ATOM      1  C   UNL     1      44.685   5.422  11.406  0.00  0.00    +0.000 A 
ATOM      2  C   UNL     1      44.699   6.824  11.386  0.00  0.00    +0.000 A 
ATOM      3  C   UNL     1      45.704   7.540  12.050  0.00  0.00    +0.000 A 
ATOM      4  C   UNL     1      46.725   6.868  12.737  0.00  0.00    +0.000 A 
ATOM      5  C   UNL     1      46.679   5.470  12.802  0.00  0.00    +0.000 A 
ATOM      6  C   UNL     1      45.678   4.754  12.134  0.00  0.00    +0.000 A 
ENDROOT
BRANCH   1   7
ATOM      7  C   UNL     1      43.668   4.645  10.605  0.00  0.00    +0.000 C 
BRANCH   7  10
ATOM      8  C   UNL     1      45.113   3.929   8.738  0.00  0.00    +0.000 C 
ATOM      9  O   UNL     1      45.300   5.084   8.363  0.00  0.00    +0.000 OA
ATOM     10  N   UNL     1      44.312   3.615   9.816  0.00  0.00    +0.000 N 
ATOM     11  H   UNL     1      44.023   2.659   9.969  0.00  0.00    +0.000 HD
BRANCH   8  16
ATOM     12  C   UNL     1      47.049   1.996   6.107  0.00  0.00    +0.000 A 
ATOM     13  C   UNL     1      47.115   0.729   6.687  0.00  0.00    +0.000 A 
ATOM     14  C   UNL     1      46.512   0.489   7.923  0.00  0.00    +0.000 A 
ATOM     15  C   UNL     1      45.840   1.513   8.592  0.00  0.00    +0.000 A 
ATOM     16  C   UNL     1      45.762   2.789   8.022  0.00  0.00    +0.000 A 
ATOM     17  C   UNL     1      46.368   3.022   6.778  0.00  0.00    +0.000 A 
BRANCH  12  19
ATOM     18  C   UNL     1      47.400   1.465   3.815  0.00  0.00    +0.000 C 
ATOM     19  O   UNL     1      47.607   2.351   4.909  0.00  0.00    +0.000 OA
ENDBRANCH  12  19
ENDBRANCH   8  16
ENDBRANCH   7  10
ENDBRANCH   1   7
BRANCH   4  20
ATOM     20  C   UNL     1      47.848   7.627  13.402  0.00  0.00    +0.000 C 
BRANCH  20  21
ATOM     21  N   UNL     1      48.331   6.945  14.570  0.00  0.00    +0.000 N 
ATOM     22  C   UNL     1      48.457   7.587  15.778  0.00  0.00    +0.000 C 
ATOM     23  O   UNL     1      48.145   8.763  15.938  0.00  0.00    +0.000 OA
ATOM     24  H   UNL     1      48.773   6.040  14.432  0.00  0.00    +0.000 HD
BRANCH  22  25
ATOM     25  C   UNL     1      48.938   6.766  16.876  0.00  0.00    +0.000 A 
ATOM     26  C   UNL     1      49.917   7.172  17.766  0.00  0.00    +0.000 A 
ATOM     27  O   UNL     1      50.140   6.233  18.721  0.00  0.00    +0.000 OA
ATOM     28  C   UNL     1      49.324   5.177  18.448  0.00  0.00    +0.000 A 
ATOM     29  N   UNL     1      49.282   4.044  19.191  0.00  0.00    +0.000 NA
ATOM     30  C   UNL     1      48.467   3.154  18.726  0.00  0.00    +0.000 A 
ATOM     31  N   UNL     1      47.694   3.302  17.594  0.00  0.00    +0.000 N 
ATOM     32  C   UNL     1      47.682   4.454  16.840  0.00  0.00    +0.000 A 
ATOM     33  O   UNL     1      46.950   4.597  15.867  0.00  0.00    +0.000 OA
ATOM     34  C   UNL     1      48.587   5.462  17.317  0.00  0.00    +0.000 A 
ATOM     35  H   UNL     1      47.075   2.564  17.292  0.00  0.00    +0.000 HD
ENDBRANCH  22  25
ENDBRANCH  20  21
ENDBRANCH   4  20
TORSDOF 7
ENDMDL
MODEL 8
REMARK VINA RESULT:    -6.963      4.215      8.471
REMARK INTER + INTRA:         -10.901
REMARK INTER:                  -9.934
REMARK INTRA:                  -0.967
REMARK UNBOUND:                -1.088
REMARK  Name = 
REMARK  8 active torsions:
REMARK  status: ('A' for Active; 'I' for Inactive)
REMARK    1  A    between atoms: C_1  and  O_2
REMARK    2  A    between atoms: O_2  and  C_3
REMARK    3  A    between atoms: C_7  and  C_8
REMARK    4  A    between atoms: N_10  and  C_11
REMARK    5  A    between atoms: C_11  and  C_12
REMARK    6  A    between atoms: C_15  and  C_16
REMARK    7  A    between atoms: C_16  and  N_17
REMARK    8  A    between atoms: C_18  and  C_20
REMARK                            x       y       z     vdW  Elec       q    Type
REMARK                         _______ _______ _______ _____ _____    ______ ____
ROOT
ATOM      1  C   UNL     1      46.440   7.507  12.691  0.00  0.00    +0.000 A 
ATOM      2  C   UNL     1      47.166   6.392  13.133  0.00  0.00    +0.000 A 
ATOM      3  C   UNL     1      48.151   6.523  14.119  0.00  0.00    +0.000 A 
ATOM      4  C   UNL     1      48.423   7.771  14.698  0.00  0.00    +0.000 A 
ATOM      5  C   UNL     1      47.735   8.893  14.218  0.00  0.00    +0.000 A 
ATOM      6  C   UNL     1      46.747   8.762  13.235  0.00  0.00    +0.000 A 
ENDROOT
BRANCH   1   7
ATOM      7  C   UNL     1      45.305   7.355  11.708  0.00  0.00    +0.000 C 
BRANCH   7  10
ATOM      8  C   UNL     1      44.552   5.264  10.637  0.00  0.00    +0.000 C 
ATOM      9  O   UNL     1      43.465   5.296  11.208  0.00  0.00    +0.000 OA
ATOM     10  N   UNL     1      45.526   6.221  10.835  0.00  0.00    +0.000 N 
ATOM     11  H   UNL     1      46.469   6.057  10.510  0.00  0.00    +0.000 HD
BRANCH   8  16
ATOM     12  C   UNL     1      45.907   3.452   7.590  0.00  0.00    +0.000 A 
ATOM     13  C   UNL     1      45.622   2.123   7.908  0.00  0.00    +0.000 A 
ATOM     14  C   UNL     1      44.968   1.811   9.101  0.00  0.00    +0.000 A 
ATOM     15  C   UNL     1      44.596   2.822   9.988  0.00  0.00    +0.000 A 
ATOM     16  C   UNL     1      44.872   4.160   9.682  0.00  0.00    +0.000 A 
ATOM     17  C   UNL     1      45.526   4.467   8.480  0.00  0.00    +0.000 A 
BRANCH  12  19
ATOM     18  C   UNL     1      46.949   2.876   5.531  0.00  0.00    +0.000 C 
ATOM     19  O   UNL     1      46.549   3.878   6.458  0.00  0.00    +0.000 OA
ENDBRANCH  12  19
ENDBRANCH   8  16
ENDBRANCH   7  10
ENDBRANCH   1   7
BRANCH   4  20
ATOM     20  C   UNL     1      49.437   7.913  15.807  0.00  0.00    +0.000 C 
BRANCH  20  21
ATOM     21  N   UNL     1      49.051   7.175  16.977  0.00  0.00    +0.000 N 
ATOM     22  C   UNL     1      49.657   5.988  17.312  0.00  0.00    +0.000 C 
ATOM     23  O   UNL     1      50.571   5.503  16.653  0.00  0.00    +0.000 OA
ATOM     24  H   UNL     1      48.182   7.444  17.433  0.00  0.00    +0.000 HD
BRANCH  22  25
ATOM     25  C   UNL     1      49.178   5.365  18.534  0.00  0.00    +0.000 A 
ATOM     26  C   UNL     1      49.100   3.995  18.717  0.00  0.00    +0.000 A 
ATOM     27  O   UNL     1      48.666   3.685  19.965  0.00  0.00    +0.000 OA
ATOM     28  C   UNL     1      48.423   4.858  20.612  0.00  0.00    +0.000 A 
ATOM     29  N   UNL     1      47.966   4.937  21.885  0.00  0.00    +0.000 NA
ATOM     30  C   UNL     1      47.764   6.150  22.285  0.00  0.00    +0.000 A 
ATOM     31  N   UNL     1      47.983   7.281  21.528  0.00  0.00    +0.000 N 
ATOM     32  C   UNL     1      48.486   7.239  20.247  0.00  0.00    +0.000 A 
ATOM     33  O   UNL     1      48.730   8.251  19.600  0.00  0.00    +0.000 OA
ATOM     34  C   UNL     1      48.709   5.906  19.761  0.00  0.00    +0.000 A 
ATOM     35  H   UNL     1      47.807   8.199  21.908  0.00  0.00    +0.000 HD
ENDBRANCH  22  25
ENDBRANCH  20  21
ENDBRANCH   4  20
TORSDOF 7
ENDMDL
MODEL 9
REMARK VINA RESULT:    -6.811      4.191      8.128
REMARK INTER + INTRA:         -10.687
REMARK INTER:                  -9.698
REMARK INTRA:                  -0.989
REMARK UNBOUND:                -1.088
REMARK  Name = 
REMARK  8 active torsions:
REMARK  status: ('A' for Active; 'I' for Inactive)
REMARK    1  A    between atoms: C_1  and  O_2
REMARK    2  A    between atoms: O_2  and  C_3
REMARK    3  A    between atoms: C_7  and  C_8
REMARK    4  A    between atoms: N_10  and  C_11
REMARK    5  A    between atoms: C_11  and  C_12
REMARK    6  A    between atoms: C_15  and  C_16
REMARK    7  A    between atoms: C_16  and  N_17
REMARK    8  A    between atoms: C_18  and  C_20
REMARK                            x       y       z     vdW  Elec       q    Type
REMARK                         _______ _______ _______ _____ _____    ______ ____
ROOT
ATOM      1  C   UNL     1      45.854   7.956  12.262  0.00  0.00    +0.000 A 
ATOM      2  C   UNL     1      46.276   9.292  12.303  0.00  0.00    +0.000 A 
ATOM      3  C   UNL     1      47.422   9.660  13.020  0.00  0.00    +0.000 A 
ATOM      4  C   UNL     1      48.180   8.696  13.700  0.00  0.00    +0.000 A 
ATOM      5  C   UNL     1      47.727   7.370  13.703  0.00  0.00    +0.000 A 
ATOM      6  C   UNL     1      46.585   7.002  12.983  0.00  0.00    +0.000 A 
ENDROOT
BRANCH   1   7
ATOM      7  C   UNL     1      44.683   7.538  11.406  0.00  0.00    +0.000 C 
BRANCH   7  10
ATOM      8  C   UNL     1      44.227   5.259  10.579  0.00  0.00    +0.000 C 
ATOM      9  O   UNL     1      43.215   5.150  11.267  0.00  0.00    +0.000 OA
ATOM     10  N   UNL     1      45.022   6.385  10.596  0.00  0.00    +0.000 N 
ATOM     11  H   UNL     1      45.942   6.361  10.178  0.00  0.00    +0.000 HD
BRANCH   8  16
ATOM     12  C   UNL     1      45.882   3.424   7.698  0.00  0.00    +0.000 A 
ATOM     13  C   UNL     1      45.585   2.096   8.008  0.00  0.00    +0.000 A 
ATOM     14  C   UNL     1      44.826   1.791   9.139  0.00  0.00    +0.000 A 
ATOM     15  C   UNL     1      44.361   2.809   9.973  0.00  0.00    +0.000 A 
ATOM     16  C   UNL     1      44.648   4.146   9.674  0.00  0.00    +0.000 A 
ATOM     17  C   UNL     1      45.408   4.446   8.534  0.00  0.00    +0.000 A 
BRANCH  12  19
ATOM     18  C   UNL     1      46.930   2.868   5.636  0.00  0.00    +0.000 C 
ATOM     19  O   UNL     1      46.622   3.843   6.625  0.00  0.00    +0.000 OA
ENDBRANCH  12  19
ENDBRANCH   8  16
ENDBRANCH   7  10
ENDBRANCH   1   7
BRANCH   4  20
ATOM     20  C   UNL     1      49.452   9.070  14.422  0.00  0.00    +0.000 C 
BRANCH  20  21
ATOM     21  N   UNL     1      50.112   7.917  14.967  0.00  0.00    +0.000 N 
ATOM     22  C   UNL     1      49.986   7.574  16.292  0.00  0.00    +0.000 C 
ATOM     23  O   UNL     1      49.290   8.211  17.077  0.00  0.00    +0.000 OA
ATOM     24  H   UNL     1      50.838   7.483  14.402  0.00  0.00    +0.000 HD
BRANCH  22  25
ATOM     25  C   UNL     1      50.693   6.371  16.697  0.00  0.00    +0.000 A 
ATOM     26  C   UNL     1      52.067   6.303  16.847  0.00  0.00    +0.000 A 
ATOM     27  O   UNL     1      52.459   5.077  17.281  0.00  0.00    +0.000 OA
ATOM     28  C   UNL     1      51.339   4.311  17.393  0.00  0.00    +0.000 A 
ATOM     29  N   UNL     1      51.347   3.017  17.795  0.00  0.00    +0.000 NA
ATOM     30  C   UNL     1      50.176   2.469  17.787  0.00  0.00    +0.000 A 
ATOM     31  N   UNL     1      49.007   3.100  17.419  0.00  0.00    +0.000 N 
ATOM     32  C   UNL     1      48.957   4.424  17.046  0.00  0.00    +0.000 A 
ATOM     33  O   UNL     1      47.906   4.994  16.774  0.00  0.00    +0.000 OA
ATOM     34  C   UNL     1      50.242   5.065  17.028  0.00  0.00    +0.000 A 
ATOM     35  H   UNL     1      48.126   2.609  17.442  0.00  0.00    +0.000 HD
ENDBRANCH  22  25
ENDBRANCH  20  21
ENDBRANCH   4  20
TORSDOF 7
ENDMDL
