MODEL 1
REMARK VINA RESULT:    -8.765      0.000      0.000
REMARK INTER + INTRA:         -12.741
REMARK INTER:                 -11.839
REMARK INTRA:                  -0.902
REMARK UNBOUND:                -0.902
REMARK  Name = 
REMARK  6 active torsions:
REMARK  status: ('A' for Active; 'I' for Inactive)
REMARK    1  A    between atoms: C_2  and  C_25
REMARK    2  A    between atoms: N_3  and  C_4
REMARK    3  A    between atoms: C_4  and  C_5
REMARK    4  A    between atoms: C_9  and  C_10
REMARK    5  A    between atoms: C_10  and  N_11
REMARK    6  A    between atoms: C_12  and  C_14
REMARK                            x       y       z     vdW  Elec       q    Type
REMARK                         _______ _______ _______ _____ _____    ______ ____
ROOT
ATOM      1  C   UNL     1      44.705   4.536  10.980  0.00  0.00    +0.000 A 
ATOM      2  C   UNL     1      44.565   3.528  11.927  0.00  0.00    +0.000 A 
ATOM      3  N   UNL     1      45.153   3.546  13.145  0.00  0.00    +0.000 NA
ATOM      4  C   UNL     1      45.919   4.621  13.439  0.00  0.00    +0.000 A 
ATOM      5  C   UNL     1      46.155   5.678  12.567  0.00  0.00    +0.000 A 
ATOM      6  C   UNL     1      45.531   5.622  11.313  0.00  0.00    +0.000 A 
ENDROOT
BRANCH   1   7
ATOM      7  C   UNL     1      44.001   4.452   9.657  0.00  0.00    +0.000 C 
BRANCH   7  10
ATOM      8  O   UNL     1      46.240   5.012   8.074  0.00  0.00    +0.000 OA
ATOM      9  C   UNL     1      45.742   3.895   8.026  0.00  0.00    +0.000 C 
ATOM     10  N   UNL     1      44.638   3.515   8.761  0.00  0.00    +0.000 N 
ATOM     11  H   UNL     1      44.433   2.531   8.873  0.00  0.00    +0.000 HD
BRANCH   9  12
ATOM     12  C   UNL     1      46.332   2.848   7.163  0.00  0.00    +0.000 A 
ATOM     13  C   UNL     1      46.650   3.083   5.825  0.00  0.00    +0.000 A 
ATOM     14  C   UNL     1      47.219   2.063   5.066  0.00  0.00    +0.000 A 
ATOM     15  C   UNL     1      47.459   0.844   5.679  0.00  0.00    +0.000 A 
ATOM     16  N   UNL     1      47.167   0.584   6.974  0.00  0.00    +0.000 NA
ATOM     17  C   UNL     1      46.616   1.595   7.693  0.00  0.00    +0.000 A 
ENDBRANCH   9  12
ENDBRANCH   7  10
ENDBRANCH   1   7
BRANCH   5  18
ATOM     18  C   UNL     1      47.014   6.835  12.998  0.00  0.00    +0.000 C 
BRANCH  18  19
ATOM     19  N   UNL     1      47.359   6.758  14.395  0.00  0.00    +0.000 N 
ATOM     20  C   UNL     1      48.666   6.802  14.820  0.00  0.00    +0.000 C 
ATOM     21  O   UNL     1      49.603   6.923  14.038  0.00  0.00    +0.000 OA
ATOM     22  H   UNL     1      46.658   6.381  15.027  0.00  0.00    +0.000 HD
BRANCH  20  23
ATOM     23  C   UNL     1      48.871   6.751  16.275  0.00  0.00    +0.000 A 
ATOM     24  C   UNL     1      49.228   7.903  16.964  0.00  0.00    +0.000 A 
ATOM     25  S   UNL     1      49.392   7.673  18.647  0.00  0.00    +0.000 S 
ATOM     26  C   UNL     1      49.046   6.012  18.509  0.00  0.00    +0.000 A 
ATOM     27  N   UNL     1      49.050   5.202  19.602  0.00  0.00    +0.000 NA
ATOM     28  C   UNL     1      48.805   3.960  19.347  0.00  0.00    +0.000 A 
ATOM     29  N   UNL     1      48.541   3.456  18.100  0.00  0.00    +0.000 N 
ATOM     30  C   UNL     1      48.451   4.251  16.984  0.00  0.00    +0.000 A 
ATOM     31  O   UNL     1      48.094   3.792  15.902  0.00  0.00    +0.000 OA
ATOM     32  C   UNL     1      48.771   5.649  17.204  0.00  0.00    +0.000 A 
ATOM     33  H   UNL     1      48.320   2.479  17.973  0.00  0.00    +0.000 HD
ENDBRANCH  20  23
ENDBRANCH  18  19
ENDBRANCH   5  18
TORSDOF 6
ENDMDL
MODEL 2
REMARK VINA RESULT:    -8.671      1.784      2.384
REMARK INTER + INTRA:         -12.615
REMARK INTER:                 -11.724
REMARK INTRA:                  -0.890
REMARK UNBOUND:                -0.902
REMARK  Name = 
REMARK  6 active torsions:
REMARK  status: ('A' for Active; 'I' for Inactive)
REMARK    1  A    between atoms: C_2  and  C_25
REMARK    2  A    between atoms: N_3  and  C_4
REMARK    3  A    between atoms: C_4  and  C_5
REMARK    4  A    between atoms: C_9  and  C_10
REMARK    5  A    between atoms: C_10  and  N_11
REMARK    6  A    between atoms: C_12  and  C_14
REMARK                            x       y       z     vdW  Elec       q    Type
REMARK                         _______ _______ _______ _____ _____    ______ ____
ROOT
ATOM      1  C   UNL     1      45.046   4.786  11.526  0.00  0.00    +0.000 A 
ATOM      2  C   UNL     1      45.486   6.104  11.511  0.00  0.00    +0.000 A 
ATOM      3  N   UNL     1      46.350   6.624  12.413  0.00  0.00    +0.000 NA
ATOM      4  C   UNL     1      46.800   5.792  13.379  0.00  0.00    +0.000 A 
ATOM      5  C   UNL     1      46.413   4.463  13.513  0.00  0.00    +0.000 A 
ATOM      6  C   UNL     1      45.515   3.961  12.561  0.00  0.00    +0.000 A 
ENDROOT
BRANCH   1   7
ATOM      7  C   UNL     1      44.102   4.279  10.475  0.00  0.00    +0.000 C 
BRANCH   7  10
ATOM      8  O   UNL     1      45.669   5.095   8.305  0.00  0.00    +0.000 OA
ATOM      9  C   UNL     1      45.509   3.898   8.506  0.00  0.00    +0.000 C 
ATOM     10  N   UNL     1      44.754   3.389   9.542  0.00  0.00    +0.000 N 
ATOM     11  H   UNL     1      44.866   2.419   9.805  0.00  0.00    +0.000 HD
BRANCH   9  12
ATOM     12  C   UNL     1      46.155   2.897   7.629  0.00  0.00    +0.000 A 
ATOM     13  C   UNL     1      46.630   3.223   6.357  0.00  0.00    +0.000 A 
ATOM     14  C   UNL     1      47.246   2.242   5.584  0.00  0.00    +0.000 A 
ATOM     15  C   UNL     1      47.373   0.969   6.117  0.00  0.00    +0.000 A 
ATOM     16  N   UNL     1      46.929   0.622   7.346  0.00  0.00    +0.000 NA
ATOM     17  C   UNL     1      46.335   1.596   8.081  0.00  0.00    +0.000 A 
ENDBRANCH   9  12
ENDBRANCH   7  10
ENDBRANCH   1   7
BRANCH   5  18
ATOM     18  C   UNL     1      46.985   3.618  14.618  0.00  0.00    +0.000 C 
BRANCH  18  19
ATOM     19  N   UNL     1      47.461   4.419  15.717  0.00  0.00    +0.000 N 
ATOM     20  C   UNL     1      47.212   4.073  17.025  0.00  0.00    +0.000 C 
ATOM     21  O   UNL     1      46.586   3.061  17.324  0.00  0.00    +0.000 OA
ATOM     22  H   UNL     1      47.723   5.380  15.513  0.00  0.00    +0.000 HD
BRANCH  20  23
ATOM     23  C   UNL     1      47.787   4.960  18.046  0.00  0.00    +0.000 A 
ATOM     24  C   UNL     1      46.950   5.723  18.850  0.00  0.00    +0.000 A 
ATOM     25  S   UNL     1      47.780   6.668  20.004  0.00  0.00    +0.000 S 
ATOM     26  C   UNL     1      49.292   6.134  19.433  0.00  0.00    +0.000 A 
ATOM     27  N   UNL     1      50.450   6.592  19.980  0.00  0.00    +0.000 NA
ATOM     28  C   UNL     1      51.522   6.130  19.429  0.00  0.00    +0.000 A 
ATOM     29  N   UNL     1      51.542   5.239  18.388  0.00  0.00    +0.000 N 
ATOM     30  C   UNL     1      50.399   4.692  17.858  0.00  0.00    +0.000 A 
ATOM     31  O   UNL     1      50.450   3.806  17.009  0.00  0.00    +0.000 OA
ATOM     32  C   UNL     1      49.162   5.218  18.405  0.00  0.00    +0.000 A 
ATOM     33  H   UNL     1      52.416   4.886  18.025  0.00  0.00    +0.000 HD
ENDBRANCH  20  23
ENDBRANCH  18  19
ENDBRANCH   5  18
TORSDOF 6
ENDMDL
MODEL 3
REMARK VINA RESULT:    -8.339      1.639      2.040
REMARK INTER + INTRA:         -12.167
REMARK INTER:                 -10.993
REMARK INTRA:                  -1.174
REMARK UNBOUND:                -0.902
REMARK  Name = 
REMARK  6 active torsions:
REMARK  status: ('A' for Active; 'I' for Inactive)
REMARK    1  A    between atoms: C_2  and  C_25
REMARK    2  A    between atoms: N_3  and  C_4
REMARK    3  A    between atoms: C_4  and  C_5
REMARK    4  A    between atoms: C_9  and  C_10
REMARK    5  A    between atoms: C_10  and  N_11
REMARK    6  A    between atoms: C_12  and  C_14
REMARK                            x       y       z     vdW  Elec       q    Type
REMARK                         _______ _______ _______ _____ _____    ______ ____
ROOT
ATOM      1  C   UNL     1      44.949   6.207  11.023  0.00  0.00    +0.000 A 
ATOM      2  C   UNL     1      44.285   7.378  11.371  0.00  0.00    +0.000 A 
ATOM      3  N   UNL     1      44.879   8.435  11.971  0.00  0.00    +0.000 NA
ATOM      4  C   UNL     1      46.200   8.324  12.238  0.00  0.00    +0.000 A 
ATOM      5  C   UNL     1      46.965   7.197  11.961  0.00  0.00    +0.000 A 
ATOM      6  C   UNL     1      46.314   6.121  11.342  0.00  0.00    +0.000 A 
ENDROOT
BRANCH   1   7
ATOM      7  C   UNL     1      44.223   5.086  10.339  0.00  0.00    +0.000 C 
BRANCH   7  10
ATOM      8  O   UNL     1      44.394   2.340   9.829  0.00  0.00    +0.000 OA
ATOM      9  C   UNL     1      45.025   3.116   9.123  0.00  0.00    +0.000 C 
ATOM     10  N   UNL     1      45.014   4.485   9.290  0.00  0.00    +0.000 N 
ATOM     11  H   UNL     1      45.339   5.078   8.538  0.00  0.00    +0.000 HD
BRANCH   9  12
ATOM     12  C   UNL     1      45.846   2.612   8.001  0.00  0.00    +0.000 A 
ATOM     13  C   UNL     1      46.136   3.397   6.883  0.00  0.00    +0.000 A 
ATOM     14  C   UNL     1      46.929   2.873   5.865  0.00  0.00    +0.000 A 
ATOM     15  C   UNL     1      47.414   1.583   6.008  0.00  0.00    +0.000 A 
ATOM     16  N   UNL     1      47.156   0.798   7.079  0.00  0.00    +0.000 NA
ATOM     17  C   UNL     1      46.383   1.332   8.059  0.00  0.00    +0.000 A 
ENDBRANCH   9  12
ENDBRANCH   7  10
ENDBRANCH   1   7
BRANCH   5  18
ATOM     18  C   UNL     1      48.433   7.181  12.287  0.00  0.00    +0.000 C 
BRANCH  18  19
ATOM     19  N   UNL     1      48.698   6.532  13.546  0.00  0.00    +0.000 N 
ATOM     20  C   UNL     1      48.805   7.244  14.718  0.00  0.00    +0.000 C 
ATOM     21  O   UNL     1      48.668   8.462  14.756  0.00  0.00    +0.000 OA
ATOM     22  H   UNL     1      49.090   5.594  13.513  0.00  0.00    +0.000 HD
BRANCH  20  23
ATOM     23  C   UNL     1      49.041   6.451  15.933  0.00  0.00    +0.000 A 
ATOM     24  C   UNL     1      50.022   6.844  16.836  0.00  0.00    +0.000 A 
ATOM     25  S   UNL     1      50.137   5.833  18.205  0.00  0.00    +0.000 S 
ATOM     26  C   UNL     1      48.919   4.801  17.615  0.00  0.00    +0.000 A 
ATOM     27  N   UNL     1      48.542   3.693  18.308  0.00  0.00    +0.000 NA
ATOM     28  C   UNL     1      47.632   2.984  17.729  0.00  0.00    +0.000 A 
ATOM     29  N   UNL     1      47.053   3.290  16.524  0.00  0.00    +0.000 N 
ATOM     30  C   UNL     1      47.348   4.438  15.831  0.00  0.00    +0.000 A 
ATOM     31  O   UNL     1      46.727   4.748  14.817  0.00  0.00    +0.000 OA
ATOM     32  C   UNL     1      48.405   5.245  16.411  0.00  0.00    +0.000 A 
ATOM     33  H   UNL     1      46.318   2.713  16.142  0.00  0.00    +0.000 HD
ENDBRANCH  20  23
ENDBRANCH  18  19
ENDBRANCH   5  18
TORSDOF 6
ENDMDL
MODEL 4
REMARK VINA RESULT:    -7.586      3.694      5.495
REMARK INTER + INTRA:         -11.149
REMARK INTER:                 -10.402
REMARK INTRA:                  -0.747
REMARK UNBOUND:                -0.902
REMARK  Name = 
REMARK  6 active torsions:
REMARK  status: ('A' for Active; 'I' for Inactive)
REMARK    1  A    between atoms: C_2  and  C_25
REMARK    2  A    between atoms: N_3  and  C_4
REMARK    3  A    between atoms: C_4  and  C_5
REMARK    4  A    between atoms: C_9  and  C_10
REMARK    5  A    between atoms: C_10  and  N_11
REMARK    6  A    between atoms: C_12  and  C_14
REMARK                            x       y       z     vdW  Elec       q    Type
REMARK                         _______ _______ _______ _____ _____    ______ ____
ROOT
ATOM      1  C   UNL     1      44.805   4.576  11.304  0.00  0.00    +0.000 A 
ATOM      2  C   UNL     1      45.112   3.524  12.159  0.00  0.00    +0.000 A 
ATOM      3  N   UNL     1      45.834   3.658  13.295  0.00  0.00    +0.000 NA
ATOM      4  C   UNL     1      46.272   4.900  13.599  0.00  0.00    +0.000 A 
ATOM      5  C   UNL     1      46.052   6.024  12.811  0.00  0.00    +0.000 A 
ATOM      6  C   UNL     1      45.302   5.845  11.640  0.00  0.00    +0.000 A 
ENDROOT
BRANCH   1   7
ATOM      7  C   UNL     1      43.979   4.349  10.071  0.00  0.00    +0.000 C 
BRANCH   7  10
ATOM      8  O   UNL     1      46.010   5.093   8.295  0.00  0.00    +0.000 OA
ATOM      9  C   UNL     1      45.625   3.931   8.306  0.00  0.00    +0.000 C 
ATOM     10  N   UNL     1      44.630   3.460   9.137  0.00  0.00    +0.000 N 
ATOM     11  H   UNL     1      44.535   2.463   9.280  0.00  0.00    +0.000 HD
BRANCH   9  12
ATOM     12  C   UNL     1      46.242   2.928   7.410  0.00  0.00    +0.000 A 
ATOM     13  C   UNL     1      46.587   3.226   6.090  0.00  0.00    +0.000 A 
ATOM     14  C   UNL     1      47.182   2.246   5.300  0.00  0.00    +0.000 A 
ATOM     15  C   UNL     1      47.419   1.002   5.863  0.00  0.00    +0.000 A 
ATOM     16  N   UNL     1      47.101   0.682   7.138  0.00  0.00    +0.000 NA
ATOM     17  C   UNL     1      46.525   1.656   7.889  0.00  0.00    +0.000 A 
ENDBRANCH   9  12
ENDBRANCH   7  10
ENDBRANCH   1   7
BRANCH   5  18
ATOM     18  C   UNL     1      46.573   7.366  13.247  0.00  0.00    +0.000 C 
BRANCH  18  19
ATOM     19  N   UNL     1      47.822   7.692  12.607  0.00  0.00    +0.000 N 
ATOM     20  C   UNL     1      48.393   8.937  12.727  0.00  0.00    +0.000 C 
ATOM     21  O   UNL     1      47.879   9.829  13.394  0.00  0.00    +0.000 OA
ATOM     22  H   UNL     1      48.122   7.095  11.840  0.00  0.00    +0.000 HD
BRANCH  20  23
ATOM     23  C   UNL     1      49.686   9.121  12.053  0.00  0.00    +0.000 A 
ATOM     24  C   UNL     1      50.740   8.258  12.330  0.00  0.00    +0.000 A 
ATOM     25  S   UNL     1      52.153   8.592  11.435  0.00  0.00    +0.000 S 
ATOM     26  C   UNL     1      51.427   9.937  10.685  0.00  0.00    +0.000 A 
ATOM     27  N   UNL     1      52.119  10.705   9.801  0.00  0.00    +0.000 NA
ATOM     28  C   UNL     1      51.457  11.710   9.334  0.00  0.00    +0.000 A 
ATOM     29  N   UNL     1      50.159  12.010   9.660  0.00  0.00    +0.000 N 
ATOM     30  C   UNL     1      49.401  11.217  10.486  0.00  0.00    +0.000 A 
ATOM     31  O   UNL     1      48.207  11.441  10.664  0.00  0.00    +0.000 OA
ATOM     32  C   UNL     1      50.113  10.102  11.082  0.00  0.00    +0.000 A 
ATOM     33  H   UNL     1      49.685  12.791   9.230  0.00  0.00    +0.000 HD
ENDBRANCH  20  23
ENDBRANCH  18  19
ENDBRANCH   5  18
TORSDOF 6
ENDMDL
MODEL 5
REMARK VINA RESULT:    -7.516      3.537      8.797
REMARK INTER + INTRA:         -11.054
REMARK INTER:                  -9.836
REMARK INTRA:                  -1.218
REMARK UNBOUND:                -0.902
REMARK  Name = 
REMARK  6 active torsions:
REMARK  status: ('A' for Active; 'I' for Inactive)
REMARK    1  A    between atoms: C_2  and  C_25
REMARK    2  A    between atoms: N_3  and  C_4
REMARK    3  A    between atoms: C_4  and  C_5
REMARK    4  A    between atoms: C_9  and  C_10
REMARK    5  A    between atoms: C_10  and  N_11
REMARK    6  A    between atoms: C_12  and  C_14
REMARK                            x       y       z     vdW  Elec       q    Type
REMARK                         _______ _______ _______ _____ _____    ______ ____
ROOT
ATOM      1  C   UNL     1      48.436   5.439  16.655  0.00  0.00    +0.000 A 
ATOM      2  C   UNL     1      48.496   6.574  17.454  0.00  0.00    +0.000 A 
ATOM      3  N   UNL     1      48.562   7.837  16.973  0.00  0.00    +0.000 NA
ATOM      4  C   UNL     1      48.567   7.980  15.629  0.00  0.00    +0.000 A 
ATOM      5  C   UNL     1      48.537   6.921  14.727  0.00  0.00    +0.000 A 
ATOM      6  C   UNL     1      48.472   5.628  15.264  0.00  0.00    +0.000 A 
ENDROOT
BRANCH   1   7
ATOM      7  C   UNL     1      48.343   4.071  17.266  0.00  0.00    +0.000 C 
BRANCH   7  10
ATOM      8  O   UNL     1      49.728   1.919  16.135  0.00  0.00    +0.000 OA
ATOM      9  C   UNL     1      50.227   2.517  17.080  0.00  0.00    +0.000 C 
ATOM     10  N   UNL     1      49.628   3.587  17.712  0.00  0.00    +0.000 N 
ATOM     11  H   UNL     1      50.187   4.188  18.303  0.00  0.00    +0.000 HD
BRANCH   9  12
ATOM     12  C   UNL     1      51.554   2.123  17.600  0.00  0.00    +0.000 A 
ATOM     13  C   UNL     1      52.049   0.824  17.462  0.00  0.00    +0.000 A 
ATOM     14  C   UNL     1      53.314   0.517  17.957  0.00  0.00    +0.000 A 
ATOM     15  C   UNL     1      54.044   1.525  18.565  0.00  0.00    +0.000 A 
ATOM     16  N   UNL     1      53.597   2.793  18.711  0.00  0.00    +0.000 NA
ATOM     17  C   UNL     1      52.363   3.068  18.218  0.00  0.00    +0.000 A 
ENDBRANCH   9  12
ENDBRANCH   7  10
ENDBRANCH   1   7
BRANCH   5  18
ATOM     18  C   UNL     1      48.533   7.190  13.247  0.00  0.00    +0.000 C 
BRANCH  18  19
ATOM     19  N   UNL     1      47.685   6.267  12.535  0.00  0.00    +0.000 N 
ATOM     20  C   UNL     1      46.609   6.699  11.795  0.00  0.00    +0.000 C 
ATOM     21  O   UNL     1      46.323   7.887  11.690  0.00  0.00    +0.000 OA
ATOM     22  H   UNL     1      47.715   5.292  12.820  0.00  0.00    +0.000 HD
BRANCH  20  23
ATOM     23  C   UNL     1      45.853   5.654  11.090  0.00  0.00    +0.000 A 
ATOM     24  C   UNL     1      45.846   5.622   9.701  0.00  0.00    +0.000 A 
ATOM     25  S   UNL     1      44.948   4.326   9.048  0.00  0.00    +0.000 S 
ATOM     26  C   UNL     1      44.490   3.792  10.598  0.00  0.00    +0.000 A 
ATOM     27  N   UNL     1      43.675   2.714  10.755  0.00  0.00    +0.000 NA
ATOM     28  C   UNL     1      43.381   2.440  11.983  0.00  0.00    +0.000 A 
ATOM     29  N   UNL     1      43.840   3.139  13.070  0.00  0.00    +0.000 N 
ATOM     30  C   UNL     1      44.724   4.183  12.959  0.00  0.00    +0.000 A 
ATOM     31  O   UNL     1      45.214   4.712  13.954  0.00  0.00    +0.000 OA
ATOM     32  C   UNL     1      45.047   4.568  11.598  0.00  0.00    +0.000 A 
ATOM     33  H   UNL     1      43.603   2.850  14.007  0.00  0.00    +0.000 HD
ENDBRANCH  20  23
ENDBRANCH  18  19
ENDBRANCH   5  18
TORSDOF 6
ENDMDL
MODEL 6
REMARK VINA RESULT:    -7.513      2.209      3.112
REMARK INTER + INTRA:         -11.051
REMARK INTER:                 -10.142
REMARK INTRA:                  -0.909
REMARK UNBOUND:                -0.902
REMARK  Name = 
REMARK  6 active torsions:
REMARK  status: ('A' for Active; 'I' for Inactive)
REMARK    1  A    between atoms: C_2  and  C_25
REMARK    2  A    between atoms: N_3  and  C_4
REMARK    3  A    between atoms: C_4  and  C_5
REMARK    4  A    between atoms: C_9  and  C_10
REMARK    5  A    between atoms: C_10  and  N_11
REMARK    6  A    between atoms: C_12  and  C_14
REMARK                            x       y       z     vdW  Elec       q    Type
REMARK                         _______ _______ _______ _____ _____    ______ ____
ROOT
ATOM      1  C   UNL     1      45.199   6.311  11.750  0.00  0.00    +0.000 A 
ATOM      2  C   UNL     1      44.912   7.670  11.700  0.00  0.00    +0.000 A 
ATOM      3  N   UNL     1      45.626   8.618  12.349  0.00  0.00    +0.000 NA
ATOM      4  C   UNL     1      46.679   8.196  13.084  0.00  0.00    +0.000 A 
ATOM      5  C   UNL     1      47.049   6.864  13.231  0.00  0.00    +0.000 A 
ATOM      6  C   UNL     1      46.284   5.910  12.546  0.00  0.00    +0.000 A 
ENDROOT
BRANCH   1   7
ATOM      7  C   UNL     1      44.372   5.321  10.982  0.00  0.00    +0.000 C 
BRANCH   7  10
ATOM      8  O   UNL     1      43.826   2.778   9.950  0.00  0.00    +0.000 OA
ATOM      9  C   UNL     1      44.773   3.411   9.502  0.00  0.00    +0.000 C 
ATOM     10  N   UNL     1      45.131   4.669   9.941  0.00  0.00    +0.000 N 
ATOM     11  H   UNL     1      45.747   5.235   9.372  0.00  0.00    +0.000 HD
BRANCH   9  12
ATOM     12  C   UNL     1      45.602   2.850   8.412  0.00  0.00    +0.000 A 
ATOM     13  C   UNL     1      46.020   3.622   7.327  0.00  0.00    +0.000 A 
ATOM     14  C   UNL     1      46.815   3.043   6.340  0.00  0.00    +0.000 A 
ATOM     15  C   UNL     1      47.169   1.711   6.481  0.00  0.00    +0.000 A 
ATOM     16  N   UNL     1      46.785   0.937   7.521  0.00  0.00    +0.000 NA
ATOM     17  C   UNL     1      46.014   1.525   8.471  0.00  0.00    +0.000 A 
ENDBRANCH   9  12
ENDBRANCH   7  10
ENDBRANCH   1   7
BRANCH   5  18
ATOM     18  C   UNL     1      48.248   6.501  14.064  0.00  0.00    +0.000 C 
BRANCH  18  19
ATOM     19  N   UNL     1      47.972   6.595  15.475  0.00  0.00    +0.000 N 
ATOM     20  C   UNL     1      48.892   6.203  16.419  0.00  0.00    +0.000 C 
ATOM     21  O   UNL     1      49.997   5.768  16.112  0.00  0.00    +0.000 OA
ATOM     22  H   UNL     1      46.998   6.676  15.754  0.00  0.00    +0.000 HD
BRANCH  20  23
ATOM     23  C   UNL     1      48.493   6.388  17.821  0.00  0.00    +0.000 A 
ATOM     24  C   UNL     1      48.483   5.300  18.687  0.00  0.00    +0.000 A 
ATOM     25  S   UNL     1      48.030   5.698  20.283  0.00  0.00    +0.000 S 
ATOM     26  C   UNL     1      47.777   7.328  19.863  0.00  0.00    +0.000 A 
ATOM     27  N   UNL     1      47.342   8.229  20.785  0.00  0.00    +0.000 NA
ATOM     28  C   UNL     1      47.161   9.421  20.322  0.00  0.00    +0.000 A 
ATOM     29  N   UNL     1      47.389   9.798  19.024  0.00  0.00    +0.000 N 
ATOM     30  C   UNL     1      47.901   8.939  18.083  0.00  0.00    +0.000 A 
ATOM     31  O   UNL     1      48.210   9.333  16.961  0.00  0.00    +0.000 OA
ATOM     32  C   UNL     1      48.073   7.571  18.535  0.00  0.00    +0.000 A 
ATOM     33  H   UNL     1      47.263  10.757  18.734  0.00  0.00    +0.000 HD
ENDBRANCH  20  23
ENDBRANCH  18  19
ENDBRANCH   5  18
TORSDOF 6
ENDMDL
MODEL 7
REMARK VINA RESULT:    -7.314      1.747      2.098
REMARK INTER + INTRA:         -10.781
REMARK INTER:                  -9.981
REMARK INTRA:                  -0.800
REMARK UNBOUND:                -0.902
REMARK  Name = 
REMARK  6 active torsions:
REMARK  status: ('A' for Active; 'I' for Inactive)
REMARK    1  A    between atoms: C_2  and  C_25
REMARK    2  A    between atoms: N_3  and  C_4
REMARK    3  A    between atoms: C_4  and  C_5
REMARK    4  A    between atoms: C_9  and  C_10
REMARK    5  A    between atoms: C_10  and  N_11
REMARK    6  A    between atoms: C_12  and  C_14
REMARK                            x       y       z     vdW  Elec       q    Type
REMARK                         _______ _______ _______ _____ _____    ______ ____
ROOT
ATOM      1  C   UNL     1      45.736   5.234  11.658  0.00  0.00    +0.000 A 
ATOM      2  C   UNL     1      45.311   4.267  12.561  0.00  0.00    +0.000 A 
ATOM      3  N   UNL     1      45.862   4.078  13.782  0.00  0.00    +0.000 NA
ATOM      4  C   UNL     1      46.885   4.891  14.124  0.00  0.00    +0.000 A 
ATOM      5  C   UNL     1      47.415   5.876  13.298  0.00  0.00    +0.000 A 
ATOM      6  C   UNL     1      46.820   6.040  12.039  0.00  0.00    +0.000 A 
ENDROOT
BRANCH   1   7
ATOM      7  C   UNL     1      45.057   5.395  10.328  0.00  0.00    +0.000 C 
BRANCH   7  10
ATOM      8  O   UNL     1      44.319   2.892   9.320  0.00  0.00    +0.000 OA
ATOM      9  C   UNL     1      45.298   3.457   8.850  0.00  0.00    +0.000 C 
ATOM     10  N   UNL     1      45.749   4.689   9.276  0.00  0.00    +0.000 N 
ATOM     11  H   UNL     1      46.390   5.210   8.692  0.00  0.00    +0.000 HD
BRANCH   9  12
ATOM     12  C   UNL     1      46.065   2.837   7.747  0.00  0.00    +0.000 A 
ATOM     13  C   UNL     1      46.323   3.514   6.553  0.00  0.00    +0.000 A 
ATOM     14  C   UNL     1      47.066   2.885   5.556  0.00  0.00    +0.000 A 
ATOM     15  C   UNL     1      47.532   1.602   5.796  0.00  0.00    +0.000 A 
ATOM     16  N   UNL     1      47.304   0.922   6.941  0.00  0.00    +0.000 NA
ATOM     17  C   UNL     1      46.581   1.557   7.898  0.00  0.00    +0.000 A 
ENDBRANCH   9  12
ENDBRANCH   7  10
ENDBRANCH   1   7
BRANCH   5  18
ATOM     18  C   UNL     1      48.549   6.738  13.781  0.00  0.00    +0.000 C 
BRANCH  18  19
ATOM     19  N   UNL     1      48.312   7.246  15.108  0.00  0.00    +0.000 N 
ATOM     20  C   UNL     1      48.822   8.454  15.522  0.00  0.00    +0.000 C 
ATOM     21  O   UNL     1      49.491   9.168  14.782  0.00  0.00    +0.000 OA
ATOM     22  H   UNL     1      48.018   6.577  15.816  0.00  0.00    +0.000 HD
BRANCH  20  23
ATOM     23  C   UNL     1      48.472   8.866  16.889  0.00  0.00    +0.000 A 
ATOM     24  C   UNL     1      48.254  10.209  17.172  0.00  0.00    +0.000 A 
ATOM     25  S   UNL     1      47.824  10.506  18.796  0.00  0.00    +0.000 S 
ATOM     26  C   UNL     1      47.968   8.857  19.194  0.00  0.00    +0.000 A 
ATOM     27  N   UNL     1      47.757   8.422  20.465  0.00  0.00    +0.000 NA
ATOM     28  C   UNL     1      47.933   7.154  20.632  0.00  0.00    +0.000 A 
ATOM     29  N   UNL     1      48.288   6.278  19.639  0.00  0.00    +0.000 N 
ATOM     30  C   UNL     1      48.434   6.663  18.329  0.00  0.00    +0.000 A 
ATOM     31  O   UNL     1      48.632   5.838  17.441  0.00  0.00    +0.000 OA
ATOM     32  C   UNL     1      48.300   8.088  18.094  0.00  0.00    +0.000 A 
ATOM     33  H   UNL     1      48.373   5.290  19.828  0.00  0.00    +0.000 HD
ENDBRANCH  20  23
ENDBRANCH  18  19
ENDBRANCH   5  18
TORSDOF 6
ENDMDL
MODEL 8
REMARK VINA RESULT:    -7.260      4.279      8.060
REMARK INTER + INTRA:         -10.709
REMARK INTER:                  -9.176
REMARK INTRA:                  -1.533
REMARK UNBOUND:                -0.902
REMARK  Name = 
REMARK  6 active torsions:
REMARK  status: ('A' for Active; 'I' for Inactive)
REMARK    1  A    between atoms: C_2  and  C_25
REMARK    2  A    between atoms: N_3  and  C_4
REMARK    3  A    between atoms: C_4  and  C_5
REMARK    4  A    between atoms: C_9  and  C_10
REMARK    5  A    between atoms: C_10  and  N_11
REMARK    6  A    between atoms: C_12  and  C_14
REMARK                            x       y       z     vdW  Elec       q    Type
REMARK                         _______ _______ _______ _____ _____    ______ ____
ROOT
ATOM      1  C   UNL     1      50.327   5.904  17.498  0.00  0.00    +0.000 A 
ATOM      2  C   UNL     1      50.640   5.312  18.716  0.00  0.00    +0.000 A 
ATOM      3  N   UNL     1      49.965   4.265  19.243  0.00  0.00    +0.000 NA
ATOM      4  C   UNL     1      48.928   3.780  18.524  0.00  0.00    +0.000 A 
ATOM      5  C   UNL     1      48.505   4.303  17.308  0.00  0.00    +0.000 A 
ATOM      6  C   UNL     1      49.226   5.390  16.795  0.00  0.00    +0.000 A 
ENDROOT
BRANCH   1   7
ATOM      7  C   UNL     1      51.139   7.051  16.970  0.00  0.00    +0.000 C 
BRANCH   7  10
ATOM      8  O   UNL     1      49.544   9.253  16.310  0.00  0.00    +0.000 OA
ATOM      9  C   UNL     1      49.961   8.531  15.414  0.00  0.00    +0.000 C 
ATOM     10  N   UNL     1      50.750   7.421  15.629  0.00  0.00    +0.000 N 
ATOM     11  H   UNL     1      51.265   7.022  14.855  0.00  0.00    +0.000 HD
BRANCH   9  12
ATOM     12  C   UNL     1      49.648   8.833  14.000  0.00  0.00    +0.000 A 
ATOM     13  C   UNL     1      50.078   8.014  12.954  0.00  0.00    +0.000 A 
ATOM     14  C   UNL     1      49.736   8.340  11.644  0.00  0.00    +0.000 A 
ATOM     15  C   UNL     1      48.967   9.473  11.428  0.00  0.00    +0.000 A 
ATOM     16  N   UNL     1      48.531  10.284  12.418  0.00  0.00    +0.000 NA
ATOM     17  C   UNL     1      48.874   9.943  13.686  0.00  0.00    +0.000 A 
ENDBRANCH   9  12
ENDBRANCH   7  10
ENDBRANCH   1   7
BRANCH   5  18
ATOM     18  C   UNL     1      47.344   3.680  16.580  0.00  0.00    +0.000 C 
BRANCH  18  19
ATOM     19  N   UNL     1      46.756   4.587  15.628  0.00  0.00    +0.000 N 
ATOM     20  C   UNL     1      46.744   4.312  14.280  0.00  0.00    +0.000 C 
ATOM     21  O   UNL     1      47.218   3.278  13.821  0.00  0.00    +0.000 OA
ATOM     22  H   UNL     1      46.618   5.550  15.926  0.00  0.00    +0.000 HD
BRANCH  20  23
ATOM     23  C   UNL     1      46.080   5.307  13.427  0.00  0.00    +0.000 A 
ATOM     24  C   UNL     1      46.712   6.513  13.148  0.00  0.00    +0.000 A 
ATOM     25  S   UNL     1      45.817   7.535  12.116  0.00  0.00    +0.000 S 
ATOM     26  C   UNL     1      44.526   6.426  12.047  0.00  0.00    +0.000 A 
ATOM     27  N   UNL     1      43.400   6.705  11.337  0.00  0.00    +0.000 NA
ATOM     28  C   UNL     1      42.490   5.792  11.400  0.00  0.00    +0.000 A 
ATOM     29  N   UNL     1      42.608   4.617  12.097  0.00  0.00    +0.000 N 
ATOM     30  C   UNL     1      43.756   4.263  12.762  0.00  0.00    +0.000 A 
ATOM     31  O   UNL     1      43.879   3.155  13.276  0.00  0.00    +0.000 OA
ATOM     32  C   UNL     1      44.793   5.278  12.769  0.00  0.00    +0.000 A 
ATOM     33  H   UNL     1      41.872   3.926  12.075  0.00  0.00    +0.000 HD
ENDBRANCH  20  23
ENDBRANCH  18  19
ENDBRANCH   5  18
TORSDOF 6
ENDMDL
MODEL 9
REMARK VINA RESULT:    -7.251      4.364      6.481
REMARK INTER + INTRA:         -10.697
REMARK INTER:                  -9.761
REMARK INTRA:                  -0.936
REMARK UNBOUND:                -0.902
REMARK  Name = 
REMARK  6 active torsions:
REMARK  status: ('A' for Active; 'I' for Inactive)
REMARK    1  A    between atoms: C_2  and  C_25
REMARK    2  A    between atoms: N_3  and  C_4
REMARK    3  A    between atoms: C_4  and  C_5
REMARK    4  A    between atoms: C_9  and  C_10
REMARK    5  A    between atoms: C_10  and  N_11
REMARK    6  A    between atoms: C_12  and  C_14
REMARK                            x       y       z     vdW  Elec       q    Type
REMARK                         _______ _______ _______ _____ _____    ______ ____
ROOT
ATOM      1  C   UNL     1      44.267   6.880  11.623  0.00  0.00    +0.000 A 
ATOM      2  C   UNL     1      43.085   6.189  11.384  0.00  0.00    +0.000 A 
ATOM      3  N   UNL     1      42.883   4.895  11.722  0.00  0.00    +0.000 NA
ATOM      4  C   UNL     1      43.906   4.255  12.331  0.00  0.00    +0.000 A 
ATOM      5  C   UNL     1      45.143   4.831  12.601  0.00  0.00    +0.000 A 
ATOM      6  C   UNL     1      45.315   6.172  12.232  0.00  0.00    +0.000 A 
ENDROOT
BRANCH   1   7
ATOM      7  C   UNL     1      44.405   8.324  11.236  0.00  0.00    +0.000 C 
BRANCH   7  10
ATOM      8  O   UNL     1      43.604  10.956  11.744  0.00  0.00    +0.000 OA
ATOM      9  C   UNL     1      42.851  10.214  11.127  0.00  0.00    +0.000 C 
ATOM     10  N   UNL     1      43.146   8.900  10.827  0.00  0.00    +0.000 N 
ATOM     11  H   UNL     1      42.612   8.424  10.112  0.00  0.00    +0.000 HD
BRANCH   9  12
ATOM     12  C   UNL     1      41.547  10.709  10.635  0.00  0.00    +0.000 A 
ATOM     13  C   UNL     1      40.339  10.127  11.025  0.00  0.00    +0.000 A 
ATOM     14  C   UNL     1      39.140  10.648  10.542  0.00  0.00    +0.000 A 
ATOM     15  C   UNL     1      39.195  11.741   9.693  0.00  0.00    +0.000 A 
ATOM     16  N   UNL     1      40.346  12.331   9.300  0.00  0.00    +0.000 NA
ATOM     17  C   UNL     1      41.500  11.807   9.786  0.00  0.00    +0.000 A 
ENDBRANCH   9  12
ENDBRANCH   7  10
ENDBRANCH   1   7
BRANCH   5  18
ATOM     18  C   UNL     1      46.212   4.033  13.296  0.00  0.00    +0.000 C 
BRANCH  18  19
ATOM     19  N   UNL     1      46.660   4.674  14.507  0.00  0.00    +0.000 N 
ATOM     20  C   UNL     1      47.431   4.010  15.433  0.00  0.00    +0.000 C 
ATOM     21  O   UNL     1      47.788   2.848  15.272  0.00  0.00    +0.000 OA
ATOM     22  H   UNL     1      46.163   5.510  14.802  0.00  0.00    +0.000 HD
BRANCH  20  23
ATOM     23  C   UNL     1      47.847   4.795  16.603  0.00  0.00    +0.000 A 
ATOM     24  C   UNL     1      47.470   4.390  17.878  0.00  0.00    +0.000 A 
ATOM     25  S   UNL     1      48.068   5.393  19.122  0.00  0.00    +0.000 S 
ATOM     26  C   UNL     1      48.806   6.438  17.999  0.00  0.00    +0.000 A 
ATOM     27  N   UNL     1      49.479   7.546  18.411  0.00  0.00    +0.000 NA
ATOM     28  C   UNL     1      49.960   8.266  17.453  0.00  0.00    +0.000 A 
ATOM     29  N   UNL     1      49.841   7.971  16.119  0.00  0.00    +0.000 N 
ATOM     30  C   UNL     1      49.238   6.824  15.665  0.00  0.00    +0.000 A 
ATOM     31  O   UNL     1      49.253   6.524  14.474  0.00  0.00    +0.000 OA
ATOM     32  C   UNL     1      48.632   6.004  16.698  0.00  0.00    +0.000 A 
ATOM     33  H   UNL     1      50.273   8.557  15.420  0.00  0.00    +0.000 HD
ENDBRANCH  20  23
ENDBRANCH  18  19
ENDBRANCH   5  18
TORSDOF 6
ENDMDL
