MODEL 1
REMARK VINA RESULT:    -7.783      0.000      0.000
REMARK INTER + INTRA:         -12.322
REMARK INTER:                 -10.968
REMARK INTRA:                  -1.354
REMARK UNBOUND:                -1.354
REMARK  Name = 
REMARK  8 active torsions:
REMARK  status: ('A' for Active; 'I' for Inactive)
REMARK    1  A    between atoms: C_1  and  N_2
REMARK    2  A    between atoms: C_4  and  C_5
REMARK    3  A    between atoms: N_7  and  C_8
REMARK    4  A    between atoms: C_8  and  C_9
REMARK    5  A    between atoms: C_12  and  C_13
REMARK    6  A    between atoms: C_13  and  O_14
REMARK    7  A    between atoms: O_14  and  C_15
REMARK    8  A    between atoms: C_15  and  C_16
REMARK                            x       y       z     vdW  Elec       q    Type
REMARK                         _______ _______ _______ _____ _____    ______ ____
ROOT
ATOM      1  C   UNL     1      46.891   8.257  13.174  0.00  0.00    +0.000 C 
ENDROOT
BRANCH   1   2
ATOM      2  C   UNL     1      46.134   7.205  12.412  0.00  0.00    +0.000 A 
ATOM      3  C   UNL     1      44.908   6.735  12.909  0.00  0.00    +0.000 A 
ATOM      4  C   UNL     1      44.176   5.772  12.209  0.00  0.00    +0.000 A 
ATOM      5  C   UNL     1      44.661   5.261  11.000  0.00  0.00    +0.000 A 
ATOM      6  C   UNL     1      45.885   5.722  10.506  0.00  0.00    +0.000 A 
ATOM      7  C   UNL     1      46.615   6.685  11.203  0.00  0.00    +0.000 A 
BRANCH   5   8
ATOM      8  C   UNL     1      43.928   4.208  10.219  0.00  0.00    +0.000 C 
BRANCH   8   9
ATOM      9  O   UNL     1      44.694   3.014  10.193  0.00  0.00    +0.000 OA
BRANCH   9  10
ATOM     10  C   UNL     1      44.450   2.287   8.994  0.00  0.00    +0.000 C 
BRANCH  10  11
ATOM     11  C   UNL     1      45.709   2.226   8.177  0.00  0.00    +0.000 A 
ATOM     12  C   UNL     1      46.286   3.372   7.623  0.00  0.00    +0.000 A 
ATOM     13  C   UNL     1      47.453   3.237   6.886  0.00  0.00    +0.000 A 
ATOM     14  N   UNL     1      48.080   2.059   6.684  0.00  0.00    +0.000 NA
ATOM     15  C   UNL     1      47.515   0.969   7.243  0.00  0.00    +0.000 A 
ATOM     16  C   UNL     1      46.350   1.000   7.991  0.00  0.00    +0.000 A 
ENDBRANCH  10  11
ENDBRANCH   9  10
ENDBRANCH   8   9
ENDBRANCH   5   8
ENDBRANCH   1   2
BRANCH   1  19
ATOM     17  C   UNL     1      48.571   7.098  14.522  0.00  0.00    +0.000 C 
ATOM     18  O   UNL     1      49.267   6.899  13.539  0.00  0.00    +0.000 OA
ATOM     19  N   UNL     1      47.376   7.785  14.452  0.00  0.00    +0.000 N 
ATOM     20  H   UNL     1      46.799   7.889  15.276  0.00  0.00    +0.000 HD
BRANCH  17  24
ATOM     21  C   UNL     1      50.728   6.864  19.027  0.00  0.00    +0.000 C 
ATOM     22  N   UNL     1      49.920   6.532  17.876  0.00  0.00    +0.000 N 
ATOM     23  C   UNL     1      49.794   7.288  16.740  0.00  0.00    +0.000 A 
ATOM     24  C   UNL     1      48.936   6.631  15.861  0.00  0.00    +0.000 A 
ATOM     25  C   UNL     1      48.528   5.414  16.520  0.00  0.00    +0.000 A 
ATOM     26  C   UNL     1      47.713   4.306  16.295  0.00  0.00    +0.000 A 
ATOM     27 CL   UNL     1      46.819   4.120  14.866  0.00  0.00    +0.000 Cl
ATOM     28  N   UNL     1      47.552   3.333  17.206  0.00  0.00    +0.000 NA
ATOM     29  C   UNL     1      48.227   3.461  18.354  0.00  0.00    +0.000 A 
ATOM     30  N   UNL     1      49.046   4.459  18.717  0.00  0.00    +0.000 NA
ATOM     31  C   UNL     1      49.156   5.402  17.765  0.00  0.00    +0.000 A 
ENDBRANCH  17  24
ENDBRANCH   1  19
TORSDOF 7
ENDMDL
MODEL 2
REMARK VINA RESULT:    -7.496      2.132      2.881
REMARK INTER + INTRA:         -11.918
REMARK INTER:                 -11.055
REMARK INTRA:                  -0.863
REMARK UNBOUND:                -1.354
REMARK  Name = 
REMARK  8 active torsions:
REMARK  status: ('A' for Active; 'I' for Inactive)
REMARK    1  A    between atoms: C_1  and  N_2
REMARK    2  A    between atoms: C_4  and  C_5
REMARK    3  A    between atoms: N_7  and  C_8
REMARK    4  A    between atoms: C_8  and  C_9
REMARK    5  A    between atoms: C_12  and  C_13
REMARK    6  A    between atoms: C_13  and  O_14
REMARK    7  A    between atoms: O_14  and  C_15
REMARK    8  A    between atoms: C_15  and  C_16
REMARK                            x       y       z     vdW  Elec       q    Type
REMARK                         _______ _______ _______ _____ _____    ______ ____
ROOT
ATOM      1  C   UNL     1      48.257   6.692  13.754  0.00  0.00    +0.000 C 
ENDROOT
BRANCH   1   2
ATOM      2  C   UNL     1      47.133   6.090  12.956  0.00  0.00    +0.000 A 
ATOM      3  C   UNL     1      46.749   6.680  11.742  0.00  0.00    +0.000 A 
ATOM      4  C   UNL     1      45.720   6.128  10.974  0.00  0.00    +0.000 A 
ATOM      5  C   UNL     1      45.057   4.975  11.410  0.00  0.00    +0.000 A 
ATOM      6  C   UNL     1      45.432   4.390  12.623  0.00  0.00    +0.000 A 
ATOM      7  C   UNL     1      46.461   4.939  13.389  0.00  0.00    +0.000 A 
BRANCH   5   8
ATOM      8  C   UNL     1      43.929   4.354  10.637  0.00  0.00    +0.000 C 
BRANCH   8   9
ATOM      9  O   UNL     1      44.431   3.317   9.811  0.00  0.00    +0.000 OA
BRANCH   9  10
ATOM     10  C   UNL     1      44.796   3.825   8.533  0.00  0.00    +0.000 C 
BRANCH  10  11
ATOM     11  C   UNL     1      45.837   2.936   7.914  0.00  0.00    +0.000 A 
ATOM     12  C   UNL     1      45.986   1.599   8.294  0.00  0.00    +0.000 A 
ATOM     13  C   UNL     1      46.965   0.838   7.672  0.00  0.00    +0.000 A 
ATOM     14  N   UNL     1      47.777   1.309   6.702  0.00  0.00    +0.000 NA
ATOM     15  C   UNL     1      47.603   2.597   6.340  0.00  0.00    +0.000 A 
ATOM     16  C   UNL     1      46.658   3.438   6.903  0.00  0.00    +0.000 A 
ENDBRANCH  10  11
ENDBRANCH   9  10
ENDBRANCH   8   9
ENDBRANCH   5   8
ENDBRANCH   1   2
BRANCH   1  19
ATOM     17  C   UNL     1      49.167   6.479  16.014  0.00  0.00    +0.000 C 
ATOM     18  O   UNL     1      50.310   6.561  15.594  0.00  0.00    +0.000 OA
ATOM     19  N   UNL     1      48.069   6.554  15.181  0.00  0.00    +0.000 N 
ATOM     20  H   UNL     1      47.137   6.432  15.554  0.00  0.00    +0.000 HD
BRANCH  17  24
ATOM     21  C   UNL     1      48.600   4.330  20.493  0.00  0.00    +0.000 C 
ATOM     22  N   UNL     1      48.594   5.315  19.435  0.00  0.00    +0.000 N 
ATOM     23  C   UNL     1      49.029   5.114  18.151  0.00  0.00    +0.000 A 
ATOM     24  C   UNL     1      48.854   6.294  17.433  0.00  0.00    +0.000 A 
ATOM     25  C   UNL     1      48.284   7.251  18.349  0.00  0.00    +0.000 A 
ATOM     26  C   UNL     1      47.864   8.581  18.372  0.00  0.00    +0.000 A 
ATOM     27 CL   UNL     1      47.967   9.582  17.008  0.00  0.00    +0.000 Cl
ATOM     28  N   UNL     1      47.387   9.165  19.483  0.00  0.00    +0.000 NA
ATOM     29  C   UNL     1      47.313   8.408  20.583  0.00  0.00    +0.000 A 
ATOM     30  N   UNL     1      47.673   7.123  20.719  0.00  0.00    +0.000 NA
ATOM     31  C   UNL     1      48.150   6.601  19.575  0.00  0.00    +0.000 A 
ENDBRANCH  17  24
ENDBRANCH   1  19
TORSDOF 7
ENDMDL
MODEL 3
REMARK VINA RESULT:    -7.492      1.810      2.187
REMARK INTER + INTRA:         -11.912
REMARK INTER:                 -10.788
REMARK INTRA:                  -1.124
REMARK UNBOUND:                -1.354
REMARK  Name = 
REMARK  8 active torsions:
REMARK  status: ('A' for Active; 'I' for Inactive)
REMARK    1  A    between atoms: C_1  and  N_2
REMARK    2  A    between atoms: C_4  and  C_5
REMARK    3  A    between atoms: N_7  and  C_8
REMARK    4  A    between atoms: C_8  and  C_9
REMARK    5  A    between atoms: C_12  and  C_13
REMARK    6  A    between atoms: C_13  and  O_14
REMARK    7  A    between atoms: O_14  and  C_15
REMARK    8  A    between atoms: C_15  and  C_16
REMARK                            x       y       z     vdW  Elec       q    Type
REMARK                         _______ _______ _______ _____ _____    ______ ____
ROOT
ATOM      1  C   UNL     1      48.296   6.462  13.539  0.00  0.00    +0.000 C 
ENDROOT
BRANCH   1   2
ATOM      2  C   UNL     1      47.108   5.852  12.847  0.00  0.00    +0.000 A 
ATOM      3  C   UNL     1      46.536   4.676  13.356  0.00  0.00    +0.000 A 
ATOM      4  C   UNL     1      45.419   4.102  12.741  0.00  0.00    +0.000 A 
ATOM      5  C   UNL     1      44.858   4.696  11.605  0.00  0.00    +0.000 A 
ATOM      6  C   UNL     1      45.432   5.863  11.092  0.00  0.00    +0.000 A 
ATOM      7  C   UNL     1      46.544   6.439  11.706  0.00  0.00    +0.000 A 
BRANCH   5   8
ATOM      8  C   UNL     1      43.675   4.109  10.891  0.00  0.00    +0.000 C 
BRANCH   8   9
ATOM      9  O   UNL     1      44.004   3.878   9.531  0.00  0.00    +0.000 OA
BRANCH   9  10
ATOM     10  C   UNL     1      44.416   2.529   9.336  0.00  0.00    +0.000 C 
BRANCH  10  11
ATOM     11  C   UNL     1      45.598   2.491   8.409  0.00  0.00    +0.000 A 
ATOM     12  C   UNL     1      46.268   1.300   8.117  0.00  0.00    +0.000 A 
ATOM     13  C   UNL     1      47.346   1.342   7.245  0.00  0.00    +0.000 A 
ATOM     14  N   UNL     1      47.780   2.470   6.643  0.00  0.00    +0.000 NA
ATOM     15  C   UNL     1      47.105   3.605   6.926  0.00  0.00    +0.000 A 
ATOM     16  C   UNL     1      46.022   3.666   7.786  0.00  0.00    +0.000 A 
ENDBRANCH  10  11
ENDBRANCH   9  10
ENDBRANCH   8   9
ENDBRANCH   5   8
ENDBRANCH   1   2
BRANCH   1  19
ATOM     17  C   UNL     1      49.080   6.813  15.829  0.00  0.00    +0.000 C 
ATOM     18  O   UNL     1      50.238   6.622  15.494  0.00  0.00    +0.000 OA
ATOM     19  N   UNL     1      48.037   6.777  14.926  0.00  0.00    +0.000 N 
ATOM     20  H   UNL     1      47.084   6.890  15.245  0.00  0.00    +0.000 HD
BRANCH  17  24
ATOM     21  C   UNL     1      47.624   9.295  19.919  0.00  0.00    +0.000 C 
ATOM     22  N   UNL     1      48.046   8.226  19.042  0.00  0.00    +0.000 N 
ATOM     23  C   UNL     1      48.301   8.343  17.701  0.00  0.00    +0.000 A 
ATOM     24  C   UNL     1      48.690   7.098  17.212  0.00  0.00    +0.000 A 
ATOM     25  C   UNL     1      48.661   6.191  18.332  0.00  0.00    +0.000 A 
ATOM     26  C   UNL     1      48.895   4.846  18.617  0.00  0.00    +0.000 A 
ATOM     27 CL   UNL     1      49.368   3.741  17.421  0.00  0.00    +0.000 Cl
ATOM     28  N   UNL     1      48.726   4.330  19.845  0.00  0.00    +0.000 NA
ATOM     29  C   UNL     1      48.332   5.172  20.807  0.00  0.00    +0.000 A 
ATOM     30  N   UNL     1      48.070   6.482  20.693  0.00  0.00    +0.000 NA
ATOM     31  C   UNL     1      48.250   6.933  19.438  0.00  0.00    +0.000 A 
ENDBRANCH  17  24
ENDBRANCH   1  19
TORSDOF 7
ENDMDL
MODEL 4
REMARK VINA RESULT:    -7.067      2.258      3.175
REMARK INTER + INTRA:         -11.313
REMARK INTER:                 -10.320
REMARK INTRA:                  -0.994
REMARK UNBOUND:                -1.354
REMARK  Name = 
REMARK  8 active torsions:
REMARK  status: ('A' for Active; 'I' for Inactive)
REMARK    1  A    between atoms: C_1  and  N_2
REMARK    2  A    between atoms: C_4  and  C_5
REMARK    3  A    between atoms: N_7  and  C_8
REMARK    4  A    between atoms: C_8  and  C_9
REMARK    5  A    between atoms: C_12  and  C_13
REMARK    6  A    between atoms: C_13  and  O_14
REMARK    7  A    between atoms: O_14  and  C_15
REMARK    8  A    between atoms: C_15  and  C_16
REMARK                            x       y       z     vdW  Elec       q    Type
REMARK                         _______ _______ _______ _____ _____    ______ ____
ROOT
ATOM      1  C   UNL     1      47.010   4.249  14.884  0.00  0.00    +0.000 C 
ENDROOT
BRANCH   1   2
ATOM      2  C   UNL     1      46.194   4.336  13.623  0.00  0.00    +0.000 A 
ATOM      3  C   UNL     1      45.852   3.162  12.935  0.00  0.00    +0.000 A 
ATOM      4  C   UNL     1      45.079   3.215  11.772  0.00  0.00    +0.000 A 
ATOM      5  C   UNL     1      44.638   4.448  11.277  0.00  0.00    +0.000 A 
ATOM      6  C   UNL     1      44.984   5.620  11.956  0.00  0.00    +0.000 A 
ATOM      7  C   UNL     1      45.753   5.567  13.119  0.00  0.00    +0.000 A 
BRANCH   5   8
ATOM      8  C   UNL     1      43.826   4.565  10.019  0.00  0.00    +0.000 C 
BRANCH   8   9
ATOM      9  O   UNL     1      44.250   3.586   9.084  0.00  0.00    +0.000 OA
BRANCH   9  10
ATOM     10  C   UNL     1      45.178   4.142   8.160  0.00  0.00    +0.000 C 
BRANCH  10  11
ATOM     11  C   UNL     1      46.044   3.052   7.596  0.00  0.00    +0.000 A 
ATOM     12  C   UNL     1      46.133   1.794   8.199  0.00  0.00    +0.000 A 
ATOM     13  C   UNL     1      46.949   0.836   7.617  0.00  0.00    +0.000 A 
ATOM     14  N   UNL     1      47.654   1.040   6.483  0.00  0.00    +0.000 NA
ATOM     15  C   UNL     1      47.538   2.256   5.910  0.00  0.00    +0.000 A 
ATOM     16  C   UNL     1      46.755   3.279   6.417  0.00  0.00    +0.000 A 
ENDBRANCH  10  11
ENDBRANCH   9  10
ENDBRANCH   8   9
ENDBRANCH   5   8
ENDBRANCH   1   2
BRANCH   1  19
ATOM     17  C   UNL     1      48.542   5.611  16.219  0.00  0.00    +0.000 C 
ATOM     18  O   UNL     1      49.129   4.617  16.615  0.00  0.00    +0.000 OA
ATOM     19  N   UNL     1      47.484   5.539  15.336  0.00  0.00    +0.000 N 
ATOM     20  H   UNL     1      46.987   6.378  15.067  0.00  0.00    +0.000 HD
BRANCH  17  24
ATOM     21  C   UNL     1      50.621  10.159  16.251  0.00  0.00    +0.000 C 
ATOM     22  N   UNL     1      49.851   9.001  16.647  0.00  0.00    +0.000 N 
ATOM     23  C   UNL     1      49.711   7.846  15.922  0.00  0.00    +0.000 A 
ATOM     24  C   UNL     1      48.904   6.966  16.640  0.00  0.00    +0.000 A 
ATOM     25  C   UNL     1      48.543   7.644  17.861  0.00  0.00    +0.000 A 
ATOM     26  C   UNL     1      47.787   7.428  19.012  0.00  0.00    +0.000 A 
ATOM     27 CL   UNL     1      46.932   5.988  19.272  0.00  0.00    +0.000 Cl
ATOM     28  N   UNL     1      47.657   8.358  19.973  0.00  0.00    +0.000 NA
ATOM     29  C   UNL     1      48.303   9.515  19.787  0.00  0.00    +0.000 A 
ATOM     30  N   UNL     1      49.064   9.870  18.743  0.00  0.00    +0.000 NA
ATOM     31  C   UNL     1      49.146   8.900  17.815  0.00  0.00    +0.000 A 
ENDBRANCH  17  24
ENDBRANCH   1  19
TORSDOF 7
ENDMDL
MODEL 5
REMARK VINA RESULT:    -6.969      2.507      3.513
REMARK INTER + INTRA:         -11.174
REMARK INTER:                 -10.003
REMARK INTRA:                  -1.172
REMARK UNBOUND:                -1.354
REMARK  Name = 
REMARK  8 active torsions:
REMARK  status: ('A' for Active; 'I' for Inactive)
REMARK    1  A    between atoms: C_1  and  N_2
REMARK    2  A    between atoms: C_4  and  C_5
REMARK    3  A    between atoms: N_7  and  C_8
REMARK    4  A    between atoms: C_8  and  C_9
REMARK    5  A    between atoms: C_12  and  C_13
REMARK    6  A    between atoms: C_13  and  O_14
REMARK    7  A    between atoms: O_14  and  C_15
REMARK    8  A    between atoms: C_15  and  C_16
REMARK                            x       y       z     vdW  Elec       q    Type
REMARK                         _______ _______ _______ _____ _____    ______ ____
ROOT
ATOM      1  C   UNL     1      47.566   3.973  15.563  0.00  0.00    +0.000 C 
ENDROOT
BRANCH   1   2
ATOM      2  C   UNL     1      46.891   4.319  14.264  0.00  0.00    +0.000 A 
ATOM      3  C   UNL     1      46.944   5.636  13.783  0.00  0.00    +0.000 A 
ATOM      4  C   UNL     1      46.342   5.978  12.569  0.00  0.00    +0.000 A 
ATOM      5  C   UNL     1      45.673   5.005  11.817  0.00  0.00    +0.000 A 
ATOM      6  C   UNL     1      45.612   3.694  12.297  0.00  0.00    +0.000 A 
ATOM      7  C   UNL     1      46.216   3.351  13.507  0.00  0.00    +0.000 A 
BRANCH   5   8
ATOM      8  C   UNL     1      44.987   5.322  10.519  0.00  0.00    +0.000 C 
BRANCH   8   9
ATOM      9  O   UNL     1      44.510   4.126   9.926  0.00  0.00    +0.000 OA
BRANCH   9  10
ATOM     10  C   UNL     1      44.601   4.197   8.508  0.00  0.00    +0.000 C 
BRANCH  10  11
ATOM     11  C   UNL     1      45.629   3.217   8.018  0.00  0.00    +0.000 A 
ATOM     12  C   UNL     1      46.658   3.599   7.152  0.00  0.00    +0.000 A 
ATOM     13  C   UNL     1      47.575   2.640   6.748  0.00  0.00    +0.000 A 
ATOM     14  N   UNL     1      47.543   1.354   7.157  0.00  0.00    +0.000 NA
ATOM     15  C   UNL     1      46.552   1.013   8.007  0.00  0.00    +0.000 A 
ATOM     16  C   UNL     1      45.587   1.896   8.463  0.00  0.00    +0.000 A 
ENDBRANCH  10  11
ENDBRANCH   9  10
ENDBRANCH   8   9
ENDBRANCH   5   8
ENDBRANCH   1   2
BRANCH   1  19
ATOM     17  C   UNL     1      48.519   5.630  17.088  0.00  0.00    +0.000 C 
ATOM     18  O   UNL     1      49.650   5.379  16.703  0.00  0.00    +0.000 OA
ATOM     19  N   UNL     1      47.407   4.999  16.568  0.00  0.00    +0.000 N 
ATOM     20  H   UNL     1      46.489   5.194  16.945  0.00  0.00    +0.000 HD
BRANCH  17  24
ATOM     21  C   UNL     1      47.437   7.633  21.540  0.00  0.00    +0.000 C 
ATOM     22  N   UNL     1      47.741   7.504  20.133  0.00  0.00    +0.000 N 
ATOM     23  C   UNL     1      47.999   6.331  19.473  0.00  0.00    +0.000 A 
ATOM     24  C   UNL     1      48.237   6.619  18.131  0.00  0.00    +0.000 A 
ATOM     25  C   UNL     1      48.115   8.049  17.991  0.00  0.00    +0.000 A 
ATOM     26  C   UNL     1      48.223   9.033  17.009  0.00  0.00    +0.000 A 
ATOM     27 CL   UNL     1      48.617   8.664  15.403  0.00  0.00    +0.000 Cl
ATOM     28  N   UNL     1      48.059  10.339  17.278  0.00  0.00    +0.000 NA
ATOM     29  C   UNL     1      47.769  10.665  18.542  0.00  0.00    +0.000 A 
ATOM     30  N   UNL     1      47.631   9.841  19.591  0.00  0.00    +0.000 NA
ATOM     31  C   UNL     1      47.816   8.551  19.256  0.00  0.00    +0.000 A 
ENDBRANCH  17  24
ENDBRANCH   1  19
TORSDOF 7
ENDMDL
MODEL 6
REMARK VINA RESULT:    -6.733      3.498      5.395
REMARK INTER + INTRA:         -10.843
REMARK INTER:                  -9.820
REMARK INTRA:                  -1.023
REMARK UNBOUND:                -1.354
REMARK  Name = 
REMARK  8 active torsions:
REMARK  status: ('A' for Active; 'I' for Inactive)
REMARK    1  A    between atoms: C_1  and  N_2
REMARK    2  A    between atoms: C_4  and  C_5
REMARK    3  A    between atoms: N_7  and  C_8
REMARK    4  A    between atoms: C_8  and  C_9
REMARK    5  A    between atoms: C_12  and  C_13
REMARK    6  A    between atoms: C_13  and  O_14
REMARK    7  A    between atoms: O_14  and  C_15
REMARK    8  A    between atoms: C_15  and  C_16
REMARK                            x       y       z     vdW  Elec       q    Type
REMARK                         _______ _______ _______ _____ _____    ______ ____
ROOT
ATOM      1  C   UNL     1      48.013   6.210  13.820  0.00  0.00    +0.000 C 
ENDROOT
BRANCH   1   2
ATOM      2  C   UNL     1      46.909   5.704  12.933  0.00  0.00    +0.000 A 
ATOM      3  C   UNL     1      46.287   4.480  13.228  0.00  0.00    +0.000 A 
ATOM      4  C   UNL     1      45.246   3.998  12.430  0.00  0.00    +0.000 A 
ATOM      5  C   UNL     1      44.812   4.733  11.320  0.00  0.00    +0.000 A 
ATOM      6  C   UNL     1      45.435   5.947  11.020  0.00  0.00    +0.000 A 
ATOM      7  C   UNL     1      46.472   6.431  11.817  0.00  0.00    +0.000 A 
BRANCH   5   8
ATOM      8  C   UNL     1      43.715   4.250  10.415  0.00  0.00    +0.000 C 
BRANCH   8   9
ATOM      9  O   UNL     1      44.226   3.269   9.527  0.00  0.00    +0.000 OA
BRANCH   9  10
ATOM     10  C   UNL     1      44.810   3.883   8.383  0.00  0.00    +0.000 C 
BRANCH  10  11
ATOM     11  C   UNL     1      45.853   2.974   7.798  0.00  0.00    +0.000 A 
ATOM     12  C   UNL     1      46.032   1.665   8.256  0.00  0.00    +0.000 A 
ATOM     13  C   UNL     1      47.010   0.883   7.662  0.00  0.00    +0.000 A 
ATOM     14  N   UNL     1      47.794   1.305   6.647  0.00  0.00    +0.000 NA
ATOM     15  C   UNL     1      47.591   2.565   6.210  0.00  0.00    +0.000 A 
ATOM     16  C   UNL     1      46.644   3.425   6.741  0.00  0.00    +0.000 A 
ENDBRANCH  10  11
ENDBRANCH   9  10
ENDBRANCH   8   9
ENDBRANCH   5   8
ENDBRANCH   1   2
BRANCH   1  19
ATOM     17  C   UNL     1      49.119   8.351  13.400  0.00  0.00    +0.000 C 
ATOM     18  O   UNL     1      48.467   8.895  14.276  0.00  0.00    +0.000 OA
ATOM     19  N   UNL     1      48.984   7.009  13.106  0.00  0.00    +0.000 N 
ATOM     20  H   UNL     1      49.504   6.601  12.340  0.00  0.00    +0.000 HD
BRANCH  17  24
ATOM     21  C   UNL     1      53.491   9.882  11.516  0.00  0.00    +0.000 C 
ATOM     22  N   UNL     1      52.071   9.752  11.752  0.00  0.00    +0.000 N 
ATOM     23  C   UNL     1      51.482   8.887  12.636  0.00  0.00    +0.000 A 
ATOM     24  C   UNL     1      50.102   9.066  12.582  0.00  0.00    +0.000 A 
ATOM     25  C   UNL     1      49.861  10.099  11.604  0.00  0.00    +0.000 A 
ATOM     26  C   UNL     1      48.795  10.780  11.018  0.00  0.00    +0.000 A 
ATOM     27 CL   UNL     1      47.183  10.452  11.427  0.00  0.00    +0.000 Cl
ATOM     28  N   UNL     1      48.971  11.711  10.066  0.00  0.00    +0.000 NA
ATOM     29  C   UNL     1      50.231  11.977   9.705  0.00  0.00    +0.000 A 
ATOM     30  N   UNL     1      51.354  11.413  10.172  0.00  0.00    +0.000 NA
ATOM     31  C   UNL     1      51.108  10.485  11.114  0.00  0.00    +0.000 A 
ENDBRANCH  17  24
ENDBRANCH   1  19
TORSDOF 7
ENDMDL
MODEL 7
REMARK VINA RESULT:    -6.713      2.349      2.769
REMARK INTER + INTRA:         -10.814
REMARK INTER:                  -9.928
REMARK INTRA:                  -0.886
REMARK UNBOUND:                -1.354
REMARK  Name = 
REMARK  8 active torsions:
REMARK  status: ('A' for Active; 'I' for Inactive)
REMARK    1  A    between atoms: C_1  and  N_2
REMARK    2  A    between atoms: C_4  and  C_5
REMARK    3  A    between atoms: N_7  and  C_8
REMARK    4  A    between atoms: C_8  and  C_9
REMARK    5  A    between atoms: C_12  and  C_13
REMARK    6  A    between atoms: C_13  and  O_14
REMARK    7  A    between atoms: O_14  and  C_15
REMARK    8  A    between atoms: C_15  and  C_16
REMARK                            x       y       z     vdW  Elec       q    Type
REMARK                         _______ _______ _______ _____ _____    ______ ____
ROOT
ATOM      1  C   UNL     1      48.129   6.889  14.879  0.00  0.00    +0.000 C 
ENDROOT
BRANCH   1   2
ATOM      2  C   UNL     1      47.238   6.028  14.026  0.00  0.00    +0.000 A 
ATOM      3  C   UNL     1      46.615   6.578  12.896  0.00  0.00    +0.000 A 
ATOM      4  C   UNL     1      45.799   5.792  12.077  0.00  0.00    +0.000 A 
ATOM      5  C   UNL     1      45.592   4.441  12.379  0.00  0.00    +0.000 A 
ATOM      6  C   UNL     1      46.205   3.893  13.509  0.00  0.00    +0.000 A 
ATOM      7  C   UNL     1      47.022   4.676  14.324  0.00  0.00    +0.000 A 
BRANCH   5   8
ATOM      8  C   UNL     1      44.705   3.558  11.548  0.00  0.00    +0.000 C 
BRANCH   8   9
ATOM      9  O   UNL     1      45.490   2.841  10.610  0.00  0.00    +0.000 OA
BRANCH   9  10
ATOM     10  C   UNL     1      44.760   2.621   9.408  0.00  0.00    +0.000 C 
BRANCH  10  11
ATOM     11  C   UNL     1      45.714   2.440   8.262  0.00  0.00    +0.000 A 
ATOM     12  C   UNL     1      46.419   1.249   8.070  0.00  0.00    +0.000 A 
ATOM     13  C   UNL     1      47.277   1.154   6.985  0.00  0.00    +0.000 A 
ATOM     14  N   UNL     1      47.461   2.144   6.085  0.00  0.00    +0.000 NA
ATOM     15  C   UNL     1      46.756   3.278   6.281  0.00  0.00    +0.000 A 
ATOM     16  C   UNL     1      45.880   3.471   7.336  0.00  0.00    +0.000 A 
ENDBRANCH  10  11
ENDBRANCH   9  10
ENDBRANCH   8   9
ENDBRANCH   5   8
ENDBRANCH   1   2
BRANCH   1  19
ATOM     17  C   UNL     1      49.237   5.781  16.756  0.00  0.00    +0.000 C 
ATOM     18  O   UNL     1      48.286   6.002  17.488  0.00  0.00    +0.000 OA
ATOM     19  N   UNL     1      49.251   6.164  15.430  0.00  0.00    +0.000 N 
ATOM     20  H   UNL     1      50.075   6.010  14.864  0.00  0.00    +0.000 HD
BRANCH  17  24
ATOM     21  C   UNL     1      53.883   4.984  18.425  0.00  0.00    +0.000 C 
ATOM     22  N   UNL     1      52.538   4.748  17.952  0.00  0.00    +0.000 N 
ATOM     23  C   UNL     1      51.619   5.715  17.636  0.00  0.00    +0.000 A 
ATOM     24  C   UNL     1      50.447   5.092  17.212  0.00  0.00    +0.000 A 
ATOM     25  C   UNL     1      50.688   3.672  17.284  0.00  0.00    +0.000 A 
ATOM     26  C   UNL     1      50.024   2.468  17.051  0.00  0.00    +0.000 A 
ATOM     27 CL   UNL     1      48.418   2.415  16.512  0.00  0.00    +0.000 Cl
ATOM     28  N   UNL     1      50.598   1.275  17.271  0.00  0.00    +0.000 NA
ATOM     29  C   UNL     1      51.859   1.283  17.718  0.00  0.00    +0.000 A 
ATOM     30  N   UNL     1      52.627   2.349  17.987  0.00  0.00    +0.000 NA
ATOM     31  C   UNL     1      51.991   3.510  17.754  0.00  0.00    +0.000 A 
ENDBRANCH  17  24
ENDBRANCH   1  19
TORSDOF 7
ENDMDL
MODEL 8
REMARK VINA RESULT:    -6.559      3.806      5.951
REMARK INTER + INTRA:         -10.597
REMARK INTER:                  -9.698
REMARK INTRA:                  -0.899
REMARK UNBOUND:                -1.354
REMARK  Name = 
REMARK  8 active torsions:
REMARK  status: ('A' for Active; 'I' for Inactive)
REMARK    1  A    between atoms: C_1  and  N_2
REMARK    2  A    between atoms: C_4  and  C_5
REMARK    3  A    between atoms: N_7  and  C_8
REMARK    4  A    between atoms: C_8  and  C_9
REMARK    5  A    between atoms: C_12  and  C_13
REMARK    6  A    between atoms: C_13  and  O_14
REMARK    7  A    between atoms: O_14  and  C_15
REMARK    8  A    between atoms: C_15  and  C_16
REMARK                            x       y       z     vdW  Elec       q    Type
REMARK                         _______ _______ _______ _____ _____    ______ ____
ROOT
ATOM      1  C   UNL     1      48.209   3.252  17.822  0.00  0.00    +0.000 C 
ENDROOT
BRANCH   1   2
ATOM      2  C   UNL     1      48.018   4.182  16.654  0.00  0.00    +0.000 A 
ATOM      3  C   UNL     1      48.624   5.447  16.668  0.00  0.00    +0.000 A 
ATOM      4  C   UNL     1      48.477   6.321  15.587  0.00  0.00    +0.000 A 
ATOM      5  C   UNL     1      47.718   5.941  14.474  0.00  0.00    +0.000 A 
ATOM      6  C   UNL     1      47.106   4.684  14.462  0.00  0.00    +0.000 A 
ATOM      7  C   UNL     1      47.255   3.811  15.539  0.00  0.00    +0.000 A 
BRANCH   5   8
ATOM      8  C   UNL     1      47.506   6.849  13.296  0.00  0.00    +0.000 C 
BRANCH   8   9
ATOM      9  O   UNL     1      46.117   7.008  13.059  0.00  0.00    +0.000 OA
BRANCH   9  10
ATOM     10  C   UNL     1      45.819   6.819  11.680  0.00  0.00    +0.000 C 
BRANCH  10  11
ATOM     11  C   UNL     1      44.900   5.642  11.518  0.00  0.00    +0.000 A 
ATOM     12  C   UNL     1      44.956   4.812  10.395  0.00  0.00    +0.000 A 
ATOM     13  C   UNL     1      44.079   3.739  10.319  0.00  0.00    +0.000 A 
ATOM     14  N   UNL     1      43.181   3.436  11.280  0.00  0.00    +0.000 NA
ATOM     15  C   UNL     1      43.158   4.241  12.363  0.00  0.00    +0.000 A 
ATOM     16  C   UNL     1      43.987   5.338  12.529  0.00  0.00    +0.000 A 
ENDBRANCH  10  11
ENDBRANCH   9  10
ENDBRANCH   8   9
ENDBRANCH   5   8
ENDBRANCH   1   2
BRANCH   1  19
ATOM     17  C   UNL     1      50.291   2.145  17.175  0.00  0.00    +0.000 C 
ATOM     18  O   UNL     1      49.782   1.717  16.151  0.00  0.00    +0.000 OA
ATOM     19  N   UNL     1      49.599   2.938  18.067  0.00  0.00    +0.000 N 
ATOM     20  H   UNL     1      50.035   3.234  18.930  0.00  0.00    +0.000 HD
BRANCH  17  24
ATOM     21  C   UNL     1      54.415  -0.359  18.492  0.00  0.00    +0.000 C 
ATOM     22  N   UNL     1      53.518   0.723  18.152  0.00  0.00    +0.000 N 
ATOM     23  C   UNL     1      52.202   0.590  17.793  0.00  0.00    +0.000 A 
ATOM     24  C   UNL     1      51.677   1.858  17.551  0.00  0.00    +0.000 A 
ATOM     25  C   UNL     1      52.749   2.795  17.779  0.00  0.00    +0.000 A 
ATOM     26  C   UNL     1      52.989   4.168  17.728  0.00  0.00    +0.000 A 
ATOM     27 CL   UNL     1      51.789   5.276  17.276  0.00  0.00    +0.000 Cl
ATOM     28  N   UNL     1      54.193   4.699  17.996  0.00  0.00    +0.000 NA
ATOM     29  C   UNL     1      55.168   3.849  18.335  0.00  0.00    +0.000 A 
ATOM     30  N   UNL     1      55.095   2.513  18.430  0.00  0.00    +0.000 NA
ATOM     31  C   UNL     1      53.868   2.046  18.140  0.00  0.00    +0.000 A 
ENDBRANCH  17  24
ENDBRANCH   1  19
TORSDOF 7
ENDMDL
MODEL 9
REMARK VINA RESULT:    -6.344      3.700      8.548
REMARK INTER + INTRA:         -10.294
REMARK INTER:                  -9.029
REMARK INTRA:                  -1.265
REMARK UNBOUND:                -1.354
REMARK  Name = 
REMARK  8 active torsions:
REMARK  status: ('A' for Active; 'I' for Inactive)
REMARK    1  A    between atoms: C_1  and  N_2
REMARK    2  A    between atoms: C_4  and  C_5
REMARK    3  A    between atoms: N_7  and  C_8
REMARK    4  A    between atoms: C_8  and  C_9
REMARK    5  A    between atoms: C_12  and  C_13
REMARK    6  A    between atoms: C_13  and  O_14
REMARK    7  A    between atoms: O_14  and  C_15
REMARK    8  A    between atoms: C_15  and  C_16
REMARK                            x       y       z     vdW  Elec       q    Type
REMARK                         _______ _______ _______ _____ _____    ______ ____
ROOT
ATOM      1  C   UNL     1      47.342   3.373  16.731  0.00  0.00    +0.000 C 
ENDROOT
BRANCH   1   2
ATOM      2  C   UNL     1      48.799   3.468  17.093  0.00  0.00    +0.000 A 
ATOM      3  C   UNL     1      49.604   2.319  17.042  0.00  0.00    +0.000 A 
ATOM      4  C   UNL     1      50.964   2.387  17.354  0.00  0.00    +0.000 A 
ATOM      5  C   UNL     1      51.542   3.606  17.725  0.00  0.00    +0.000 A 
ATOM      6  C   UNL     1      50.741   4.750  17.784  0.00  0.00    +0.000 A 
ATOM      7  C   UNL     1      49.383   4.685  17.470  0.00  0.00    +0.000 A 
BRANCH   5   8
ATOM      8  C   UNL     1      52.992   3.731  18.094  0.00  0.00    +0.000 C 
BRANCH   8   9
ATOM      9  O   UNL     1      53.425   5.065  17.885  0.00  0.00    +0.000 OA
BRANCH   9  10
ATOM     10  C   UNL     1      54.467   5.108  16.916  0.00  0.00    +0.000 C 
BRANCH  10  11
ATOM     11  C   UNL     1      54.137   6.130  15.865  0.00  0.00    +0.000 A 
ATOM     12  C   UNL     1      52.999   6.938  15.953  0.00  0.00    +0.000 A 
ATOM     13  C   UNL     1      52.765   7.864  14.948  0.00  0.00    +0.000 A 
ATOM     14  N   UNL     1      53.584   8.047  13.891  0.00  0.00    +0.000 NA
ATOM     15  C   UNL     1      54.685   7.269  13.837  0.00  0.00    +0.000 A 
ATOM     16  C   UNL     1      55.004   6.313  14.787  0.00  0.00    +0.000 A 
ENDBRANCH  10  11
ENDBRANCH   9  10
ENDBRANCH   8   9
ENDBRANCH   5   8
ENDBRANCH   1   2
BRANCH   1  19
ATOM     17  C   UNL     1      46.917   4.199  14.469  0.00  0.00    +0.000 C 
ATOM     18  O   UNL     1      47.231   3.124  13.985  0.00  0.00    +0.000 OA
ATOM     19  N   UNL     1      46.918   4.422  15.831  0.00  0.00    +0.000 N 
ATOM     20  H   UNL     1      46.700   5.339  16.197  0.00  0.00    +0.000 HD
BRANCH  17  24
ATOM     21  C   UNL     1      46.911   8.725  12.342  0.00  0.00    +0.000 C 
ATOM     22  N   UNL     1      46.515   7.386  12.716  0.00  0.00    +0.000 N 
ATOM     23  C   UNL     1      47.222   6.539  13.529  0.00  0.00    +0.000 A 
ATOM     24  C   UNL     1      46.511   5.348  13.656  0.00  0.00    +0.000 A 
ATOM     25  C   UNL     1      45.312   5.500  12.868  0.00  0.00    +0.000 A 
ATOM     26  C   UNL     1      44.178   4.774  12.508  0.00  0.00    +0.000 A 
ATOM     27 CL   UNL     1      43.915   3.188  13.045  0.00  0.00    +0.000 Cl
ATOM     28  N   UNL     1      43.239   5.267  11.684  0.00  0.00    +0.000 NA
ATOM     29  C   UNL     1      43.427   6.510  11.225  0.00  0.00    +0.000 A 
ATOM     30  N   UNL     1      44.458   7.330  11.479  0.00  0.00    +0.000 NA
ATOM     31  C   UNL     1      45.365   6.773  12.301  0.00  0.00    +0.000 A 
ENDBRANCH  17  24
ENDBRANCH   1  19
TORSDOF 7
ENDMDL
