MODEL 1
REMARK VINA RESULT:    -7.510      0.000      0.000
REMARK INTER + INTRA:          -9.786
REMARK INTER:                  -9.266
REMARK INTRA:                  -0.520
REMARK UNBOUND:                -0.520
REMARK  Name = 
REMARK  4 active torsions:
REMARK  status: ('A' for Active; 'I' for Inactive)
REMARK    1  A    between atoms: C_5  and  O_6
REMARK    2  A    between atoms: O_6  and  C_7
REMARK    3  A    between atoms: C_7  and  C_8
REMARK    4  A    between atoms: C_12  and  C_13
REMARK                            x       y       z     vdW  Elec       q    Type
REMARK                         _______ _______ _______ _____ _____    ______ ____
ROOT
ATOM      1  C   UNL     1      45.140   4.771  12.191  0.00  0.00    +0.000 A 
ATOM      2  C   UNL     1      45.534   3.668  12.959  0.00  0.00    +0.000 A 
ATOM      3  C   UNL     1      46.747   3.683  13.622  0.00  0.00    +0.000 A 
ATOM      4  N   UNL     1      47.613   4.710  13.561  0.00  0.00    +0.000 NA
ATOM      5  C   UNL     1      47.259   5.791  12.827  0.00  0.00    +0.000 A 
ATOM      6  C   UNL     1      46.036   5.849  12.147  0.00  0.00    +0.000 A 
ENDROOT
BRANCH   5   7
ATOM      7  C   UNL     1      48.257   6.876  12.789  0.00  0.00    +0.000 A 
ATOM      8  C   UNL     1      48.456   7.658  11.641  0.00  0.00    +0.000 A 
ATOM      9  C   UNL     1      49.403   8.682  11.630  0.00  0.00    +0.000 A 
ATOM     10  C   UNL     1      50.146   8.894  12.778  0.00  0.00    +0.000 A 
ATOM     11  N   UNL     1      50.000   8.171  13.907  0.00  0.00    +0.000 NA
ATOM     12  C   UNL     1      49.068   7.186  13.879  0.00  0.00    +0.000 A 
ENDBRANCH   5   7
BRANCH   1  13
ATOM     13  C   UNL     1      43.820   4.771  11.419  0.00  0.00    +0.000 C 
ATOM     14  C   UNL     1      42.550   5.228  12.128  0.00  0.00    +0.000 C 
ATOM     15  C   UNL     1      43.178   6.107  11.098  0.00  0.00    +0.000 C 
BRANCH  13  16
ATOM     16  O   UNL     1      43.536   3.650  10.539  0.00  0.00    +0.000 OA
BRANCH  16  21
ATOM     17  F   UNL     1      46.956   2.593   6.516  0.00  0.00    +0.000 F 
ATOM     18  C   UNL     1      46.185   2.890   7.571  0.00  0.00    +0.000 A 
ATOM     19  C   UNL     1      45.809   1.878   8.442  0.00  0.00    +0.000 A 
ATOM     20  N   UNL     1      44.968   2.082   9.488  0.00  0.00    +0.000 NA
ATOM     21  C   UNL     1      44.501   3.346   9.602  0.00  0.00    +0.000 A 
ATOM     22  C   UNL     1      44.928   4.371   8.765  0.00  0.00    +0.000 A 
ATOM     23  N   UNL     1      45.775   4.167   7.725  0.00  0.00    +0.000 NA
ENDBRANCH  16  21
ENDBRANCH  13  16
ENDBRANCH   1  13
TORSDOF 4
ENDMDL
MODEL 2
REMARK VINA RESULT:    -7.005      1.973      3.254
REMARK INTER + INTRA:          -9.163
REMARK INTER:                  -9.277
REMARK INTRA:                   0.114
REMARK UNBOUND:                -0.520
REMARK  Name = 
REMARK  4 active torsions:
REMARK  status: ('A' for Active; 'I' for Inactive)
REMARK    1  A    between atoms: C_5  and  O_6
REMARK    2  A    between atoms: O_6  and  C_7
REMARK    3  A    between atoms: C_7  and  C_8
REMARK    4  A    between atoms: C_12  and  C_13
REMARK                            x       y       z     vdW  Elec       q    Type
REMARK                         _______ _______ _______ _____ _____    ______ ____
ROOT
ATOM      1  C   UNL     1      45.499   5.193  12.487  0.00  0.00    +0.000 A 
ATOM      2  C   UNL     1      46.347   6.130  11.882  0.00  0.00    +0.000 A 
ATOM      3  C   UNL     1      47.541   6.475  12.486  0.00  0.00    +0.000 A 
ATOM      4  N   UNL     1      47.950   5.971  13.664  0.00  0.00    +0.000 NA
ATOM      5  C   UNL     1      47.151   5.062  14.272  0.00  0.00    +0.000 A 
ATOM      6  C   UNL     1      45.938   4.654  13.705  0.00  0.00    +0.000 A 
ENDROOT
BRANCH   5   7
ATOM      7  C   UNL     1      47.648   4.561  15.566  0.00  0.00    +0.000 A 
ATOM      8  C   UNL     1      47.642   3.193  15.881  0.00  0.00    +0.000 A 
ATOM      9  C   UNL     1      48.122   2.741  17.111  0.00  0.00    +0.000 A 
ATOM     10  C   UNL     1      48.591   3.681  18.011  0.00  0.00    +0.000 A 
ATOM     11  N   UNL     1      48.616   5.007  17.764  0.00  0.00    +0.000 NA
ATOM     12  C   UNL     1      48.143   5.406  16.558  0.00  0.00    +0.000 A 
ENDBRANCH   5   7
BRANCH   1  13
ATOM     13  C   UNL     1      44.156   4.816  11.862  0.00  0.00    +0.000 C 
ATOM     14  C   UNL     1      42.872   5.154  12.611  0.00  0.00    +0.000 C 
ATOM     15  C   UNL     1      43.243   5.933  11.394  0.00  0.00    +0.000 C 
BRANCH  13  16
ATOM     16  O   UNL     1      44.037   3.523  11.209  0.00  0.00    +0.000 OA
BRANCH  16  21
ATOM     17  F   UNL     1      46.289   3.081   6.336  0.00  0.00    +0.000 F 
ATOM     18  C   UNL     1      45.819   3.222   7.583  0.00  0.00    +0.000 A 
ATOM     19  C   UNL     1      45.700   2.103   8.394  0.00  0.00    +0.000 A 
ATOM     20  N   UNL     1      45.163   2.150   9.639  0.00  0.00    +0.000 NA
ATOM     21  C   UNL     1      44.725   3.371  10.023  0.00  0.00    +0.000 A 
ATOM     22  C   UNL     1      44.902   4.502   9.233  0.00  0.00    +0.000 A 
ATOM     23  N   UNL     1      45.447   4.454   7.992  0.00  0.00    +0.000 NA
ENDBRANCH  16  21
ENDBRANCH  13  16
ENDBRANCH   1  13
TORSDOF 4
ENDMDL
MODEL 3
REMARK VINA RESULT:    -6.963      3.216      6.608
REMARK INTER + INTRA:          -9.111
REMARK INTER:                  -8.706
REMARK INTRA:                  -0.405
REMARK UNBOUND:                -0.520
REMARK  Name = 
REMARK  4 active torsions:
REMARK  status: ('A' for Active; 'I' for Inactive)
REMARK    1  A    between atoms: C_5  and  O_6
REMARK    2  A    between atoms: O_6  and  C_7
REMARK    3  A    between atoms: C_7  and  C_8
REMARK    4  A    between atoms: C_12  and  C_13
REMARK                            x       y       z     vdW  Elec       q    Type
REMARK                         _______ _______ _______ _____ _____    ______ ____
ROOT
ATOM      1  C   UNL     1      45.091   4.455  11.162  0.00  0.00    +0.000 A 
ATOM      2  C   UNL     1      43.982   3.677  11.517  0.00  0.00    +0.000 A 
ATOM      3  C   UNL     1      43.624   2.587  10.747  0.00  0.00    +0.000 A 
ATOM      4  N   UNL     1      44.279   2.220   9.631  0.00  0.00    +0.000 NA
ATOM      5  C   UNL     1      45.357   2.951   9.263  0.00  0.00    +0.000 A 
ATOM      6  C   UNL     1      45.785   4.057  10.009  0.00  0.00    +0.000 A 
ENDROOT
BRANCH   5   7
ATOM      7  C   UNL     1      46.021   2.507   8.024  0.00  0.00    +0.000 A 
ATOM      8  C   UNL     1      46.174   3.360   6.920  0.00  0.00    +0.000 A 
ATOM      9  C   UNL     1      46.810   2.917   5.760  0.00  0.00    +0.000 A 
ATOM     10  C   UNL     1      47.273   1.614   5.727  0.00  0.00    +0.000 A 
ATOM     11  N   UNL     1      47.149   0.750   6.755  0.00  0.00    +0.000 NA
ATOM     12  C   UNL     1      46.527   1.217   7.866  0.00  0.00    +0.000 A 
ENDBRANCH   5   7
BRANCH   1  13
ATOM     13  C   UNL     1      45.492   5.687  11.972  0.00  0.00    +0.000 C 
ATOM     14  C   UNL     1      44.891   7.040  11.605  0.00  0.00    +0.000 C 
ATOM     15  C   UNL     1      44.440   6.343  12.847  0.00  0.00    +0.000 C 
BRANCH  13  16
ATOM     16  O   UNL     1      46.885   5.838  12.356  0.00  0.00    +0.000 OA
BRANCH  16  21
ATOM     17  F   UNL     1      47.889   3.269  16.981  0.00  0.00    +0.000 F 
ATOM     18  C   UNL     1      47.731   3.877  15.798  0.00  0.00    +0.000 A 
ATOM     19  C   UNL     1      47.966   5.241  15.699  0.00  0.00    +0.000 A 
ATOM     20  N   UNL     1      47.754   5.944  14.558  0.00  0.00    +0.000 NA
ATOM     21  C   UNL     1      47.270   5.217  13.525  0.00  0.00    +0.000 A 
ATOM     22  C   UNL     1      47.094   3.840  13.608  0.00  0.00    +0.000 A 
ATOM     23  N   UNL     1      47.314   3.138  14.748  0.00  0.00    +0.000 NA
ENDBRANCH  16  21
ENDBRANCH  13  16
ENDBRANCH   1  13
TORSDOF 4
ENDMDL
MODEL 4
REMARK VINA RESULT:    -6.553      3.958      6.788
REMARK INTER + INTRA:          -8.606
REMARK INTER:                  -8.137
REMARK INTRA:                  -0.469
REMARK UNBOUND:                -0.520
REMARK  Name = 
REMARK  4 active torsions:
REMARK  status: ('A' for Active; 'I' for Inactive)
REMARK    1  A    between atoms: C_5  and  O_6
REMARK    2  A    between atoms: O_6  and  C_7
REMARK    3  A    between atoms: C_7  and  C_8
REMARK    4  A    between atoms: C_12  and  C_13
REMARK                            x       y       z     vdW  Elec       q    Type
REMARK                         _______ _______ _______ _____ _____    ______ ____
ROOT
ATOM      1  C   UNL     1      45.078   6.450  11.552  0.00  0.00    +0.000 A 
ATOM      2  C   UNL     1      43.716   6.234  11.794  0.00  0.00    +0.000 A 
ATOM      3  C   UNL     1      43.051   5.207  11.152  0.00  0.00    +0.000 A 
ATOM      4  N   UNL     1      43.638   4.384  10.265  0.00  0.00    +0.000 NA
ATOM      5  C   UNL     1      44.955   4.567  10.010  0.00  0.00    +0.000 A 
ATOM      6  C   UNL     1      45.692   5.577  10.641  0.00  0.00    +0.000 A 
ENDROOT
BRANCH   5   7
ATOM      7  C   UNL     1      45.534   3.644   9.018  0.00  0.00    +0.000 A 
ATOM      8  C   UNL     1      46.177   4.110   7.861  0.00  0.00    +0.000 A 
ATOM      9  C   UNL     1      46.722   3.216   6.938  0.00  0.00    +0.000 A 
ATOM     10  C   UNL     1      46.599   1.862   7.192  0.00  0.00    +0.000 A 
ATOM     11  N   UNL     1      45.988   1.358   8.284  0.00  0.00    +0.000 NA
ATOM     12  C   UNL     1      45.473   2.258   9.158  0.00  0.00    +0.000 A 
ENDBRANCH   5   7
BRANCH   1  13
ATOM     13  C   UNL     1      45.833   7.599  12.220  0.00  0.00    +0.000 C 
ATOM     14  C   UNL     1      46.898   7.276  13.262  0.00  0.00    +0.000 C 
ATOM     15  C   UNL     1      47.309   7.762  11.912  0.00  0.00    +0.000 C 
BRANCH  13  16
ATOM     16  O   UNL     1      45.085   8.783  12.609  0.00  0.00    +0.000 OA
BRANCH  16  21
ATOM     17  F   UNL     1      44.296  12.877   9.201  0.00  0.00    +0.000 F 
ATOM     18  C   UNL     1      44.568  11.829   9.989  0.00  0.00    +0.000 A 
ATOM     19  C   UNL     1      43.802  10.678   9.876  0.00  0.00    +0.000 A 
ATOM     20  N   UNL     1      43.964   9.603  10.688  0.00  0.00    +0.000 NA
ATOM     21  C   UNL     1      44.917   9.748  11.638  0.00  0.00    +0.000 A 
ATOM     22  C   UNL     1      45.725  10.877  11.708  0.00  0.00    +0.000 A 
ATOM     23  N   UNL     1      45.566  11.947  10.890  0.00  0.00    +0.000 NA
ENDBRANCH  16  21
ENDBRANCH  13  16
ENDBRANCH   1  13
TORSDOF 4
ENDMDL
MODEL 5
REMARK VINA RESULT:    -6.415      1.615      2.243
REMARK INTER + INTRA:          -8.435
REMARK INTER:                  -8.350
REMARK INTRA:                  -0.085
REMARK UNBOUND:                -0.520
REMARK  Name = 
REMARK  4 active torsions:
REMARK  status: ('A' for Active; 'I' for Inactive)
REMARK    1  A    between atoms: C_5  and  O_6
REMARK    2  A    between atoms: O_6  and  C_7
REMARK    3  A    between atoms: C_7  and  C_8
REMARK    4  A    between atoms: C_12  and  C_13
REMARK                            x       y       z     vdW  Elec       q    Type
REMARK                         _______ _______ _______ _____ _____    ______ ____
ROOT
ATOM      1  C   UNL     1      44.995   6.387  12.223  0.00  0.00    +0.000 A 
ATOM      2  C   UNL     1      44.646   7.662  11.762  0.00  0.00    +0.000 A 
ATOM      3  C   UNL     1      45.483   8.737  11.997  0.00  0.00    +0.000 A 
ATOM      4  N   UNL     1      46.639   8.642  12.679  0.00  0.00    +0.000 NA
ATOM      5  C   UNL     1      47.003   7.421  13.136  0.00  0.00    +0.000 A 
ATOM      6  C   UNL     1      46.211   6.287  12.915  0.00  0.00    +0.000 A 
ENDROOT
BRANCH   5   7
ATOM      7  C   UNL     1      48.270   7.387  13.888  0.00  0.00    +0.000 A 
ATOM      8  C   UNL     1      49.352   8.216  13.551  0.00  0.00    +0.000 A 
ATOM      9  C   UNL     1      50.541   8.169  14.281  0.00  0.00    +0.000 A 
ATOM     10  C   UNL     1      50.624   7.276  15.334  0.00  0.00    +0.000 A 
ATOM     11  N   UNL     1      49.619   6.454  15.699  0.00  0.00    +0.000 NA
ATOM     12  C   UNL     1      48.479   6.529  14.967  0.00  0.00    +0.000 A 
ENDBRANCH   5   7
BRANCH   1  13
ATOM     13  C   UNL     1      44.074   5.185  12.009  0.00  0.00    +0.000 C 
ATOM     14  C   UNL     1      42.862   5.012  12.918  0.00  0.00    +0.000 C 
ATOM     15  C   UNL     1      42.669   5.439  11.501  0.00  0.00    +0.000 C 
BRANCH  13  16
ATOM     16  O   UNL     1      44.679   3.895  11.720  0.00  0.00    +0.000 OA
BRANCH  16  21
ATOM     17  F   UNL     1      45.641   3.309   6.454  0.00  0.00    +0.000 F 
ATOM     18  C   UNL     1      45.502   3.448   7.779  0.00  0.00    +0.000 A 
ATOM     19  C   UNL     1      45.140   2.348   8.542  0.00  0.00    +0.000 A 
ATOM     20  N   UNL     1      44.905   2.423   9.876  0.00  0.00    +0.000 NA
ATOM     21  C   UNL     1      45.025   3.662  10.405  0.00  0.00    +0.000 A 
ATOM     22  C   UNL     1      45.448   4.751   9.650  0.00  0.00    +0.000 A 
ATOM     23  N   UNL     1      45.691   4.671   8.317  0.00  0.00    +0.000 NA
ENDBRANCH  16  21
ENDBRANCH  13  16
ENDBRANCH   1  13
TORSDOF 4
ENDMDL
MODEL 6
REMARK VINA RESULT:    -6.351      3.619      7.130
REMARK INTER + INTRA:          -8.356
REMARK INTER:                  -7.925
REMARK INTRA:                  -0.430
REMARK UNBOUND:                -0.520
REMARK  Name = 
REMARK  4 active torsions:
REMARK  status: ('A' for Active; 'I' for Inactive)
REMARK    1  A    between atoms: C_5  and  O_6
REMARK    2  A    between atoms: O_6  and  C_7
REMARK    3  A    between atoms: C_7  and  C_8
REMARK    4  A    between atoms: C_12  and  C_13
REMARK                            x       y       z     vdW  Elec       q    Type
REMARK                         _______ _______ _______ _____ _____    ______ ____
ROOT
ATOM      1  C   UNL     1      46.920   7.432  12.627  0.00  0.00    +0.000 A 
ATOM      2  C   UNL     1      45.891   8.380  12.679  0.00  0.00    +0.000 A 
ATOM      3  C   UNL     1      44.699   8.147  12.018  0.00  0.00    +0.000 A 
ATOM      4  N   UNL     1      44.460   7.044  11.287  0.00  0.00    +0.000 NA
ATOM      5  C   UNL     1      45.436   6.108  11.219  0.00  0.00    +0.000 A 
ATOM      6  C   UNL     1      46.659   6.273  11.881  0.00  0.00    +0.000 A 
ENDROOT
BRANCH   5   7
ATOM      7  C   UNL     1      45.117   4.932  10.391  0.00  0.00    +0.000 A 
ATOM      8  C   UNL     1      45.542   4.829   9.057  0.00  0.00    +0.000 A 
ATOM      9  C   UNL     1      45.231   3.702   8.294  0.00  0.00    +0.000 A 
ATOM     10  C   UNL     1      44.485   2.700   8.887  0.00  0.00    +0.000 A 
ATOM     11  N   UNL     1      44.047   2.747  10.161  0.00  0.00    +0.000 NA
ATOM     12  C   UNL     1      44.370   3.857  10.871  0.00  0.00    +0.000 A 
ENDBRANCH   5   7
BRANCH   1  13
ATOM     13  C   UNL     1      48.262   7.675  13.318  0.00  0.00    +0.000 C 
ATOM     14  C   UNL     1      49.237   8.674  12.706  0.00  0.00    +0.000 C 
ATOM     15  C   UNL     1      48.504   9.028  13.957  0.00  0.00    +0.000 C 
BRANCH  13  16
ATOM     16  O   UNL     1      48.978   6.531  13.856  0.00  0.00    +0.000 OA
BRANCH  16  21
ATOM     17  F   UNL     1      47.505   4.289  18.526  0.00  0.00    +0.000 F 
ATOM     18  C   UNL     1      47.795   4.913  17.376  0.00  0.00    +0.000 A 
ATOM     19  C   UNL     1      47.357   4.368  16.179  0.00  0.00    +0.000 A 
ATOM     20  N   UNL     1      47.673   4.895  14.970  0.00  0.00    +0.000 NA
ATOM     21  C   UNL     1      48.475   5.984  15.018  0.00  0.00    +0.000 A 
ATOM     22  C   UNL     1      48.862   6.565  16.221  0.00  0.00    +0.000 A 
ATOM     23  N   UNL     1      48.537   6.040  17.429  0.00  0.00    +0.000 NA
ENDBRANCH  16  21
ENDBRANCH  13  16
ENDBRANCH   1  13
TORSDOF 4
ENDMDL
MODEL 7
REMARK VINA RESULT:    -5.919      4.240      7.833
REMARK INTER + INTRA:          -7.823
REMARK INTER:                  -7.411
REMARK INTRA:                  -0.411
REMARK UNBOUND:                -0.520
REMARK  Name = 
REMARK  4 active torsions:
REMARK  status: ('A' for Active; 'I' for Inactive)
REMARK    1  A    between atoms: C_5  and  O_6
REMARK    2  A    between atoms: O_6  and  C_7
REMARK    3  A    between atoms: C_7  and  C_8
REMARK    4  A    between atoms: C_12  and  C_13
REMARK                            x       y       z     vdW  Elec       q    Type
REMARK                         _______ _______ _______ _____ _____    ______ ____
ROOT
ATOM      1  C   UNL     1      47.801   7.469  13.859  0.00  0.00    +0.000 A 
ATOM      2  C   UNL     1      47.198   8.711  13.624  0.00  0.00    +0.000 A 
ATOM      3  C   UNL     1      45.962   8.777  13.009  0.00  0.00    +0.000 A 
ATOM      4  N   UNL     1      45.284   7.694  12.589  0.00  0.00    +0.000 NA
ATOM      5  C   UNL     1      45.841   6.478  12.804  0.00  0.00    +0.000 A 
ATOM      6  C   UNL     1      47.082   6.340  13.438  0.00  0.00    +0.000 A 
ENDROOT
BRANCH   5   7
ATOM      7  C   UNL     1      45.056   5.334  12.307  0.00  0.00    +0.000 A 
ATOM      8  C   UNL     1      44.320   5.404  11.114  0.00  0.00    +0.000 A 
ATOM      9  C   UNL     1      43.588   4.306  10.661  0.00  0.00    +0.000 A 
ATOM     10  C   UNL     1      43.600   3.155  11.428  0.00  0.00    +0.000 A 
ATOM     11  N   UNL     1      44.285   3.033  12.583  0.00  0.00    +0.000 NA
ATOM     12  C   UNL     1      44.985   4.121  12.989  0.00  0.00    +0.000 A 
ENDBRANCH   5   7
BRANCH   1  13
ATOM     13  C   UNL     1      49.183   7.365  14.505  0.00  0.00    +0.000 C 
ATOM     14  C   UNL     1      50.405   7.806  13.708  0.00  0.00    +0.000 C 
ATOM     15  C   UNL     1      49.917   8.649  14.839  0.00  0.00    +0.000 C 
BRANCH  13  16
ATOM     16  O   UNL     1      49.489   6.182  15.291  0.00  0.00    +0.000 OA
BRANCH  16  21
ATOM     17  F   UNL     1      46.644   5.821  19.849  0.00  0.00    +0.000 F 
ATOM     18  C   UNL     1      47.422   5.852  18.759  0.00  0.00    +0.000 A 
ATOM     19  C   UNL     1      48.240   6.949  18.540  0.00  0.00    +0.000 A 
ATOM     20  N   UNL     1      48.999   7.092  17.424  0.00  0.00    +0.000 NA
ATOM     21  C   UNL     1      48.877   6.089  16.523  0.00  0.00    +0.000 A 
ATOM     22  C   UNL     1      48.103   4.961  16.773  0.00  0.00    +0.000 A 
ATOM     23  N   UNL     1      47.352   4.818  17.894  0.00  0.00    +0.000 NA
ENDBRANCH  16  21
ENDBRANCH  13  16
ENDBRANCH   1  13
TORSDOF 4
ENDMDL
MODEL 8
REMARK VINA RESULT:    -5.585      5.586      7.597
REMARK INTER + INTRA:          -7.411
REMARK INTER:                  -7.118
REMARK INTRA:                  -0.293
REMARK UNBOUND:                -0.520
REMARK  Name = 
REMARK  4 active torsions:
REMARK  status: ('A' for Active; 'I' for Inactive)
REMARK    1  A    between atoms: C_5  and  O_6
REMARK    2  A    between atoms: O_6  and  C_7
REMARK    3  A    between atoms: C_7  and  C_8
REMARK    4  A    between atoms: C_12  and  C_13
REMARK                            x       y       z     vdW  Elec       q    Type
REMARK                         _______ _______ _______ _____ _____    ______ ____
ROOT
ATOM      1  C   UNL     1      44.747   9.339  11.609  0.00  0.00    +0.000 A 
ATOM      2  C   UNL     1      45.872   9.483  12.431  0.00  0.00    +0.000 A 
ATOM      3  C   UNL     1      46.463   8.370  12.999  0.00  0.00    +0.000 A 
ATOM      4  N   UNL     1      46.005   7.117  12.826  0.00  0.00    +0.000 NA
ATOM      5  C   UNL     1      44.920   6.946  12.035  0.00  0.00    +0.000 A 
ATOM      6  C   UNL     1      44.285   8.029  11.414  0.00  0.00    +0.000 A 
ENDROOT
BRANCH   5   7
ATOM      7  C   UNL     1      44.459   5.552  11.898  0.00  0.00    +0.000 A 
ATOM      8  C   UNL     1      44.449   4.895  10.658  0.00  0.00    +0.000 A 
ATOM      9  C   UNL     1      44.012   3.574  10.555  0.00  0.00    +0.000 A 
ATOM     10  C   UNL     1      43.582   2.938  11.706  0.00  0.00    +0.000 A 
ATOM     11  N   UNL     1      43.566   3.522  12.921  0.00  0.00    +0.000 NA
ATOM     12  C   UNL     1      43.999   4.806  12.982  0.00  0.00    +0.000 A 
ENDBRANCH   5   7
BRANCH   1  13
ATOM     13  C   UNL     1      44.050  10.553  10.995  0.00  0.00    +0.000 C 
ATOM     14  C   UNL     1      44.854  11.495  10.106  0.00  0.00    +0.000 C 
ATOM     15  C   UNL     1      43.848  10.579   9.492  0.00  0.00    +0.000 C 
BRANCH  13  16
ATOM     16  O   UNL     1      43.119  11.304  11.820  0.00  0.00    +0.000 OA
BRANCH  16  21
ATOM     17  F   UNL     1      37.854  11.510  10.706  0.00  0.00    +0.000 F 
ATOM     18  C   UNL     1      39.181  11.463  10.883  0.00  0.00    +0.000 A 
ATOM     19  C   UNL     1      39.793  10.239  11.109  0.00  0.00    +0.000 A 
ATOM     20  N   UNL     1      41.118  10.115  11.373  0.00  0.00    +0.000 NA
ATOM     21  C   UNL     1      41.797  11.284  11.426  0.00  0.00    +0.000 A 
ATOM     22  C   UNL     1      41.194  12.503  11.138  0.00  0.00    +0.000 A 
ATOM     23  N   UNL     1      39.871  12.623  10.866  0.00  0.00    +0.000 NA
ENDBRANCH  16  21
ENDBRANCH  13  16
ENDBRANCH   1  13
TORSDOF 4
ENDMDL
MODEL 9
REMARK VINA RESULT:    -5.568      4.246      7.717
REMARK INTER + INTRA:          -7.390
REMARK INTER:                  -7.143
REMARK INTRA:                  -0.247
REMARK UNBOUND:                -0.520
REMARK  Name = 
REMARK  4 active torsions:
REMARK  status: ('A' for Active; 'I' for Inactive)
REMARK    1  A    between atoms: C_5  and  O_6
REMARK    2  A    between atoms: O_6  and  C_7
REMARK    3  A    between atoms: C_7  and  C_8
REMARK    4  A    between atoms: C_12  and  C_13
REMARK                            x       y       z     vdW  Elec       q    Type
REMARK                         _______ _______ _______ _____ _____    ______ ____
ROOT
ATOM      1  C   UNL     1      48.547   7.161  13.958  0.00  0.00    +0.000 A 
ATOM      2  C   UNL     1      49.085   7.721  12.792  0.00  0.00    +0.000 A 
ATOM      3  C   UNL     1      48.458   7.527  11.576  0.00  0.00    +0.000 A 
ATOM      4  N   UNL     1      47.338   6.798  11.427  0.00  0.00    +0.000 NA
ATOM      5  C   UNL     1      46.793   6.245  12.537  0.00  0.00    +0.000 A 
ATOM      6  C   UNL     1      47.367   6.419  13.802  0.00  0.00    +0.000 A 
ENDROOT
BRANCH   5   7
ATOM      7  C   UNL     1      45.576   5.446  12.304  0.00  0.00    +0.000 A 
ATOM      8  C   UNL     1      44.826   5.567  11.125  0.00  0.00    +0.000 A 
ATOM      9  C   UNL     1      43.680   4.796  10.925  0.00  0.00    +0.000 A 
ATOM     10  C   UNL     1      43.302   3.921  11.927  0.00  0.00    +0.000 A 
ATOM     11  N   UNL     1      43.982   3.766  13.081  0.00  0.00    +0.000 NA
ATOM     12  C   UNL     1      45.090   4.532  13.238  0.00  0.00    +0.000 A 
ENDBRANCH   5   7
BRANCH   1  13
ATOM     13  C   UNL     1      49.236   7.328  15.312  0.00  0.00    +0.000 C 
ATOM     14  C   UNL     1      49.862   8.673  15.661  0.00  0.00    +0.000 C 
ATOM     15  C   UNL     1      48.598   8.250  16.333  0.00  0.00    +0.000 C 
BRANCH  13  16
ATOM     16  O   UNL     1      50.065   6.240  15.803  0.00  0.00    +0.000 OA
BRANCH  16  21
ATOM     17  F   UNL     1      48.289   2.770  19.520  0.00  0.00    +0.000 F 
ATOM     18  C   UNL     1      48.666   3.701  18.633  0.00  0.00    +0.000 A 
ATOM     19  C   UNL     1      48.143   3.667  17.349  0.00  0.00    +0.000 A 
ATOM     20  N   UNL     1      48.530   4.525  16.373  0.00  0.00    +0.000 NA
ATOM     21  C   UNL     1      49.489   5.406  16.740  0.00  0.00    +0.000 A 
ATOM     22  C   UNL     1      49.967   5.479  18.044  0.00  0.00    +0.000 A 
ATOM     23  N   UNL     1      49.571   4.624  19.020  0.00  0.00    +0.000 NA
ENDBRANCH  16  21
ENDBRANCH  13  16
ENDBRANCH   1  13
TORSDOF 4
ENDMDL
