MODEL 1
REMARK VINA RESULT:    -8.479      0.000      0.000
REMARK INTER + INTRA:         -13.413
REMARK INTER:                 -12.444
REMARK INTRA:                  -0.969
REMARK UNBOUND:                -0.969
REMARK  Name = 
REMARK  9 active torsions:
REMARK  status: ('A' for Active; 'I' for Inactive)
REMARK    1  A    between atoms: C_1  and  C_2
REMARK    2  A    between atoms: C_2  and  N_3
REMARK    3  A    between atoms: C_2  and  C_20
REMARK    4  A    between atoms: N_3  and  C_4
REMARK    5  A    between atoms: C_4  and  C_5
REMARK    6  A    between atoms: C_9  and  C_10
REMARK    7  A    between atoms: C_10  and  N_11
REMARK    8  A    between atoms: N_11  and  C_12
REMARK    9  A    between atoms: C_12  and  C_13
REMARK                            x       y       z     vdW  Elec       q    Type
REMARK                         _______ _______ _______ _____ _____    ______ ____
ROOT
ATOM      1  C   UNL     1      47.106   4.249  15.376  0.00  0.00    +0.000 C 
ENDROOT
BRANCH   1   2
ATOM      2  C   UNL     1      46.794   4.910  14.047  0.00  0.00    +0.000 A 
ATOM      3  C   UNL     1      47.456   6.072  13.661  0.00  0.00    +0.000 A 
ATOM      4  C   UNL     1      47.163   6.634  12.425  0.00  0.00    +0.000 A 
ATOM      5  C   UNL     1      46.230   6.018  11.600  0.00  0.00    +0.000 A 
ATOM      6  C   UNL     1      45.617   4.846  12.036  0.00  0.00    +0.000 A 
ATOM      7  N   UNL     1      45.893   4.290  13.243  0.00  0.00    +0.000 NA
BRANCH   6   8
ATOM      8  C   UNL     1      44.590   4.147  11.168  0.00  0.00    +0.000 C 
BRANCH   8   9
ATOM      9  N   UNL     1      44.901   2.743  10.865  0.00  0.00    +0.000 NA
ATOM     10  H   UNL     1      44.417   2.179  11.571  0.00  0.00    +0.000 HD
BRANCH   9  11
ATOM     11  C   UNL     1      44.368   2.329   9.557  0.00  0.00    +0.000 C 
BRANCH  11  12
ATOM     12  C   UNL     1      45.439   2.337   8.481  0.00  0.00    +0.000 A 
ATOM     13  C   UNL     1      45.654   3.477   7.709  0.00  0.00    +0.000 A 
ATOM     14  C   UNL     1      46.673   3.466   6.760  0.00  0.00    +0.000 A 
ATOM     15  C   UNL     1      47.442   2.320   6.600  0.00  0.00    +0.000 A 
ATOM     16  C   UNL     1      47.154   1.225   7.396  0.00  0.00    +0.000 A 
ATOM     17  N   UNL     1      46.175   1.207   8.326  0.00  0.00    +0.000 NA
ENDBRANCH  11  12
ENDBRANCH   9  11
ENDBRANCH   8   9
ENDBRANCH   6   8
ENDBRANCH   1   2
BRANCH   1  18
ATOM     18  N   UNL     1      48.370   4.701  15.981  0.00  0.00    +0.000 NA
ATOM     19  H   UNL     1      49.139   4.178  15.574  0.00  0.00    +0.000 HD
BRANCH  18  21
ATOM     20  C   UNL     1      47.769   5.666  18.209  0.00  0.00    +0.000 C 
ATOM     21  C   UNL     1      48.395   4.498  17.436  0.00  0.00    +0.000 C 
BRANCH  21  22
ATOM     22  C   UNL     1      49.849   4.317  17.830  0.00  0.00    +0.000 A 
ATOM     23  C   UNL     1      50.595   5.273  18.505  0.00  0.00    +0.000 A 
ATOM     24  S   UNL     1      52.180   4.764  18.877  0.00  0.00    +0.000 S 
ATOM     25  C   UNL     1      51.935   3.258  18.121  0.00  0.00    +0.000 A 
ATOM     26  N   UNL     1      52.923   2.324  18.085  0.00  0.00    +0.000 NA
ATOM     27  C   UNL     1      52.598   1.232  17.475  0.00  0.00    +0.000 A 
ATOM     28  N   UNL     1      51.377   0.990  16.898  0.00  0.00    +0.000 N 
ATOM     29  C   UNL     1      50.351   1.905  16.901  0.00  0.00    +0.000 A 
ATOM     30  O   UNL     1      49.280   1.667  16.353  0.00  0.00    +0.000 OA
ATOM     31  C   UNL     1      50.663   3.145  17.589  0.00  0.00    +0.000 A 
ATOM     32  H   UNL     1      51.193   0.116  16.424  0.00  0.00    +0.000 HD
ENDBRANCH  21  22
ENDBRANCH  18  21
ENDBRANCH   1  18
TORSDOF 8
ENDMDL
MODEL 2
REMARK VINA RESULT:    -7.950      2.105      2.768
REMARK INTER + INTRA:         -12.636
REMARK INTER:                 -11.361
REMARK INTRA:                  -1.275
REMARK UNBOUND:                -0.969
REMARK  Name = 
REMARK  9 active torsions:
REMARK  status: ('A' for Active; 'I' for Inactive)
REMARK    1  A    between atoms: C_1  and  C_2
REMARK    2  A    between atoms: C_2  and  N_3
REMARK    3  A    between atoms: C_2  and  C_20
REMARK    4  A    between atoms: N_3  and  C_4
REMARK    5  A    between atoms: C_4  and  C_5
REMARK    6  A    between atoms: C_9  and  C_10
REMARK    7  A    between atoms: C_10  and  N_11
REMARK    8  A    between atoms: N_11  and  C_12
REMARK    9  A    between atoms: C_12  and  C_13
REMARK                            x       y       z     vdW  Elec       q    Type
REMARK                         _______ _______ _______ _____ _____    ______ ____
ROOT
ATOM      1  C   UNL     1      48.168   6.792  12.472  0.00  0.00    +0.000 C 
ENDROOT
BRANCH   1   2
ATOM      2  C   UNL     1      46.695   6.617  12.156  0.00  0.00    +0.000 A 
ATOM      3  C   UNL     1      45.937   7.688  11.692  0.00  0.00    +0.000 A 
ATOM      4  C   UNL     1      44.598   7.483  11.388  0.00  0.00    +0.000 A 
ATOM      5  C   UNL     1      44.050   6.216  11.540  0.00  0.00    +0.000 A 
ATOM      6  C   UNL     1      44.866   5.181  11.990  0.00  0.00    +0.000 A 
ATOM      7  N   UNL     1      46.176   5.370  12.294  0.00  0.00    +0.000 NA
BRANCH   6   8
ATOM      8  C   UNL     1      44.305   3.785  12.176  0.00  0.00    +0.000 C 
BRANCH   8   9
ATOM      9  N   UNL     1      44.924   2.760  11.322  0.00  0.00    +0.000 NA
ATOM     10  H   UNL     1      44.765   1.860  11.786  0.00  0.00    +0.000 HD
BRANCH   9  11
ATOM     11  C   UNL     1      44.276   2.676  10.004  0.00  0.00    +0.000 C 
BRANCH  11  12
ATOM     12  C   UNL     1      45.290   2.634   8.875  0.00  0.00    +0.000 A 
ATOM     13  C   UNL     1      45.588   3.788   8.152  0.00  0.00    +0.000 A 
ATOM     14  C   UNL     1      46.554   3.725   7.152  0.00  0.00    +0.000 A 
ATOM     15  C   UNL     1      47.189   2.517   6.893  0.00  0.00    +0.000 A 
ATOM     16  C   UNL     1      46.825   1.414   7.646  0.00  0.00    +0.000 A 
ATOM     17  N   UNL     1      45.895   1.445   8.624  0.00  0.00    +0.000 NA
ENDBRANCH  11  12
ENDBRANCH   9  11
ENDBRANCH   8   9
ENDBRANCH   6   8
ENDBRANCH   1   2
BRANCH   1  18
ATOM     18  N   UNL     1      48.588   6.140  13.723  0.00  0.00    +0.000 NA
ATOM     19  H   UNL     1      48.074   5.271  13.833  0.00  0.00    +0.000 HD
BRANCH  18  21
ATOM     20  C   UNL     1      48.935   8.383  14.775  0.00  0.00    +0.000 C 
ATOM     21  C   UNL     1      48.329   6.979  14.902  0.00  0.00    +0.000 C 
BRANCH  21  22
ATOM     22  C   UNL     1      48.915   6.251  16.097  0.00  0.00    +0.000 A 
ATOM     23  C   UNL     1      50.011   6.702  16.820  0.00  0.00    +0.000 A 
ATOM     24  S   UNL     1      50.400   5.714  18.155  0.00  0.00    +0.000 S 
ATOM     25  C   UNL     1      49.136   4.632  17.795  0.00  0.00    +0.000 A 
ATOM     26  N   UNL     1      48.911   3.538  18.572  0.00  0.00    +0.000 NA
ATOM     27  C   UNL     1      47.923   2.803  18.178  0.00  0.00    +0.000 A 
ATOM     28  N   UNL     1      47.143   3.063  17.080  0.00  0.00    +0.000 N 
ATOM     29  C   UNL     1      47.337   4.150  16.261  0.00  0.00    +0.000 A 
ATOM     30  O   UNL     1      46.637   4.338  15.272  0.00  0.00    +0.000 OA
ATOM     31  C   UNL     1      48.428   5.015  16.672  0.00  0.00    +0.000 A 
ATOM     32  H   UNL     1      46.392   2.438  16.819  0.00  0.00    +0.000 HD
ENDBRANCH  21  22
ENDBRANCH  18  21
ENDBRANCH   1  18
TORSDOF 8
ENDMDL
MODEL 3
REMARK VINA RESULT:    -7.880      3.985      6.502
REMARK INTER + INTRA:         -12.534
REMARK INTER:                 -11.856
REMARK INTRA:                  -0.678
REMARK UNBOUND:                -0.969
REMARK  Name = 
REMARK  9 active torsions:
REMARK  status: ('A' for Active; 'I' for Inactive)
REMARK    1  A    between atoms: C_1  and  C_2
REMARK    2  A    between atoms: C_2  and  N_3
REMARK    3  A    between atoms: C_2  and  C_20
REMARK    4  A    between atoms: N_3  and  C_4
REMARK    5  A    between atoms: C_4  and  C_5
REMARK    6  A    between atoms: C_9  and  C_10
REMARK    7  A    between atoms: C_10  and  N_11
REMARK    8  A    between atoms: N_11  and  C_12
REMARK    9  A    between atoms: C_12  and  C_13
REMARK                            x       y       z     vdW  Elec       q    Type
REMARK                         _______ _______ _______ _____ _____    ______ ____
ROOT
ATOM      1  C   UNL     1      44.459   2.580  10.490  0.00  0.00    +0.000 C 
ENDROOT
BRANCH   1   2
ATOM      2  C   UNL     1      45.269   2.920   9.253  0.00  0.00    +0.000 A 
ATOM      3  C   UNL     1      45.433   4.244   8.855  0.00  0.00    +0.000 A 
ATOM      4  C   UNL     1      46.203   4.519   7.733  0.00  0.00    +0.000 A 
ATOM      5  C   UNL     1      46.802   3.471   7.043  0.00  0.00    +0.000 A 
ATOM      6  C   UNL     1      46.615   2.170   7.504  0.00  0.00    +0.000 A 
ATOM      7  N   UNL     1      45.861   1.889   8.597  0.00  0.00    +0.000 NA
BRANCH   6   8
ATOM      8  C   UNL     1      47.245   1.000   6.775  0.00  0.00    +0.000 C 
BRANCH   8   9
ATOM      9  N   UNL     1      48.096   1.376   5.636  0.00  0.00    +0.000 NA
ATOM     10  H   UNL     1      48.583   0.524   5.343  0.00  0.00    +0.000 HD
BRANCH   9  11
ATOM     11  C   UNL     1      47.303   1.827   4.482  0.00  0.00    +0.000 C 
BRANCH  11  12
ATOM     12  C   UNL     1      46.763   0.661   3.674  0.00  0.00    +0.000 A 
ATOM     13  C   UNL     1      45.662   0.831   2.837  0.00  0.00    +0.000 A 
ATOM     14  C   UNL     1      45.219  -0.248   2.077  0.00  0.00    +0.000 A 
ATOM     15  C   UNL     1      45.877  -1.467   2.178  0.00  0.00    +0.000 A 
ATOM     16  C   UNL     1      46.953  -1.558   3.044  0.00  0.00    +0.000 A 
ATOM     17  N   UNL     1      47.407  -0.529   3.790  0.00  0.00    +0.000 NA
ENDBRANCH  11  12
ENDBRANCH   9  11
ENDBRANCH   8   9
ENDBRANCH   6   8
ENDBRANCH   1   2
BRANCH   1  18
ATOM     18  N   UNL     1      45.031   3.111  11.737  0.00  0.00    +0.000 NA
ATOM     19  H   UNL     1      45.157   2.348  12.396  0.00  0.00    +0.000 HD
BRANCH  18  21
ATOM     20  C   UNL     1      42.824   4.285  11.632  0.00  0.00    +0.000 C 
ATOM     21  C   UNL     1      44.164   4.120  12.362  0.00  0.00    +0.000 C 
BRANCH  21  22
ATOM     22  C   UNL     1      44.937   5.425  12.361  0.00  0.00    +0.000 A 
ATOM     23  C   UNL     1      44.631   6.507  11.546  0.00  0.00    +0.000 A 
ATOM     24  S   UNL     1      45.628   7.865  11.814  0.00  0.00    +0.000 S 
ATOM     25  C   UNL     1      46.523   7.044  13.008  0.00  0.00    +0.000 A 
ATOM     26  N   UNL     1      47.549   7.657  13.656  0.00  0.00    +0.000 NA
ATOM     27  C   UNL     1      48.142   6.913  14.532  0.00  0.00    +0.000 A 
ATOM     28  N   UNL     1      47.801   5.615  14.816  0.00  0.00    +0.000 N 
ATOM     29  C   UNL     1      46.778   4.951  14.182  0.00  0.00    +0.000 A 
ATOM     30  O   UNL     1      46.516   3.782  14.442  0.00  0.00    +0.000 OA
ATOM     31  C   UNL     1      46.071   5.752  13.198  0.00  0.00    +0.000 A 
ATOM     32  H   UNL     1      48.316   5.084  15.506  0.00  0.00    +0.000 HD
ENDBRANCH  21  22
ENDBRANCH  18  21
ENDBRANCH   1  18
TORSDOF 8
ENDMDL
MODEL 4
REMARK VINA RESULT:    -7.610      1.680      2.166
REMARK INTER + INTRA:         -12.138
REMARK INTER:                 -11.261
REMARK INTRA:                  -0.877
REMARK UNBOUND:                -0.969
REMARK  Name = 
REMARK  9 active torsions:
REMARK  status: ('A' for Active; 'I' for Inactive)
REMARK    1  A    between atoms: C_1  and  C_2
REMARK    2  A    between atoms: C_2  and  N_3
REMARK    3  A    between atoms: C_2  and  C_20
REMARK    4  A    between atoms: N_3  and  C_4
REMARK    5  A    between atoms: C_4  and  C_5
REMARK    6  A    between atoms: C_9  and  C_10
REMARK    7  A    between atoms: C_10  and  N_11
REMARK    8  A    between atoms: N_11  and  C_12
REMARK    9  A    between atoms: C_12  and  C_13
REMARK                            x       y       z     vdW  Elec       q    Type
REMARK                         _______ _______ _______ _____ _____    ______ ____
ROOT
ATOM      1  C   UNL     1      46.945   4.265  14.670  0.00  0.00    +0.000 C 
ENDROOT
BRANCH   1   2
ATOM      2  C   UNL     1      46.606   5.168  13.499  0.00  0.00    +0.000 A 
ATOM      3  C   UNL     1      47.558   6.037  12.975  0.00  0.00    +0.000 A 
ATOM      4  C   UNL     1      47.220   6.829  11.886  0.00  0.00    +0.000 A 
ATOM      5  C   UNL     1      45.947   6.727  11.337  0.00  0.00    +0.000 A 
ATOM      6  C   UNL     1      45.046   5.824  11.895  0.00  0.00    +0.000 A 
ATOM      7  N   UNL     1      45.364   5.047  12.962  0.00  0.00    +0.000 NA
BRANCH   6   8
ATOM      8  C   UNL     1      43.646   5.686  11.330  0.00  0.00    +0.000 C 
BRANCH   8   9
ATOM      9  N   UNL     1      43.580   5.021  10.020  0.00  0.00    +0.000 NA
ATOM     10  H   UNL     1      44.293   5.463   9.433  0.00  0.00    +0.000 HD
BRANCH   9  11
ATOM     11  C   UNL     1      43.929   3.594  10.108  0.00  0.00    +0.000 C 
BRANCH  11  12
ATOM     12  C   UNL     1      44.967   3.200   9.073  0.00  0.00    +0.000 A 
ATOM     13  C   UNL     1      45.560   4.168   8.264  0.00  0.00    +0.000 A 
ATOM     14  C   UNL     1      46.539   3.779   7.355  0.00  0.00    +0.000 A 
ATOM     15  C   UNL     1      46.894   2.438   7.268  0.00  0.00    +0.000 A 
ATOM     16  C   UNL     1      46.247   1.538   8.095  0.00  0.00    +0.000 A 
ATOM     17  N   UNL     1      45.296   1.885   8.989  0.00  0.00    +0.000 NA
ENDBRANCH  11  12
ENDBRANCH   9  11
ENDBRANCH   8   9
ENDBRANCH   6   8
ENDBRANCH   1   2
BRANCH   1  18
ATOM     18  N   UNL     1      47.414   4.991  15.861  0.00  0.00    +0.000 NA
ATOM     19  H   UNL     1      48.020   5.752  15.570  0.00  0.00    +0.000 HD
BRANCH  18  21
ATOM     20  C   UNL     1      47.292   3.062  17.450  0.00  0.00    +0.000 C 
ATOM     21  C   UNL     1      48.170   4.126  16.778  0.00  0.00    +0.000 C 
BRANCH  21  22
ATOM     22  C   UNL     1      48.801   5.033  17.818  0.00  0.00    +0.000 A 
ATOM     23  C   UNL     1      48.216   6.203  18.285  0.00  0.00    +0.000 A 
ATOM     24  S   UNL     1      49.122   6.978  19.505  0.00  0.00    +0.000 S 
ATOM     25  C   UNL     1      50.343   5.793  19.431  0.00  0.00    +0.000 A 
ATOM     26  N   UNL     1      51.434   5.862  20.239  0.00  0.00    +0.000 NA
ATOM     27  C   UNL     1      52.280   4.899  20.071  0.00  0.00    +0.000 A 
ATOM     28  N   UNL     1      52.134   3.876  19.168  0.00  0.00    +0.000 N 
ATOM     29  C   UNL     1      51.053   3.769  18.324  0.00  0.00    +0.000 A 
ATOM     30  O   UNL     1      50.966   2.855  17.511  0.00  0.00    +0.000 OA
ATOM     31  C   UNL     1      50.066   4.821  18.487  0.00  0.00    +0.000 A 
ATOM     32  H   UNL     1      52.842   3.160  19.078  0.00  0.00    +0.000 HD
ENDBRANCH  21  22
ENDBRANCH  18  21
ENDBRANCH   1  18
TORSDOF 8
ENDMDL
MODEL 5
REMARK VINA RESULT:    -7.560      2.714      3.358
REMARK INTER + INTRA:         -12.063
REMARK INTER:                 -11.144
REMARK INTRA:                  -0.919
REMARK UNBOUND:                -0.969
REMARK  Name = 
REMARK  9 active torsions:
REMARK  status: ('A' for Active; 'I' for Inactive)
REMARK    1  A    between atoms: C_1  and  C_2
REMARK    2  A    between atoms: C_2  and  N_3
REMARK    3  A    between atoms: C_2  and  C_20
REMARK    4  A    between atoms: N_3  and  C_4
REMARK    5  A    between atoms: C_4  and  C_5
REMARK    6  A    between atoms: C_9  and  C_10
REMARK    7  A    between atoms: C_10  and  N_11
REMARK    8  A    between atoms: N_11  and  C_12
REMARK    9  A    between atoms: C_12  and  C_13
REMARK                            x       y       z     vdW  Elec       q    Type
REMARK                         _______ _______ _______ _____ _____    ______ ____
ROOT
ATOM      1  C   UNL     1      47.073   4.061  14.718  0.00  0.00    +0.000 C 
ENDROOT
BRANCH   1   2
ATOM      2  C   UNL     1      46.171   4.609  13.628  0.00  0.00    +0.000 A 
ATOM      3  C   UNL     1      46.230   5.952  13.268  0.00  0.00    +0.000 A 
ATOM      4  C   UNL     1      45.408   6.411  12.247  0.00  0.00    +0.000 A 
ATOM      5  C   UNL     1      44.559   5.520  11.602  0.00  0.00    +0.000 A 
ATOM      6  C   UNL     1      44.562   4.185  11.996  0.00  0.00    +0.000 A 
ATOM      7  N   UNL     1      45.358   3.724  12.995  0.00  0.00    +0.000 NA
BRANCH   6   8
ATOM      8  C   UNL     1      43.647   3.182  11.321  0.00  0.00    +0.000 C 
BRANCH   8   9
ATOM      9  N   UNL     1      44.306   2.332  10.319  0.00  0.00    +0.000 NA
ATOM     10  H   UNL     1      43.691   1.526  10.171  0.00  0.00    +0.000 HD
BRANCH   9  11
ATOM     11  C   UNL     1      44.433   3.010   9.019  0.00  0.00    +0.000 C 
BRANCH  11  12
ATOM     12  C   UNL     1      45.603   2.475   8.212  0.00  0.00    +0.000 A 
ATOM     13  C   UNL     1      46.341   3.326   7.391  0.00  0.00    +0.000 A 
ATOM     14  C   UNL     1      47.434   2.813   6.699  0.00  0.00    +0.000 A 
ATOM     15  C   UNL     1      47.757   1.468   6.835  0.00  0.00    +0.000 A 
ATOM     16  C   UNL     1      46.964   0.688   7.658  0.00  0.00    +0.000 A 
ATOM     17  N   UNL     1      45.900   1.157   8.344  0.00  0.00    +0.000 NA
ENDBRANCH  11  12
ENDBRANCH   9  11
ENDBRANCH   8   9
ENDBRANCH   6   8
ENDBRANCH   1   2
BRANCH   1  18
ATOM     18  N   UNL     1      47.616   5.096  15.614  0.00  0.00    +0.000 NA
ATOM     19  H   UNL     1      48.376   5.577  15.143  0.00  0.00    +0.000 HD
BRANCH  18  21
ATOM     20  C   UNL     1      47.258   3.397  17.416  0.00  0.00    +0.000 C 
ATOM     21  C   UNL     1      48.136   4.531  16.867  0.00  0.00    +0.000 C 
BRANCH  21  22
ATOM     22  C   UNL     1      48.219   5.671  17.863  0.00  0.00    +0.000 A 
ATOM     23  C   UNL     1      47.364   5.819  18.947  0.00  0.00    +0.000 A 
ATOM     24  S   UNL     1      47.741   7.157  19.935  0.00  0.00    +0.000 S 
ATOM     25  C   UNL     1      49.041   7.604  18.932  0.00  0.00    +0.000 A 
ATOM     26  N   UNL     1      49.805   8.692  19.221  0.00  0.00    +0.000 NA
ATOM     27  C   UNL     1      50.752   8.915  18.370  0.00  0.00    +0.000 A 
ATOM     28  N   UNL     1      51.004   8.151  17.259  0.00  0.00    +0.000 N 
ATOM     29  C   UNL     1      50.254   7.049  16.921  0.00  0.00    +0.000 A 
ATOM     30  O   UNL     1      50.490   6.403  15.905  0.00  0.00    +0.000 OA
ATOM     31  C   UNL     1      49.185   6.748  17.856  0.00  0.00    +0.000 A 
ATOM     32  H   UNL     1      51.755   8.389  16.626  0.00  0.00    +0.000 HD
ENDBRANCH  21  22
ENDBRANCH  18  21
ENDBRANCH   1  18
TORSDOF 8
ENDMDL
MODEL 6
REMARK VINA RESULT:    -7.258      4.974      6.902
REMARK INTER + INTRA:         -11.622
REMARK INTER:                 -10.678
REMARK INTRA:                  -0.944
REMARK UNBOUND:                -0.969
REMARK  Name = 
REMARK  9 active torsions:
REMARK  status: ('A' for Active; 'I' for Inactive)
REMARK    1  A    between atoms: C_1  and  C_2
REMARK    2  A    between atoms: C_2  and  N_3
REMARK    3  A    between atoms: C_2  and  C_20
REMARK    4  A    between atoms: N_3  and  C_4
REMARK    5  A    between atoms: C_4  and  C_5
REMARK    6  A    between atoms: C_9  and  C_10
REMARK    7  A    between atoms: C_10  and  N_11
REMARK    8  A    between atoms: N_11  and  C_12
REMARK    9  A    between atoms: C_12  and  C_13
REMARK                            x       y       z     vdW  Elec       q    Type
REMARK                         _______ _______ _______ _____ _____    ______ ____
ROOT
ATOM      1  C   UNL     1      46.491   5.669  13.409  0.00  0.00    +0.000 C 
ENDROOT
BRANCH   1   2
ATOM      2  C   UNL     1      45.225   5.140  12.760  0.00  0.00    +0.000 A 
ATOM      3  C   UNL     1      43.976   5.608  13.158  0.00  0.00    +0.000 A 
ATOM      4  C   UNL     1      42.842   5.121  12.522  0.00  0.00    +0.000 A 
ATOM      5  C   UNL     1      42.979   4.192  11.498  0.00  0.00    +0.000 A 
ATOM      6  C   UNL     1      44.258   3.779  11.134  0.00  0.00    +0.000 A 
ATOM      7  N   UNL     1      45.375   4.245  11.750  0.00  0.00    +0.000 NA
BRANCH   6   8
ATOM      8  C   UNL     1      44.450   2.762  10.025  0.00  0.00    +0.000 C 
BRANCH   8   9
ATOM      9  N   UNL     1      44.324   3.309   8.667  0.00  0.00    +0.000 NA
ATOM     10  H   UNL     1      43.674   4.099   8.730  0.00  0.00    +0.000 HD
BRANCH   9  11
ATOM     11  C   UNL     1      45.599   3.851   8.170  0.00  0.00    +0.000 C 
BRANCH  11  12
ATOM     12  C   UNL     1      46.300   2.884   7.234  0.00  0.00    +0.000 A 
ATOM     13  C   UNL     1      46.614   3.265   5.931  0.00  0.00    +0.000 A 
ATOM     14  C   UNL     1      47.296   2.369   5.113  0.00  0.00    +0.000 A 
ATOM     15  C   UNL     1      47.638   1.117   5.609  0.00  0.00    +0.000 A 
ATOM     16  C   UNL     1      47.276   0.810   6.909  0.00  0.00    +0.000 A 
ATOM     17  N   UNL     1      46.618   1.659   7.728  0.00  0.00    +0.000 NA
ENDBRANCH  11  12
ENDBRANCH   9  11
ENDBRANCH   8   9
ENDBRANCH   6   8
ENDBRANCH   1   2
BRANCH   1  18
ATOM     18  N   UNL     1      46.639   7.130  13.315  0.00  0.00    +0.000 NA
ATOM     19  H   UNL     1      45.735   7.544  13.108  0.00  0.00    +0.000 HD
BRANCH  18  21
ATOM     20  C   UNL     1      48.951   6.856  12.397  0.00  0.00    +0.000 C 
ATOM     21  C   UNL     1      47.578   7.527  12.255  0.00  0.00    +0.000 C 
BRANCH  21  22
ATOM     22  C   UNL     1      47.711   9.036  12.329  0.00  0.00    +0.000 A 
ATOM     23  C   UNL     1      48.899   9.698  12.609  0.00  0.00    +0.000 A 
ATOM     24  S   UNL     1      48.763  11.397  12.555  0.00  0.00    +0.000 S 
ATOM     25  C   UNL     1      47.103  11.309  12.184  0.00  0.00    +0.000 A 
ATOM     26  N   UNL     1      46.367  12.438  12.000  0.00  0.00    +0.000 NA
ATOM     27  C   UNL     1      45.122  12.220  11.730  0.00  0.00    +0.000 A 
ATOM     28  N   UNL     1      44.548  10.978  11.629  0.00  0.00    +0.000 N 
ATOM     29  C   UNL     1      45.248   9.810  11.815  0.00  0.00    +0.000 A 
ATOM     30  O   UNL     1      44.698   8.716  11.743  0.00  0.00    +0.000 OA
ATOM     31  C   UNL     1      46.657  10.003  12.106  0.00  0.00    +0.000 A 
ATOM     32  H   UNL     1      43.562  10.879  11.427  0.00  0.00    +0.000 HD
ENDBRANCH  21  22
ENDBRANCH  18  21
ENDBRANCH   1  18
TORSDOF 8
ENDMDL
MODEL 7
REMARK VINA RESULT:    -7.222      2.545      3.669
REMARK INTER + INTRA:         -11.569
REMARK INTER:                 -10.478
REMARK INTRA:                  -1.090
REMARK UNBOUND:                -0.969
REMARK  Name = 
REMARK  9 active torsions:
REMARK  status: ('A' for Active; 'I' for Inactive)
REMARK    1  A    between atoms: C_1  and  C_2
REMARK    2  A    between atoms: C_2  and  N_3
REMARK    3  A    between atoms: C_2  and  C_20
REMARK    4  A    between atoms: N_3  and  C_4
REMARK    5  A    between atoms: C_4  and  C_5
REMARK    6  A    between atoms: C_9  and  C_10
REMARK    7  A    between atoms: C_10  and  N_11
REMARK    8  A    between atoms: N_11  and  C_12
REMARK    9  A    between atoms: C_12  and  C_13
REMARK                            x       y       z     vdW  Elec       q    Type
REMARK                         _______ _______ _______ _____ _____    ______ ____
ROOT
ATOM      1  C   UNL     1      47.149   4.223  15.172  0.00  0.00    +0.000 C 
ENDROOT
BRANCH   1   2
ATOM      2  C   UNL     1      46.797   5.062  13.958  0.00  0.00    +0.000 A 
ATOM      3  C   UNL     1      47.734   5.925  13.397  0.00  0.00    +0.000 A 
ATOM      4  C   UNL     1      47.385   6.656  12.270  0.00  0.00    +0.000 A 
ATOM      5  C   UNL     1      46.118   6.501  11.721  0.00  0.00    +0.000 A 
ATOM      6  C   UNL     1      45.233   5.606  12.318  0.00  0.00    +0.000 A 
ATOM      7  N   UNL     1      45.562   4.888  13.422  0.00  0.00    +0.000 NA
BRANCH   6   8
ATOM      8  C   UNL     1      43.839   5.412  11.753  0.00  0.00    +0.000 C 
BRANCH   8   9
ATOM      9  N   UNL     1      43.805   4.976  10.349  0.00  0.00    +0.000 NA
ATOM     10  H   UNL     1      44.601   5.425   9.886  0.00  0.00    +0.000 HD
BRANCH   9  11
ATOM     11  C   UNL     1      44.003   3.524  10.218  0.00  0.00    +0.000 C 
BRANCH  11  12
ATOM     12  C   UNL     1      45.014   3.185   9.137  0.00  0.00    +0.000 A 
ATOM     13  C   UNL     1      45.560   4.191   8.342  0.00  0.00    +0.000 A 
ATOM     14  C   UNL     1      46.516   3.852   7.388  0.00  0.00    +0.000 A 
ATOM     15  C   UNL     1      46.894   2.523   7.246  0.00  0.00    +0.000 A 
ATOM     16  C   UNL     1      46.292   1.583   8.064  0.00  0.00    +0.000 A 
ATOM     17  N   UNL     1      45.366   1.881   8.999  0.00  0.00    +0.000 NA
ENDBRANCH  11  12
ENDBRANCH   9  11
ENDBRANCH   8   9
ENDBRANCH   6   8
ENDBRANCH   1   2
BRANCH   1  18
ATOM     18  N   UNL     1      47.418   5.017  16.382  0.00  0.00    +0.000 NA
ATOM     19  H   UNL     1      47.489   5.998  16.128  0.00  0.00    +0.000 HD
BRANCH  18  21
ATOM     20  C   UNL     1      48.896   3.104  17.026  0.00  0.00    +0.000 C 
ATOM     21  C   UNL     1      48.673   4.622  17.039  0.00  0.00    +0.000 C 
BRANCH  21  22
ATOM     22  C   UNL     1      48.605   5.138  18.464  0.00  0.00    +0.000 A 
ATOM     23  C   UNL     1      48.543   4.321  19.584  0.00  0.00    +0.000 A 
ATOM     24  S   UNL     1      48.548   5.181  21.057  0.00  0.00    +0.000 S 
ATOM     25  C   UNL     1      48.602   6.678  20.248  0.00  0.00    +0.000 A 
ATOM     26  N   UNL     1      48.630   7.847  20.943  0.00  0.00    +0.000 NA
ATOM     27  C   UNL     1      48.665   8.904  20.200  0.00  0.00    +0.000 A 
ATOM     28  N   UNL     1      48.674   8.898  18.828  0.00  0.00    +0.000 N 
ATOM     29  C   UNL     1      48.638   7.743  18.083  0.00  0.00    +0.000 A 
ATOM     30  O   UNL     1      48.621   7.774  16.857  0.00  0.00    +0.000 OA
ATOM     31  C   UNL     1      48.613   6.526  18.874  0.00  0.00    +0.000 A 
ATOM     32  H   UNL     1      48.689   9.764  18.307  0.00  0.00    +0.000 HD
ENDBRANCH  21  22
ENDBRANCH  18  21
ENDBRANCH   1  18
TORSDOF 8
ENDMDL
MODEL 8
REMARK VINA RESULT:    -7.019      4.193      4.961
REMARK INTER + INTRA:         -11.270
REMARK INTER:                 -10.139
REMARK INTRA:                  -1.131
REMARK UNBOUND:                -0.969
REMARK  Name = 
REMARK  9 active torsions:
REMARK  status: ('A' for Active; 'I' for Inactive)
REMARK    1  A    between atoms: C_1  and  C_2
REMARK    2  A    between atoms: C_2  and  N_3
REMARK    3  A    between atoms: C_2  and  C_20
REMARK    4  A    between atoms: N_3  and  C_4
REMARK    5  A    between atoms: C_4  and  C_5
REMARK    6  A    between atoms: C_9  and  C_10
REMARK    7  A    between atoms: C_10  and  N_11
REMARK    8  A    between atoms: N_11  and  C_12
REMARK    9  A    between atoms: C_12  and  C_13
REMARK                            x       y       z     vdW  Elec       q    Type
REMARK                         _______ _______ _______ _____ _____    ______ ____
ROOT
ATOM      1  C   UNL     1      47.909   7.058  11.637  0.00  0.00    +0.000 C 
ENDROOT
BRANCH   1   2
ATOM      2  C   UNL     1      46.778   6.148  12.081  0.00  0.00    +0.000 A 
ATOM      3  C   UNL     1      46.835   5.495  13.308  0.00  0.00    +0.000 A 
ATOM      4  C   UNL     1      45.770   4.692  13.693  0.00  0.00    +0.000 A 
ATOM      5  C   UNL     1      44.670   4.570  12.854  0.00  0.00    +0.000 A 
ATOM      6  C   UNL     1      44.665   5.266  11.647  0.00  0.00    +0.000 A 
ATOM      7  N   UNL     1      45.702   6.051  11.258  0.00  0.00    +0.000 NA
BRANCH   6   8
ATOM      8  C   UNL     1      43.486   5.154  10.700  0.00  0.00    +0.000 C 
BRANCH   8   9
ATOM      9  N   UNL     1      43.815   4.594   9.381  0.00  0.00    +0.000 NA
ATOM     10  H   UNL     1      44.604   5.139   9.022  0.00  0.00    +0.000 HD
BRANCH   9  11
ATOM     11  C   UNL     1      44.272   3.199   9.472  0.00  0.00    +0.000 C 
BRANCH  11  12
ATOM     12  C   UNL     1      45.385   2.901   8.484  0.00  0.00    +0.000 A 
ATOM     13  C   UNL     1      45.962   1.633   8.432  0.00  0.00    +0.000 A 
ATOM     14  C   UNL     1      46.950   1.381   7.485  0.00  0.00    +0.000 A 
ATOM     15  C   UNL     1      47.343   2.398   6.623  0.00  0.00    +0.000 A 
ATOM     16  C   UNL     1      46.732   3.633   6.750  0.00  0.00    +0.000 A 
ATOM     17  N   UNL     1      45.769   3.906   7.655  0.00  0.00    +0.000 NA
ENDBRANCH  11  12
ENDBRANCH   9  11
ENDBRANCH   8   9
ENDBRANCH   6   8
ENDBRANCH   1   2
BRANCH   1  18
ATOM     18  N   UNL     1      49.101   6.984  12.497  0.00  0.00    +0.000 NA
ATOM     19  H   UNL     1      48.812   6.783  13.449  0.00  0.00    +0.000 HD
BRANCH  18  21
ATOM     20  C   UNL     1      51.031   8.235  11.513  0.00  0.00    +0.000 C 
ATOM     21  C   UNL     1      49.860   8.243  12.504  0.00  0.00    +0.000 C 
BRANCH  21  22
ATOM     22  C   UNL     1      50.362   8.446  13.922  0.00  0.00    +0.000 A 
ATOM     23  C   UNL     1      51.693   8.328  14.298  0.00  0.00    +0.000 A 
ATOM     24  S   UNL     1      51.970   8.682  15.943  0.00  0.00    +0.000 S 
ATOM     25  C   UNL     1      50.315   8.974  16.218  0.00  0.00    +0.000 A 
ATOM     26  N   UNL     1      49.864   9.333  17.450  0.00  0.00    +0.000 NA
ATOM     27  C   UNL     1      48.586   9.518  17.513  0.00  0.00    +0.000 A 
ATOM     28  N   UNL     1      47.721   9.376  16.458  0.00  0.00    +0.000 N 
ATOM     29  C   UNL     1      48.129   9.007  15.197  0.00  0.00    +0.000 A 
ATOM     30  O   UNL     1      47.325   8.864  14.282  0.00  0.00    +0.000 OA
ATOM     31  C   UNL     1      49.561   8.802  15.072  0.00  0.00    +0.000 A 
ATOM     32  H   UNL     1      46.729   9.523  16.579  0.00  0.00    +0.000 HD
ENDBRANCH  21  22
ENDBRANCH  18  21
ENDBRANCH   1  18
TORSDOF 8
ENDMDL
MODEL 9
REMARK VINA RESULT:    -6.944      3.584      8.715
REMARK INTER + INTRA:         -11.160
REMARK INTER:                 -10.041
REMARK INTRA:                  -1.119
REMARK UNBOUND:                -0.969
REMARK  Name = 
REMARK  9 active torsions:
REMARK  status: ('A' for Active; 'I' for Inactive)
REMARK    1  A    between atoms: C_1  and  C_2
REMARK    2  A    between atoms: C_2  and  N_3
REMARK    3  A    between atoms: C_2  and  C_20
REMARK    4  A    between atoms: N_3  and  C_4
REMARK    5  A    between atoms: C_4  and  C_5
REMARK    6  A    between atoms: C_9  and  C_10
REMARK    7  A    between atoms: C_10  and  N_11
REMARK    8  A    between atoms: N_11  and  C_12
REMARK    9  A    between atoms: C_12  and  C_13
REMARK                            x       y       z     vdW  Elec       q    Type
REMARK                         _______ _______ _______ _____ _____    ______ ____
ROOT
ATOM      1  C   UNL     1      46.588   8.430  13.336  0.00  0.00    +0.000 C 
ENDROOT
BRANCH   1   2
ATOM      2  C   UNL     1      48.095   8.447  13.165  0.00  0.00    +0.000 A 
ATOM      3  C   UNL     1      48.667   8.828  11.955  0.00  0.00    +0.000 A 
ATOM      4  C   UNL     1      50.050   8.857  11.844  0.00  0.00    +0.000 A 
ATOM      5  C   UNL     1      50.830   8.518  12.943  0.00  0.00    +0.000 A 
ATOM      6  C   UNL     1      50.197   8.165  14.132  0.00  0.00    +0.000 A 
ATOM      7  N   UNL     1      48.845   8.129  14.252  0.00  0.00    +0.000 NA
BRANCH   6   8
ATOM      8  C   UNL     1      51.011   7.783  15.352  0.00  0.00    +0.000 C 
BRANCH   8   9
ATOM      9  N   UNL     1      50.916   6.365  15.731  0.00  0.00    +0.000 NA
ATOM     10  H   UNL     1      51.872   5.998  15.728  0.00  0.00    +0.000 HD
BRANCH   9  11
ATOM     11  C   UNL     1      50.401   6.193  17.099  0.00  0.00    +0.000 C 
BRANCH  11  12
ATOM     12  C   UNL     1      49.341   5.110  17.173  0.00  0.00    +0.000 A 
ATOM     13  C   UNL     1      49.335   4.200  18.229  0.00  0.00    +0.000 A 
ATOM     14  C   UNL     1      48.323   3.246  18.291  0.00  0.00    +0.000 A 
ATOM     15  C   UNL     1      47.352   3.217  17.297  0.00  0.00    +0.000 A 
ATOM     16  C   UNL     1      47.438   4.146  16.275  0.00  0.00    +0.000 A 
ATOM     17  N   UNL     1      48.404   5.084  16.190  0.00  0.00    +0.000 NA
ENDBRANCH  11  12
ENDBRANCH   9  11
ENDBRANCH   8   9
ENDBRANCH   6   8
ENDBRANCH   1   2
BRANCH   1  18
ATOM     18  N   UNL     1      45.986   7.099  13.156  0.00  0.00    +0.000 NA
ATOM     19  H   UNL     1      46.672   6.389  13.392  0.00  0.00    +0.000 HD
BRANCH  18  21
ATOM     20  C   UNL     1      44.549   7.930  11.284  0.00  0.00    +0.000 C 
ATOM     21  C   UNL     1      45.545   6.870  11.773  0.00  0.00    +0.000 C 
BRANCH  21  22
ATOM     22  C   UNL     1      44.916   5.490  11.735  0.00  0.00    +0.000 A 
ATOM     23  C   UNL     1      44.246   4.912  12.805  0.00  0.00    +0.000 A 
ATOM     24  S   UNL     1      43.582   3.382  12.447  0.00  0.00    +0.000 S 
ATOM     25  C   UNL     1      44.192   3.425  10.859  0.00  0.00    +0.000 A 
ATOM     26  N   UNL     1      43.971   2.396   9.997  0.00  0.00    +0.000 NA
ATOM     27  C   UNL     1      44.497   2.562   8.828  0.00  0.00    +0.000 A 
ATOM     28  N   UNL     1      45.223   3.661   8.444  0.00  0.00    +0.000 N 
ATOM     29  C   UNL     1      45.480   4.721   9.281  0.00  0.00    +0.000 A 
ATOM     30  O   UNL     1      46.155   5.676   8.914  0.00  0.00    +0.000 OA
ATOM     31  C   UNL     1      44.896   4.587  10.604  0.00  0.00    +0.000 A 
ATOM     32  H   UNL     1      45.618   3.721   7.516  0.00  0.00    +0.000 HD
ENDBRANCH  21  22
ENDBRANCH  18  21
ENDBRANCH   1  18
TORSDOF 8
ENDMDL
