MODEL 1
REMARK VINA RESULT:    -7.381      0.000      0.000
REMARK INTER + INTRA:         -10.795
REMARK INTER:                  -9.970
REMARK INTRA:                  -0.825
REMARK UNBOUND:                -0.825
REMARK  Name = 
REMARK  8 active torsions:
REMARK  status: ('A' for Active; 'I' for Inactive)
REMARK    1  A    between atoms: C_1  and  C_2
REMARK    2  A    between atoms: C_3  and  C_4
REMARK    3  A    between atoms: C_7  and  C_8
REMARK    4  A    between atoms: C_12  and  C_13
REMARK    5  A    between atoms: C_13  and  C_14
REMARK    6  A    between atoms: C_14  and  O_15
REMARK    7  A    between atoms: O_15  and  C_16
REMARK    8  A    between atoms: C_20  and  C_21
REMARK                            x       y       z     vdW  Elec       q    Type
REMARK                         _______ _______ _______ _____ _____    ______ ____
ROOT
ATOM      1  C   UNL     1      45.055   7.193  12.227  0.00  0.00    +0.000 A 
ATOM      2  C   UNL     1      46.232   7.432  12.937  0.00  0.00    +0.000 A 
ATOM      3  N   UNL     1      46.873   6.515  13.695  0.00  0.00    +0.000 NA
ATOM      4  C   UNL     1      46.294   5.284  13.754  0.00  0.00    +0.000 A 
ATOM      5  C   UNL     1      45.109   4.951  13.101  0.00  0.00    +0.000 A 
ATOM      6  C   UNL     1      44.457   5.922  12.319  0.00  0.00    +0.000 A 
ENDROOT
BRANCH   4   7
ATOM      7  C   UNL     1      47.034   4.249  14.535  0.00  0.00    +0.000 C 
ATOM      8  N   UNL     1      47.347   4.589  15.822  0.00  0.00    +0.000 N 
ATOM      9  O   UNL     1      47.356   3.164  14.059  0.00  0.00    +0.000 OA
ATOM     10  H   UNL     1      47.078   5.502  16.174  0.00  0.00    +0.000 HD
ATOM     11  H   UNL     1      47.869   3.947  16.403  0.00  0.00    +0.000 HD
ENDBRANCH   4   7
BRANCH   1  14
ATOM     12  C   UNL     1      43.342  10.276   9.852  0.00  0.00    +0.000 C 
ATOM     13  C   UNL     1      43.987   9.181  10.687  0.00  0.00    +0.000 C 
ATOM     14  C   UNL     1      44.539   8.242  11.402  0.00  0.00    +0.000 C 
ENDBRANCH   1  14
BRANCH   6  15
ATOM     15  C   UNL     1      43.203   5.515  11.553  0.00  0.00    +0.000 C 
BRANCH  15  16
ATOM     16  C   UNL     1      43.578   4.985  10.165  0.00  0.00    +0.000 C 
BRANCH  16  17
ATOM     17  O   UNL     1      44.085   3.640  10.182  0.00  0.00    +0.000 OA
BRANCH  17  18
ATOM     18  C   UNL     1      45.022   3.378   9.197  0.00  0.00    +0.000 A 
ATOM     19  C   UNL     1      45.627   4.356   8.405  0.00  0.00    +0.000 A 
ATOM     20  C   UNL     1      46.545   4.015   7.411  0.00  0.00    +0.000 A 
ATOM     21  C   UNL     1      46.872   2.683   7.195  0.00  0.00    +0.000 A 
ATOM     22  C   UNL     1      46.293   1.677   7.978  0.00  0.00    +0.000 A 
ATOM     23  C   UNL     1      46.672   0.245   7.737  0.00  0.00    +0.000 C 
ATOM     24  C   UNL     1      45.364   2.032   8.980  0.00  0.00    +0.000 A 
ENDBRANCH  17  18
ENDBRANCH  16  17
ENDBRANCH  15  16
ENDBRANCH   6  15
TORSDOF 6
ENDMDL
MODEL 2
REMARK VINA RESULT:    -6.873      1.764      2.730
REMARK INTER + INTRA:         -10.109
REMARK INTER:                  -9.323
REMARK INTRA:                  -0.786
REMARK UNBOUND:                -0.825
REMARK  Name = 
REMARK  8 active torsions:
REMARK  status: ('A' for Active; 'I' for Inactive)
REMARK    1  A    between atoms: C_1  and  C_2
REMARK    2  A    between atoms: C_3  and  C_4
REMARK    3  A    between atoms: C_7  and  C_8
REMARK    4  A    between atoms: C_12  and  C_13
REMARK    5  A    between atoms: C_13  and  C_14
REMARK    6  A    between atoms: C_14  and  O_15
REMARK    7  A    between atoms: O_15  and  C_16
REMARK    8  A    between atoms: C_20  and  C_21
REMARK                            x       y       z     vdW  Elec       q    Type
REMARK                         _______ _______ _______ _____ _____    ______ ____
ROOT
ATOM      1  C   UNL     1      47.757   7.374  13.220  0.00  0.00    +0.000 A 
ATOM      2  C   UNL     1      48.555   7.075  14.325  0.00  0.00    +0.000 A 
ATOM      3  N   UNL     1      48.445   5.955  15.073  0.00  0.00    +0.000 NA
ATOM      4  C   UNL     1      47.467   5.085  14.699  0.00  0.00    +0.000 A 
ATOM      5  C   UNL     1      46.604   5.301  13.626  0.00  0.00    +0.000 A 
ATOM      6  C   UNL     1      46.735   6.474  12.862  0.00  0.00    +0.000 A 
ENDROOT
BRANCH   4   7
ATOM      7  C   UNL     1      47.385   3.816  15.481  0.00  0.00    +0.000 C 
ATOM      8  N   UNL     1      46.886   3.933  16.749  0.00  0.00    +0.000 N 
ATOM      9  O   UNL     1      47.749   2.734  15.029  0.00  0.00    +0.000 OA
ATOM     10  H   UNL     1      46.610   4.847  17.092  0.00  0.00    +0.000 HD
ATOM     11  H   UNL     1      46.824   3.119  17.346  0.00  0.00    +0.000 HD
ENDBRANCH   4   7
BRANCH   1  14
ATOM     12  C   UNL     1      48.817  10.841  10.998  0.00  0.00    +0.000 C 
ATOM     13  C   UNL     1      48.404   9.614  11.795  0.00  0.00    +0.000 C 
ATOM     14  C   UNL     1      48.050   8.562  12.478  0.00  0.00    +0.000 C 
ENDBRANCH   1  14
BRANCH   6  15
ATOM     15  C   UNL     1      45.831   6.655  11.647  0.00  0.00    +0.000 C 
BRANCH  15  16
ATOM     16  C   UNL     1      44.616   5.728  11.748  0.00  0.00    +0.000 C 
BRANCH  16  17
ATOM     17  O   UNL     1      43.981   5.473  10.484  0.00  0.00    +0.000 OA
BRANCH  17  18
ATOM     18  C   UNL     1      44.457   4.348   9.831  0.00  0.00    +0.000 A 
ATOM     19  C   UNL     1      44.149   3.036  10.196  0.00  0.00    +0.000 A 
ATOM     20  C   UNL     1      44.687   1.949   9.508  0.00  0.00    +0.000 A 
ATOM     21  C   UNL     1      45.546   2.161   8.438  0.00  0.00    +0.000 A 
ATOM     22  C   UNL     1      45.869   3.464   8.037  0.00  0.00    +0.000 A 
ATOM     23  C   UNL     1      46.788   3.670   6.869  0.00  0.00    +0.000 C 
ATOM     24  C   UNL     1      45.320   4.557   8.742  0.00  0.00    +0.000 A 
ENDBRANCH  17  18
ENDBRANCH  16  17
ENDBRANCH  15  16
ENDBRANCH   6  15
TORSDOF 6
ENDMDL
MODEL 3
REMARK VINA RESULT:    -6.569      2.481      3.509
REMARK INTER + INTRA:          -9.698
REMARK INTER:                  -9.033
REMARK INTRA:                  -0.665
REMARK UNBOUND:                -0.825
REMARK  Name = 
REMARK  8 active torsions:
REMARK  status: ('A' for Active; 'I' for Inactive)
REMARK    1  A    between atoms: C_1  and  C_2
REMARK    2  A    between atoms: C_3  and  C_4
REMARK    3  A    between atoms: C_7  and  C_8
REMARK    4  A    between atoms: C_12  and  C_13
REMARK    5  A    between atoms: C_13  and  C_14
REMARK    6  A    between atoms: C_14  and  O_15
REMARK    7  A    between atoms: O_15  and  C_16
REMARK    8  A    between atoms: C_20  and  C_21
REMARK                            x       y       z     vdW  Elec       q    Type
REMARK                         _______ _______ _______ _____ _____    ______ ____
ROOT
ATOM      1  C   UNL     1      46.686   6.342  11.940  0.00  0.00    +0.000 A 
ATOM      2  C   UNL     1      46.357   6.046  13.263  0.00  0.00    +0.000 A 
ATOM      3  N   UNL     1      45.379   5.192  13.640  0.00  0.00    +0.000 NA
ATOM      4  C   UNL     1      44.681   4.605  12.629  0.00  0.00    +0.000 A 
ATOM      5  C   UNL     1      44.917   4.850  11.278  0.00  0.00    +0.000 A 
ATOM      6  C   UNL     1      45.938   5.744  10.908  0.00  0.00    +0.000 A 
ENDROOT
BRANCH   4   7
ATOM      7  C   UNL     1      43.645   3.611  13.039  0.00  0.00    +0.000 C 
ATOM      8  N   UNL     1      43.694   2.405  12.396  0.00  0.00    +0.000 N 
ATOM      9  O   UNL     1      42.793   3.854  13.890  0.00  0.00    +0.000 OA
ATOM     10  H   UNL     1      44.403   2.248  11.687  0.00  0.00    +0.000 HD
ATOM     11  H   UNL     1      43.008   1.692  12.605  0.00  0.00    +0.000 HD
ENDBRANCH   4   7
BRANCH   1  14
ATOM     12  C   UNL     1      49.911   9.045  11.334  0.00  0.00    +0.000 C 
ATOM     13  C   UNL     1      48.776   8.053  11.531  0.00  0.00    +0.000 C 
ATOM     14  C   UNL     1      47.802   7.204  11.700  0.00  0.00    +0.000 C 
ENDBRANCH   1  14
BRANCH   6  15
ATOM     15  C   UNL     1      46.230   5.940   9.424  0.00  0.00    +0.000 C 
BRANCH  15  16
ATOM     16  C   UNL     1      45.743   4.727   8.623  0.00  0.00    +0.000 C 
BRANCH  16  17
ATOM     17  O   UNL     1      46.516   4.475   7.438  0.00  0.00    +0.000 OA
BRANCH  17  18
ATOM     18  C   UNL     1      46.648   3.132   7.126  0.00  0.00    +0.000 A 
ATOM     19  C   UNL     1      46.619   2.099   8.065  0.00  0.00    +0.000 A 
ATOM     20  C   UNL     1      46.786   0.769   7.681  0.00  0.00    +0.000 A 
ATOM     21  C   UNL     1      46.985   0.452   6.344  0.00  0.00    +0.000 A 
ATOM     22  C   UNL     1      47.008   1.462   5.373  0.00  0.00    +0.000 A 
ATOM     23  C   UNL     1      47.210   1.095   3.932  0.00  0.00    +0.000 C 
ATOM     24  C   UNL     1      46.840   2.805   5.773  0.00  0.00    +0.000 A 
ENDBRANCH  17  18
ENDBRANCH  16  17
ENDBRANCH  15  16
ENDBRANCH   6  15
TORSDOF 6
ENDMDL
MODEL 4
REMARK VINA RESULT:    -6.467      2.084      3.388
REMARK INTER + INTRA:          -9.561
REMARK INTER:                  -8.487
REMARK INTRA:                  -1.073
REMARK UNBOUND:                -0.825
REMARK  Name = 
REMARK  8 active torsions:
REMARK  status: ('A' for Active; 'I' for Inactive)
REMARK    1  A    between atoms: C_1  and  C_2
REMARK    2  A    between atoms: C_3  and  C_4
REMARK    3  A    between atoms: C_7  and  C_8
REMARK    4  A    between atoms: C_12  and  C_13
REMARK    5  A    between atoms: C_13  and  C_14
REMARK    6  A    between atoms: C_14  and  O_15
REMARK    7  A    between atoms: O_15  and  C_16
REMARK    8  A    between atoms: C_20  and  C_21
REMARK                            x       y       z     vdW  Elec       q    Type
REMARK                         _______ _______ _______ _____ _____    ______ ____
ROOT
ATOM      1  C   UNL     1      47.910   7.719  12.795  0.00  0.00    +0.000 A 
ATOM      2  C   UNL     1      48.739   7.231  13.806  0.00  0.00    +0.000 A 
ATOM      3  N   UNL     1      48.516   6.094  14.502  0.00  0.00    +0.000 NA
ATOM      4  C   UNL     1      47.388   5.407  14.171  0.00  0.00    +0.000 A 
ATOM      5  C   UNL     1      46.486   5.820  13.194  0.00  0.00    +0.000 A 
ATOM      6  C   UNL     1      46.735   7.008  12.483  0.00  0.00    +0.000 A 
ENDROOT
BRANCH   4   7
ATOM      7  C   UNL     1      47.173   4.116  14.891  0.00  0.00    +0.000 C 
ATOM      8  N   UNL     1      46.767   4.224  16.192  0.00  0.00    +0.000 N 
ATOM      9  O   UNL     1      47.357   3.024  14.361  0.00  0.00    +0.000 OA
ATOM     10  H   UNL     1      46.642   5.145  16.599  0.00  0.00    +0.000 HD
ATOM     11  H   UNL     1      46.626   3.391  16.749  0.00  0.00    +0.000 HD
ENDBRANCH   4   7
BRANCH   1  14
ATOM     12  C   UNL     1      49.324  11.141  10.705  0.00  0.00    +0.000 C 
ATOM     13  C   UNL     1      48.784   9.931  11.452  0.00  0.00    +0.000 C 
ATOM     14  C   UNL     1      48.323   8.895  12.092  0.00  0.00    +0.000 C 
ENDBRANCH   1  14
BRANCH   6  15
ATOM     15  C   UNL     1      45.775   7.402  11.366  0.00  0.00    +0.000 C 
BRANCH  15  16
ATOM     16  C   UNL     1      44.327   7.336  11.863  0.00  0.00    +0.000 C 
BRANCH  16  17
ATOM     17  O   UNL     1      43.447   6.624  10.976  0.00  0.00    +0.000 OA
BRANCH  17  18
ATOM     18  C   UNL     1      43.556   5.247  11.059  0.00  0.00    +0.000 A 
ATOM     19  C   UNL     1      43.188   4.493  12.176  0.00  0.00    +0.000 A 
ATOM     20  C   UNL     1      43.351   3.108  12.198  0.00  0.00    +0.000 A 
ATOM     21  C   UNL     1      43.887   2.454  11.097  0.00  0.00    +0.000 A 
ATOM     22  C   UNL     1      44.257   3.177   9.956  0.00  0.00    +0.000 A 
ATOM     23  C   UNL     1      44.820   2.447   8.771  0.00  0.00    +0.000 C 
ATOM     24  C   UNL     1      44.089   4.578   9.944  0.00  0.00    +0.000 A 
ENDBRANCH  17  18
ENDBRANCH  16  17
ENDBRANCH  15  16
ENDBRANCH   6  15
TORSDOF 6
ENDMDL
MODEL 5
REMARK VINA RESULT:    -6.458      3.650      7.161
REMARK INTER + INTRA:          -9.549
REMARK INTER:                  -8.606
REMARK INTRA:                  -0.942
REMARK UNBOUND:                -0.825
REMARK  Name = 
REMARK  8 active torsions:
REMARK  status: ('A' for Active; 'I' for Inactive)
REMARK    1  A    between atoms: C_1  and  C_2
REMARK    2  A    between atoms: C_3  and  C_4
REMARK    3  A    between atoms: C_7  and  C_8
REMARK    4  A    between atoms: C_12  and  C_13
REMARK    5  A    between atoms: C_13  and  C_14
REMARK    6  A    between atoms: C_14  and  O_15
REMARK    7  A    between atoms: O_15  and  C_16
REMARK    8  A    between atoms: C_20  and  C_21
REMARK                            x       y       z     vdW  Elec       q    Type
REMARK                         _______ _______ _______ _____ _____    ______ ____
ROOT
ATOM      1  C   UNL     1      46.815   6.280  13.249  0.00  0.00    +0.000 A 
ATOM      2  C   UNL     1      46.019   7.149  12.502  0.00  0.00    +0.000 A 
ATOM      3  N   UNL     1      44.817   6.830  11.974  0.00  0.00    +0.000 NA
ATOM      4  C   UNL     1      44.389   5.557  12.200  0.00  0.00    +0.000 A 
ATOM      5  C   UNL     1      45.118   4.608  12.913  0.00  0.00    +0.000 A 
ATOM      6  C   UNL     1      46.368   4.961  13.452  0.00  0.00    +0.000 A 
ENDROOT
BRANCH   4   7
ATOM      7  C   UNL     1      43.032   5.220  11.676  0.00  0.00    +0.000 C 
ATOM      8  N   UNL     1      42.097   6.214  11.768  0.00  0.00    +0.000 N 
ATOM      9  O   UNL     1      42.758   4.121  11.201  0.00  0.00    +0.000 OA
ATOM     10  H   UNL     1      42.358   7.104  12.181  0.00  0.00    +0.000 HD
ATOM     11  H   UNL     1      41.150   6.049  11.456  0.00  0.00    +0.000 HD
ENDBRANCH   4   7
BRANCH   1  14
ATOM     12  C   UNL     1      50.516   7.647  14.833  0.00  0.00    +0.000 C 
ATOM     13  C   UNL     1      49.176   7.186  14.283  0.00  0.00    +0.000 C 
ATOM     14  C   UNL     1      48.027   6.791  13.811  0.00  0.00    +0.000 C 
ENDBRANCH   1  14
BRANCH   6  15
ATOM     15  C   UNL     1      47.114   3.930  14.292  0.00  0.00    +0.000 C 
BRANCH  15  16
ATOM     16  C   UNL     1      46.869   4.184  15.783  0.00  0.00    +0.000 C 
BRANCH  16  17
ATOM     17  O   UNL     1      47.420   3.167  16.637  0.00  0.00    +0.000 OA
BRANCH  17  18
ATOM     18  C   UNL     1      48.743   3.379  16.985  0.00  0.00    +0.000 A 
ATOM     19  C   UNL     1      49.291   4.632  17.268  0.00  0.00    +0.000 A 
ATOM     20  C   UNL     1      50.641   4.774  17.587  0.00  0.00    +0.000 A 
ATOM     21  C   UNL     1      51.467   3.658  17.628  0.00  0.00    +0.000 A 
ATOM     22  C   UNL     1      50.948   2.385  17.360  0.00  0.00    +0.000 A 
ATOM     23  C   UNL     1      51.855   1.190  17.424  0.00  0.00    +0.000 C 
ATOM     24  C   UNL     1      49.581   2.252  17.036  0.00  0.00    +0.000 A 
ENDBRANCH  17  18
ENDBRANCH  16  17
ENDBRANCH  15  16
ENDBRANCH   6  15
TORSDOF 6
ENDMDL
MODEL 6
REMARK VINA RESULT:    -6.317      2.032      4.256
REMARK INTER + INTRA:          -9.358
REMARK INTER:                  -8.405
REMARK INTRA:                  -0.953
REMARK UNBOUND:                -0.825
REMARK  Name = 
REMARK  8 active torsions:
REMARK  status: ('A' for Active; 'I' for Inactive)
REMARK    1  A    between atoms: C_1  and  C_2
REMARK    2  A    between atoms: C_3  and  C_4
REMARK    3  A    between atoms: C_7  and  C_8
REMARK    4  A    between atoms: C_12  and  C_13
REMARK    5  A    between atoms: C_13  and  C_14
REMARK    6  A    between atoms: C_14  and  O_15
REMARK    7  A    between atoms: O_15  and  C_16
REMARK    8  A    between atoms: C_20  and  C_21
REMARK                            x       y       z     vdW  Elec       q    Type
REMARK                         _______ _______ _______ _____ _____    ______ ____
ROOT
ATOM      1  C   UNL     1      45.647   6.513  12.649  0.00  0.00    +0.000 A 
ATOM      2  C   UNL     1      46.360   7.708  12.554  0.00  0.00    +0.000 A 
ATOM      3  N   UNL     1      45.903   8.832  11.958  0.00  0.00    +0.000 NA
ATOM      4  C   UNL     1      44.658   8.750  11.413  0.00  0.00    +0.000 A 
ATOM      5  C   UNL     1      43.874   7.598  11.436  0.00  0.00    +0.000 A 
ATOM      6  C   UNL     1      44.370   6.440  12.060  0.00  0.00    +0.000 A 
ENDROOT
BRANCH   4   7
ATOM      7  C   UNL     1      44.122  10.008  10.813  0.00  0.00    +0.000 C 
ATOM      8  N   UNL     1      44.755  11.161  11.189  0.00  0.00    +0.000 N 
ATOM      9  O   UNL     1      43.169  10.019  10.038  0.00  0.00    +0.000 OA
ATOM     10  H   UNL     1      45.528  11.112  11.844  0.00  0.00    +0.000 HD
ATOM     11  H   UNL     1      44.430  12.053  10.841  0.00  0.00    +0.000 HD
ENDBRANCH   4   7
BRANCH   1  14
ATOM     12  C   UNL     1      47.408   3.432  14.991  0.00  0.00    +0.000 C 
ATOM     13  C   UNL     1      46.775   4.510  14.126  0.00  0.00    +0.000 C 
ATOM     14  C   UNL     1      46.233   5.435  13.384  0.00  0.00    +0.000 C 
ENDBRANCH   1  14
BRANCH   6  15
ATOM     15  C   UNL     1      43.467   5.214  12.139  0.00  0.00    +0.000 C 
BRANCH  15  16
ATOM     16  C   UNL     1      43.412   4.507  10.781  0.00  0.00    +0.000 C 
BRANCH  16  17
ATOM     17  O   UNL     1      44.260   3.349  10.701  0.00  0.00    +0.000 OA
BRANCH  17  18
ATOM     18  C   UNL     1      45.061   3.313   9.572  0.00  0.00    +0.000 A 
ATOM     19  C   UNL     1      45.426   4.438   8.829  0.00  0.00    +0.000 A 
ATOM     20  C   UNL     1      46.215   4.323   7.686  0.00  0.00    +0.000 A 
ATOM     21  C   UNL     1      46.653   3.074   7.266  0.00  0.00    +0.000 A 
ATOM     22  C   UNL     1      46.314   1.925   7.993  0.00  0.00    +0.000 A 
ATOM     23  C   UNL     1      46.810   0.587   7.529  0.00  0.00    +0.000 C 
ATOM     24  C   UNL     1      45.514   2.053   9.148  0.00  0.00    +0.000 A 
ENDBRANCH  17  18
ENDBRANCH  16  17
ENDBRANCH  15  16
ENDBRANCH   6  15
TORSDOF 6
ENDMDL
MODEL 7
REMARK VINA RESULT:    -6.088      3.270      6.962
REMARK INTER + INTRA:          -9.049
REMARK INTER:                  -8.336
REMARK INTRA:                  -0.713
REMARK UNBOUND:                -0.825
REMARK  Name = 
REMARK  8 active torsions:
REMARK  status: ('A' for Active; 'I' for Inactive)
REMARK    1  A    between atoms: C_1  and  C_2
REMARK    2  A    between atoms: C_3  and  C_4
REMARK    3  A    between atoms: C_7  and  C_8
REMARK    4  A    between atoms: C_12  and  C_13
REMARK    5  A    between atoms: C_13  and  C_14
REMARK    6  A    between atoms: C_14  and  O_15
REMARK    7  A    between atoms: O_15  and  C_16
REMARK    8  A    between atoms: C_20  and  C_21
REMARK                            x       y       z     vdW  Elec       q    Type
REMARK                         _______ _______ _______ _____ _____    ______ ____
ROOT
ATOM      1  C   UNL     1      46.576   6.399  12.116  0.00  0.00    +0.000 A 
ATOM      2  C   UNL     1      45.745   6.285  11.001  0.00  0.00    +0.000 A 
ATOM      3  N   UNL     1      44.956   5.221  10.735  0.00  0.00    +0.000 NA
ATOM      4  C   UNL     1      45.009   4.202  11.636  0.00  0.00    +0.000 A 
ATOM      5  C   UNL     1      45.821   4.209  12.768  0.00  0.00    +0.000 A 
ATOM      6  C   UNL     1      46.637   5.325  13.025  0.00  0.00    +0.000 A 
ENDROOT
BRANCH   4   7
ATOM      7  C   UNL     1      44.089   3.054  11.382  0.00  0.00    +0.000 C 
ATOM      8  N   UNL     1      43.694   2.355  12.489  0.00  0.00    +0.000 N 
ATOM      9  O   UNL     1      43.714   2.742  10.255  0.00  0.00    +0.000 OA
ATOM     10  H   UNL     1      44.039   2.633  13.402  0.00  0.00    +0.000 HD
ATOM     11  H   UNL     1      43.091   1.549  12.390  0.00  0.00    +0.000 HD
ENDBRANCH   4   7
BRANCH   1  14
ATOM     12  C   UNL     1      48.772   9.966  12.843  0.00  0.00    +0.000 C 
ATOM     13  C   UNL     1      47.974   8.705  12.552  0.00  0.00    +0.000 C 
ATOM     14  C   UNL     1      47.291   7.624  12.303  0.00  0.00    +0.000 C 
ENDBRANCH   1  14
BRANCH   6  15
ATOM     15  C   UNL     1      47.460   5.344  14.308  0.00  0.00    +0.000 C 
BRANCH  15  16
ATOM     16  C   UNL     1      46.915   4.315  15.304  0.00  0.00    +0.000 C 
BRANCH  16  17
ATOM     17  O   UNL     1      47.391   4.507  16.647  0.00  0.00    +0.000 OA
BRANCH  17  18
ATOM     18  C   UNL     1      48.602   3.890  16.909  0.00  0.00    +0.000 A 
ATOM     19  C   UNL     1      48.833   2.519  16.778  0.00  0.00    +0.000 A 
ATOM     20  C   UNL     1      50.074   1.963  17.086  0.00  0.00    +0.000 A 
ATOM     21  C   UNL     1      51.107   2.775  17.533  0.00  0.00    +0.000 A 
ATOM     22  C   UNL     1      50.915   4.156  17.667  0.00  0.00    +0.000 A 
ATOM     23  C   UNL     1      52.050   5.017  18.138  0.00  0.00    +0.000 C 
ATOM     24  C   UNL     1      49.654   4.708  17.354  0.00  0.00    +0.000 A 
ENDBRANCH  17  18
ENDBRANCH  16  17
ENDBRANCH  15  16
ENDBRANCH   6  15
TORSDOF 6
ENDMDL
MODEL 8
REMARK VINA RESULT:    -6.081      2.881      7.160
REMARK INTER + INTRA:          -9.039
REMARK INTER:                  -8.372
REMARK INTRA:                  -0.667
REMARK UNBOUND:                -0.825
REMARK  Name = 
REMARK  8 active torsions:
REMARK  status: ('A' for Active; 'I' for Inactive)
REMARK    1  A    between atoms: C_1  and  C_2
REMARK    2  A    between atoms: C_3  and  C_4
REMARK    3  A    between atoms: C_7  and  C_8
REMARK    4  A    between atoms: C_12  and  C_13
REMARK    5  A    between atoms: C_13  and  C_14
REMARK    6  A    between atoms: C_14  and  O_15
REMARK    7  A    between atoms: O_15  and  C_16
REMARK    8  A    between atoms: C_20  and  C_21
REMARK                            x       y       z     vdW  Elec       q    Type
REMARK                         _______ _______ _______ _____ _____    ______ ____
ROOT
ATOM      1  C   UNL     1      45.070   5.000  11.108  0.00  0.00    +0.000 A 
ATOM      2  C   UNL     1      44.666   6.213  10.550  0.00  0.00    +0.000 A 
ATOM      3  N   UNL     1      44.837   7.422  11.130  0.00  0.00    +0.000 NA
ATOM      4  C   UNL     1      45.441   7.414  12.351  0.00  0.00    +0.000 A 
ATOM      5  C   UNL     1      45.861   6.257  13.002  0.00  0.00    +0.000 A 
ATOM      6  C   UNL     1      45.671   5.009  12.381  0.00  0.00    +0.000 A 
ENDROOT
BRANCH   4   7
ATOM      7  C   UNL     1      45.693   8.752  12.965  0.00  0.00    +0.000 C 
ATOM      8  N   UNL     1      46.579   8.768  14.006  0.00  0.00    +0.000 N 
ATOM      9  O   UNL     1      45.137   9.775  12.575  0.00  0.00    +0.000 OA
ATOM     10  H   UNL     1      47.006   7.899  14.309  0.00  0.00    +0.000 HD
ATOM     11  H   UNL     1      46.779   9.635  14.486  0.00  0.00    +0.000 HD
ENDBRANCH   4   7
BRANCH   1  14
ATOM     12  C   UNL     1      44.742   1.466   8.767  0.00  0.00    +0.000 C 
ATOM     13  C   UNL     1      44.823   2.728   9.611  0.00  0.00    +0.000 C 
ATOM     14  C   UNL     1      44.893   3.809  10.335  0.00  0.00    +0.000 C 
ENDBRANCH   1  14
BRANCH   6  15
ATOM     15  C   UNL     1      46.205   3.762  13.078  0.00  0.00    +0.000 C 
BRANCH  15  16
ATOM     16  C   UNL     1      47.003   4.152  14.327  0.00  0.00    +0.000 C 
BRANCH  16  17
ATOM     17  O   UNL     1      47.567   3.028  15.022  0.00  0.00    +0.000 OA
BRANCH  17  18
ATOM     18  C   UNL     1      48.013   3.321  16.299  0.00  0.00    +0.000 A 
ATOM     19  C   UNL     1      49.062   2.656  16.940  0.00  0.00    +0.000 A 
ATOM     20  C   UNL     1      49.441   2.988  18.240  0.00  0.00    +0.000 A 
ATOM     21  C   UNL     1      48.772   3.996  18.922  0.00  0.00    +0.000 A 
ATOM     22  C   UNL     1      47.722   4.690  18.308  0.00  0.00    +0.000 A 
ATOM     23  C   UNL     1      47.023   5.785  19.059  0.00  0.00    +0.000 C 
ATOM     24  C   UNL     1      47.346   4.345  16.992  0.00  0.00    +0.000 A 
ENDBRANCH  17  18
ENDBRANCH  16  17
ENDBRANCH  15  16
ENDBRANCH   6  15
TORSDOF 6
ENDMDL
MODEL 9
REMARK VINA RESULT:    -5.958      3.558      6.442
REMARK INTER + INTRA:          -8.873
REMARK INTER:                  -7.918
REMARK INTRA:                  -0.955
REMARK UNBOUND:                -0.825
REMARK  Name = 
REMARK  8 active torsions:
REMARK  status: ('A' for Active; 'I' for Inactive)
REMARK    1  A    between atoms: C_1  and  C_2
REMARK    2  A    between atoms: C_3  and  C_4
REMARK    3  A    between atoms: C_7  and  C_8
REMARK    4  A    between atoms: C_12  and  C_13
REMARK    5  A    between atoms: C_13  and  C_14
REMARK    6  A    between atoms: C_14  and  O_15
REMARK    7  A    between atoms: O_15  and  C_16
REMARK    8  A    between atoms: C_20  and  C_21
REMARK                            x       y       z     vdW  Elec       q    Type
REMARK                         _______ _______ _______ _____ _____    ______ ____
ROOT
ATOM      1  C   UNL     1      45.910   7.690  12.355  0.00  0.00    +0.000 A 
ATOM      2  C   UNL     1      44.881   6.791  12.074  0.00  0.00    +0.000 A 
ATOM      3  N   UNL     1      44.943   5.458  12.291  0.00  0.00    +0.000 NA
ATOM      4  C   UNL     1      46.113   4.996  12.812  0.00  0.00    +0.000 A 
ATOM      5  C   UNL     1      47.206   5.808  13.108  0.00  0.00    +0.000 A 
ATOM      6  C   UNL     1      47.121   7.192  12.872  0.00  0.00    +0.000 A 
ENDROOT
BRANCH   4   7
ATOM      7  C   UNL     1      46.162   3.535  13.116  0.00  0.00    +0.000 C 
ATOM      8  N   UNL     1      45.213   2.769  12.497  0.00  0.00    +0.000 N 
ATOM      9  O   UNL     1      46.990   3.044  13.879  0.00  0.00    +0.000 OA
ATOM     10  H   UNL     1      44.536   3.214  11.887  0.00  0.00    +0.000 HD
ATOM     11  H   UNL     1      45.170   1.774  12.676  0.00  0.00    +0.000 HD
ENDBRANCH   4   7
BRANCH   1  14
ATOM     12  C   UNL     1      45.372  11.857  11.703  0.00  0.00    +0.000 C 
ATOM     13  C   UNL     1      45.528  10.364  11.942  0.00  0.00    +0.000 C 
ATOM     14  C   UNL     1      45.663   9.084  12.147  0.00  0.00    +0.000 C 
ENDBRANCH   1  14
BRANCH   6  15
ATOM     15  C   UNL     1      48.300   8.071  13.272  0.00  0.00    +0.000 C 
BRANCH  15  16
ATOM     16  C   UNL     1      49.268   7.287  14.164  0.00  0.00    +0.000 C 
BRANCH  16  17
ATOM     17  O   UNL     1      48.972   7.396  15.567  0.00  0.00    +0.000 OA
BRANCH  17  18
ATOM     18  C   UNL     1      49.281   6.262  16.298  0.00  0.00    +0.000 A 
ATOM     19  C   UNL     1      50.541   5.991  16.837  0.00  0.00    +0.000 A 
ATOM     20  C   UNL     1      50.787   4.813  17.542  0.00  0.00    +0.000 A 
ATOM     21  C   UNL     1      49.770   3.884  17.718  0.00  0.00    +0.000 A 
ATOM     22  C   UNL     1      48.492   4.128  17.200  0.00  0.00    +0.000 A 
ATOM     23  C   UNL     1      47.404   3.116  17.415  0.00  0.00    +0.000 C 
ATOM     24  C   UNL     1      48.254   5.322  16.487  0.00  0.00    +0.000 A 
ENDBRANCH  17  18
ENDBRANCH  16  17
ENDBRANCH  15  16
ENDBRANCH   6  15
TORSDOF 6
ENDMDL
