MODEL 1
REMARK VINA RESULT:    -8.943      0.000      0.000
REMARK INTER + INTRA:         -13.138
REMARK INTER:                 -12.080
REMARK INTRA:                  -1.058
REMARK UNBOUND:                -1.058
REMARK  Name = 
REMARK  8 active torsions:
REMARK  status: ('A' for Active; 'I' for Inactive)
REMARK    1  A    between atoms: C_1  and  O_2
REMARK    2  A    between atoms: O_2  and  C_3
REMARK    3  A    between atoms: C_5  and  C_6
REMARK    4  A    between atoms: C_14  and  C_15
REMARK    5  A    between atoms: C_15  and  C_16
REMARK    6  A    between atoms: C_15  and  C_17
REMARK    7  A    between atoms: C_17  and  N_18
REMARK    8  A    between atoms: C_22  and  C_23
REMARK                            x       y       z     vdW  Elec       q    Type
REMARK                         _______ _______ _______ _____ _____    ______ ____
ROOT
ATOM      1  C   UNL     1      43.409   4.892  12.069  0.00  0.00    +0.000 C 
ATOM      2  C   UNL     1      42.774   6.130  11.423  0.00  0.00    +0.000 C 
ENDROOT
BRANCH   1   7
ATOM      3  C   UNL     1      46.759   4.527  13.900  0.00  0.00    +0.000 A 
ATOM      4  C   UNL     1      47.390   5.726  13.558  0.00  0.00    +0.000 A 
ATOM      5  C   UNL     1      46.765   6.679  12.734  0.00  0.00    +0.000 A 
ATOM      6  C   UNL     1      45.457   6.400  12.299  0.00  0.00    +0.000 A 
ATOM      7  C   UNL     1      44.791   5.208  12.638  0.00  0.00    +0.000 A 
ATOM      8  C   UNL     1      45.461   4.278  13.443  0.00  0.00    +0.000 A 
BRANCH   5   9
ATOM      9  C   UNL     1      47.473   7.912  12.308  0.00  0.00    +0.000 A 
ATOM     10  C   UNL     1      46.832   9.168  12.297  0.00  0.00    +0.000 A 
ATOM     11  C   UNL     1      47.493  10.327  11.874  0.00  0.00    +0.000 A 
ATOM     12  C   UNL     1      48.821  10.258  11.465  0.00  0.00    +0.000 A 
ATOM     13  C   UNL     1      49.467   9.032  11.471  0.00  0.00    +0.000 A 
ATOM     14  F   UNL     1      50.745   8.958  11.076  0.00  0.00    +0.000 F 
ATOM     15  C   UNL     1      48.810   7.872  11.874  0.00  0.00    +0.000 A 
ENDBRANCH   5   9
BRANCH   3  17
ATOM     16  C   UNL     1      47.564   3.808  16.024  0.00  0.00    +0.000 C 
ATOM     17  O   UNL     1      47.310   3.524  14.651  0.00  0.00    +0.000 OA
ENDBRANCH   3  17
ENDBRANCH   1   7
BRANCH   1  18
ATOM     18  C   UNL     1      43.534   3.700  11.091  0.00  0.00    +0.000 C 
BRANCH  18  19
ATOM     19  N   UNL     1      43.681   4.113   9.698  0.00  0.00    +0.000 N 
ATOM     20  C   UNL     1      44.691   3.505   8.958  0.00  0.00    +0.000 A 
ATOM     21  C   UNL     1      45.050   2.157   9.074  0.00  0.00    +0.000 A 
ATOM     22  N   UNL     1      46.010   1.549   8.329  0.00  0.00    +0.000 NA
ATOM     23  C   UNL     1      46.597   2.357   7.410  0.00  0.00    +0.000 A 
ATOM     24  C   UNL     1      46.249   3.691   7.265  0.00  0.00    +0.000 A 
ATOM     25  N   UNL     1      45.301   4.289   8.041  0.00  0.00    +0.000 NA
ATOM     26  H   UNL     1      43.770   5.113   9.533  0.00  0.00    +0.000 HD
BRANCH  23  27
ATOM     27  C   UNL     1      47.647   1.753   6.545  0.00  0.00    +0.000 C 
ATOM     28  N   UNL     1      48.812   2.470   6.448  0.00  0.00    +0.000 N 
ATOM     29  O   UNL     1      47.486   0.693   5.961  0.00  0.00    +0.000 OA
ATOM     30  H   UNL     1      48.911   3.344   6.952  0.00  0.00    +0.000 HD
ATOM     31  H   UNL     1      49.570   2.116   5.882  0.00  0.00    +0.000 HD
ENDBRANCH  23  27
ENDBRANCH  18  19
ENDBRANCH   1  18
TORSDOF 6
ENDMDL
MODEL 2
REMARK VINA RESULT:    -8.208      2.048      4.085
REMARK INTER + INTRA:         -12.146
REMARK INTER:                 -11.213
REMARK INTRA:                  -0.933
REMARK UNBOUND:                -1.058
REMARK  Name = 
REMARK  8 active torsions:
REMARK  status: ('A' for Active; 'I' for Inactive)
REMARK    1  A    between atoms: C_1  and  O_2
REMARK    2  A    between atoms: O_2  and  C_3
REMARK    3  A    between atoms: C_5  and  C_6
REMARK    4  A    between atoms: C_14  and  C_15
REMARK    5  A    between atoms: C_15  and  C_16
REMARK    6  A    between atoms: C_15  and  C_17
REMARK    7  A    between atoms: C_17  and  N_18
REMARK    8  A    between atoms: C_22  and  C_23
REMARK                            x       y       z     vdW  Elec       q    Type
REMARK                         _______ _______ _______ _____ _____    ______ ____
ROOT
ATOM      1  C   UNL     1      43.895   5.500  12.077  0.00  0.00    +0.000 C 
ATOM      2  C   UNL     1      43.328   6.784  11.460  0.00  0.00    +0.000 C 
ENDROOT
BRANCH   1   7
ATOM      3  C   UNL     1      47.538   6.699  12.134  0.00  0.00    +0.000 A 
ATOM      4  C   UNL     1      47.996   6.127  13.323  0.00  0.00    +0.000 A 
ATOM      5  C   UNL     1      47.155   5.347  14.138  0.00  0.00    +0.000 A 
ATOM      6  C   UNL     1      45.840   5.127  13.687  0.00  0.00    +0.000 A 
ATOM      7  C   UNL     1      45.355   5.678  12.488  0.00  0.00    +0.000 A 
ATOM      8  C   UNL     1      46.223   6.466  11.720  0.00  0.00    +0.000 A 
BRANCH   5   9
ATOM      9  C   UNL     1      47.624   4.812  15.439  0.00  0.00    +0.000 A 
ATOM     10  C   UNL     1      47.275   3.518  15.879  0.00  0.00    +0.000 A 
ATOM     11  C   UNL     1      47.699   3.022  17.117  0.00  0.00    +0.000 A 
ATOM     12  C   UNL     1      48.498   3.806  17.941  0.00  0.00    +0.000 A 
ATOM     13  C   UNL     1      48.852   5.081  17.526  0.00  0.00    +0.000 A 
ATOM     14  F   UNL     1      49.620   5.842  18.316  0.00  0.00    +0.000 F 
ATOM     15  C   UNL     1      48.419   5.587  16.302  0.00  0.00    +0.000 A 
ENDBRANCH   5   9
BRANCH   3  17
ATOM     16  C   UNL     1      49.140   8.450  11.930  0.00  0.00    +0.000 C 
ATOM     17  O   UNL     1      48.269   7.510  11.308  0.00  0.00    +0.000 OA
ENDBRANCH   3  17
ENDBRANCH   1   7
BRANCH   1  18
ATOM     18  C   UNL     1      43.789   4.281  11.131  0.00  0.00    +0.000 C 
BRANCH  18  19
ATOM     19  N   UNL     1      43.980   4.626   9.726  0.00  0.00    +0.000 N 
ATOM     20  C   UNL     1      44.883   3.856   8.999  0.00  0.00    +0.000 A 
ATOM     21  C   UNL     1      45.044   2.474   9.154  0.00  0.00    +0.000 A 
ATOM     22  N   UNL     1      45.897   1.711   8.422  0.00  0.00    +0.000 NA
ATOM     23  C   UNL     1      46.586   2.397   7.475  0.00  0.00    +0.000 A 
ATOM     24  C   UNL     1      46.434   3.762   7.291  0.00  0.00    +0.000 A 
ATOM     25  N   UNL     1      45.592   4.515   8.054  0.00  0.00    +0.000 NA
ATOM     26  H   UNL     1      44.212   5.597   9.529  0.00  0.00    +0.000 HD
BRANCH  23  27
ATOM     27  C   UNL     1      47.528   1.621   6.623  0.00  0.00    +0.000 C 
ATOM     28  N   UNL     1      48.607   2.322   6.152  0.00  0.00    +0.000 N 
ATOM     29  O   UNL     1      47.355   0.441   6.360  0.00  0.00    +0.000 OA
ATOM     30  H   UNL     1      48.721   3.300   6.395  0.00  0.00    +0.000 HD
ATOM     31  H   UNL     1      49.291   1.857   5.572  0.00  0.00    +0.000 HD
ENDBRANCH  23  27
ENDBRANCH  18  19
ENDBRANCH   1  18
TORSDOF 6
ENDMDL
MODEL 3
REMARK VINA RESULT:    -7.835      2.411      3.073
REMARK INTER + INTRA:         -11.642
REMARK INTER:                 -10.645
REMARK INTRA:                  -0.996
REMARK UNBOUND:                -1.058
REMARK  Name = 
REMARK  8 active torsions:
REMARK  status: ('A' for Active; 'I' for Inactive)
REMARK    1  A    between atoms: C_1  and  O_2
REMARK    2  A    between atoms: O_2  and  C_3
REMARK    3  A    between atoms: C_5  and  C_6
REMARK    4  A    between atoms: C_14  and  C_15
REMARK    5  A    between atoms: C_15  and  C_16
REMARK    6  A    between atoms: C_15  and  C_17
REMARK    7  A    between atoms: C_17  and  N_18
REMARK    8  A    between atoms: C_22  and  C_23
REMARK                            x       y       z     vdW  Elec       q    Type
REMARK                         _______ _______ _______ _____ _____    ______ ____
ROOT
ATOM      1  C   UNL     1      44.284   4.518  12.729  0.00  0.00    +0.000 C 
ATOM      2  C   UNL     1      42.814   4.949  12.670  0.00  0.00    +0.000 C 
ENDROOT
BRANCH   1   7
ATOM      3  C   UNL     1      47.465   6.662  12.799  0.00  0.00    +0.000 A 
ATOM      4  C   UNL     1      46.961   7.912  12.431  0.00  0.00    +0.000 A 
ATOM      5  C   UNL     1      45.596   8.103  12.149  0.00  0.00    +0.000 A 
ATOM      6  C   UNL     1      44.744   6.992  12.294  0.00  0.00    +0.000 A 
ATOM      7  C   UNL     1      45.220   5.725  12.676  0.00  0.00    +0.000 A 
ATOM      8  C   UNL     1      46.591   5.577  12.925  0.00  0.00    +0.000 A 
BRANCH   5   9
ATOM      9  C   UNL     1      45.083   9.413  11.680  0.00  0.00    +0.000 A 
ATOM     10  C   UNL     1      45.787  10.612  11.914  0.00  0.00    +0.000 A 
ATOM     11  C   UNL     1      45.291  11.851  11.492  0.00  0.00    +0.000 A 
ATOM     12  C   UNL     1      44.082  11.917  10.809  0.00  0.00    +0.000 A 
ATOM     13  C   UNL     1      43.376  10.749  10.568  0.00  0.00    +0.000 A 
ATOM     14  F   UNL     1      42.210  10.806   9.913  0.00  0.00    +0.000 F 
ATOM     15  C   UNL     1      43.856   9.515  11.002  0.00  0.00    +0.000 A 
ENDBRANCH   5   9
BRANCH   3  17
ATOM     16  C   UNL     1      49.750   7.256  12.481  0.00  0.00    +0.000 C 
ATOM     17  O   UNL     1      48.782   6.374  13.041  0.00  0.00    +0.000 OA
ENDBRANCH   3  17
ENDBRANCH   1   7
BRANCH   1  18
ATOM     18  C   UNL     1      44.672   3.539  11.596  0.00  0.00    +0.000 C 
BRANCH  18  19
ATOM     19  N   UNL     1      44.539   4.122  10.263  0.00  0.00    +0.000 N 
ATOM     20  C   UNL     1      45.276   3.538   9.238  0.00  0.00    +0.000 A 
ATOM     21  C   UNL     1      45.500   2.161   9.113  0.00  0.00    +0.000 A 
ATOM     22  N   UNL     1      46.187   1.582   8.094  0.00  0.00    +0.000 NA
ATOM     23  C   UNL     1      46.632   2.456   7.155  0.00  0.00    +0.000 A 
ATOM     24  C   UNL     1      46.412   3.821   7.248  0.00  0.00    +0.000 A 
ATOM     25  N   UNL     1      45.742   4.385   8.292  0.00  0.00    +0.000 NA
ATOM     26  H   UNL     1      44.698   5.124  10.193  0.00  0.00    +0.000 HD
BRANCH  23  27
ATOM     27  C   UNL     1      47.381   1.889   6.000  0.00  0.00    +0.000 C 
ATOM     28  N   UNL     1      48.126   2.789   5.284  0.00  0.00    +0.000 N 
ATOM     29  O   UNL     1      47.336   0.705   5.706  0.00  0.00    +0.000 OA
ATOM     30  H   UNL     1      48.144   3.765   5.561  0.00  0.00    +0.000 HD
ATOM     31  H   UNL     1      48.665   2.474   4.490  0.00  0.00    +0.000 HD
ENDBRANCH  23  27
ENDBRANCH  18  19
ENDBRANCH   1  18
TORSDOF 6
ENDMDL
MODEL 4
REMARK VINA RESULT:    -7.504      4.565      7.940
REMARK INTER + INTRA:         -11.195
REMARK INTER:                 -10.165
REMARK INTRA:                  -1.030
REMARK UNBOUND:                -1.058
REMARK  Name = 
REMARK  8 active torsions:
REMARK  status: ('A' for Active; 'I' for Inactive)
REMARK    1  A    between atoms: C_1  and  O_2
REMARK    2  A    between atoms: O_2  and  C_3
REMARK    3  A    between atoms: C_5  and  C_6
REMARK    4  A    between atoms: C_14  and  C_15
REMARK    5  A    between atoms: C_15  and  C_16
REMARK    6  A    between atoms: C_15  and  C_17
REMARK    7  A    between atoms: C_17  and  N_18
REMARK    8  A    between atoms: C_22  and  C_23
REMARK                            x       y       z     vdW  Elec       q    Type
REMARK                         _______ _______ _______ _____ _____    ______ ____
ROOT
ATOM      1  C   UNL     1      48.917   8.272  12.475  0.00  0.00    +0.000 C 
ATOM      2  C   UNL     1      49.489   9.462  11.696  0.00  0.00    +0.000 C 
ENDROOT
BRANCH   1   7
ATOM      3  C   UNL     1      45.180   8.925  11.913  0.00  0.00    +0.000 A 
ATOM      4  C   UNL     1      44.758   7.690  11.413  0.00  0.00    +0.000 A 
ATOM      5  C   UNL     1      45.654   6.619  11.241  0.00  0.00    +0.000 A 
ATOM      6  C   UNL     1      46.990   6.824  11.633  0.00  0.00    +0.000 A 
ATOM      7  C   UNL     1      47.441   8.052  12.152  0.00  0.00    +0.000 A 
ATOM      8  C   UNL     1      46.517   9.096  12.285  0.00  0.00    +0.000 A 
BRANCH   5   9
ATOM      9  C   UNL     1      45.216   5.339  10.635  0.00  0.00    +0.000 A 
ATOM     10  C   UNL     1      45.555   4.991   9.311  0.00  0.00    +0.000 A 
ATOM     11  C   UNL     1      45.123   3.793   8.730  0.00  0.00    +0.000 A 
ATOM     12  C   UNL     1      44.350   2.904   9.469  0.00  0.00    +0.000 A 
ATOM     13  C   UNL     1      44.007   3.228  10.773  0.00  0.00    +0.000 A 
ATOM     14  F   UNL     1      43.261   2.378  11.489  0.00  0.00    +0.000 F 
ATOM     15  C   UNL     1      44.420   4.427  11.351  0.00  0.00    +0.000 A 
ENDBRANCH   5   9
BRANCH   3  17
ATOM     16  C   UNL     1      44.891  11.261  11.544  0.00  0.00    +0.000 C 
ATOM     17  O   UNL     1      44.390  10.033  12.064  0.00  0.00    +0.000 OA
ENDBRANCH   3  17
ENDBRANCH   1   7
BRANCH   1  18
ATOM     18  C   UNL     1      49.073   8.423  14.007  0.00  0.00    +0.000 C 
BRANCH  18  19
ATOM     19  N   UNL     1      49.932   7.402  14.600  0.00  0.00    +0.000 N 
ATOM     20  C   UNL     1      49.317   6.438  15.393  0.00  0.00    +0.000 A 
ATOM     21  C   UNL     1      48.063   5.877  15.123  0.00  0.00    +0.000 A 
ATOM     22  N   UNL     1      47.475   4.909  15.873  0.00  0.00    +0.000 NA
ATOM     23  C   UNL     1      48.224   4.484  16.922  0.00  0.00    +0.000 A 
ATOM     24  C   UNL     1      49.475   5.011  17.202  0.00  0.00    +0.000 A 
ATOM     25  N   UNL     1      50.037   6.001  16.452  0.00  0.00    +0.000 NA
ATOM     26  H   UNL     1      50.731   7.740  15.132  0.00  0.00    +0.000 HD
BRANCH  23  27
ATOM     27  C   UNL     1      47.648   3.411  17.778  0.00  0.00    +0.000 C 
ATOM     28  N   UNL     1      48.363   3.117  18.910  0.00  0.00    +0.000 N 
ATOM     29  O   UNL     1      46.612   2.831  17.495  0.00  0.00    +0.000 OA
ATOM     30  H   UNL     1      49.217   3.623  19.116  0.00  0.00    +0.000 HD
ATOM     31  H   UNL     1      48.028   2.403  19.542  0.00  0.00    +0.000 HD
ENDBRANCH  23  27
ENDBRANCH  18  19
ENDBRANCH   1  18
TORSDOF 6
ENDMDL
MODEL 5
REMARK VINA RESULT:    -6.977      4.757      8.530
REMARK INTER + INTRA:         -10.483
REMARK INTER:                  -9.745
REMARK INTRA:                  -0.738
REMARK UNBOUND:                -1.058
REMARK  Name = 
REMARK  8 active torsions:
REMARK  status: ('A' for Active; 'I' for Inactive)
REMARK    1  A    between atoms: C_1  and  O_2
REMARK    2  A    between atoms: O_2  and  C_3
REMARK    3  A    between atoms: C_5  and  C_6
REMARK    4  A    between atoms: C_14  and  C_15
REMARK    5  A    between atoms: C_15  and  C_16
REMARK    6  A    between atoms: C_15  and  C_17
REMARK    7  A    between atoms: C_17  and  N_18
REMARK    8  A    between atoms: C_22  and  C_23
REMARK                            x       y       z     vdW  Elec       q    Type
REMARK                         _______ _______ _______ _____ _____    ______ ____
ROOT
ATOM      1  C   UNL     1      48.794   7.861  12.761  0.00  0.00    +0.000 C 
ATOM      2  C   UNL     1      49.423   9.156  12.233  0.00  0.00    +0.000 C 
ENDROOT
BRANCH   1   7
ATOM      3  C   UNL     1      45.162   8.670  11.828  0.00  0.00    +0.000 A 
ATOM      4  C   UNL     1      44.753   7.465  11.252  0.00  0.00    +0.000 A 
ATOM      5  C   UNL     1      45.624   6.365  11.144  0.00  0.00    +0.000 A 
ATOM      6  C   UNL     1      46.917   6.510  11.679  0.00  0.00    +0.000 A 
ATOM      7  C   UNL     1      47.353   7.706  12.277  0.00  0.00    +0.000 A 
ATOM      8  C   UNL     1      46.458   8.781  12.343  0.00  0.00    +0.000 A 
BRANCH   5   9
ATOM      9  C   UNL     1      45.208   5.118  10.458  0.00  0.00    +0.000 A 
ATOM     10  C   UNL     1      44.488   4.107  11.128  0.00  0.00    +0.000 A 
ATOM     11  C   UNL     1      44.115   2.920  10.486  0.00  0.00    +0.000 A 
ATOM     12  C   UNL     1      44.442   2.723   9.149  0.00  0.00    +0.000 A 
ATOM     13  C   UNL     1      45.149   3.705   8.474  0.00  0.00    +0.000 A 
ATOM     14  F   UNL     1      45.469   3.520   7.187  0.00  0.00    +0.000 F 
ATOM     15  C   UNL     1      45.538   4.882   9.111  0.00  0.00    +0.000 A 
ENDBRANCH   5   9
BRANCH   3  17
ATOM     16  C   UNL     1      45.047  11.043  11.655  0.00  0.00    +0.000 C 
ATOM     17  O   UNL     1      44.401   9.803  11.928  0.00  0.00    +0.000 OA
ENDBRANCH   3  17
ENDBRANCH   1   7
BRANCH   1  18
ATOM     18  C   UNL     1      48.814   7.766  14.304  0.00  0.00    +0.000 C 
BRANCH  18  19
ATOM     19  N   UNL     1      48.172   6.557  14.813  0.00  0.00    +0.000 N 
ATOM     20  C   UNL     1      48.546   6.125  16.082  0.00  0.00    +0.000 A 
ATOM     21  C   UNL     1      48.823   6.980  17.156  0.00  0.00    +0.000 A 
ATOM     22  N   UNL     1      49.152   6.564  18.406  0.00  0.00    +0.000 NA
ATOM     23  C   UNL     1      49.165   5.215  18.559  0.00  0.00    +0.000 A 
ATOM     24  C   UNL     1      48.880   4.347  17.516  0.00  0.00    +0.000 A 
ATOM     25  N   UNL     1      48.578   4.785  16.262  0.00  0.00    +0.000 NA
ATOM     26  H   UNL     1      48.215   5.739  14.210  0.00  0.00    +0.000 HD
BRANCH  23  27
ATOM     27  C   UNL     1      49.502   4.687  19.910  0.00  0.00    +0.000 C 
ATOM     28  N   UNL     1      48.545   3.892  20.485  0.00  0.00    +0.000 N 
ATOM     29  O   UNL     1      50.556   4.942  20.470  0.00  0.00    +0.000 OA
ATOM     30  H   UNL     1      47.683   3.697  19.987  0.00  0.00    +0.000 HD
ATOM     31  H   UNL     1      48.708   3.494  21.399  0.00  0.00    +0.000 HD
ENDBRANCH  23  27
ENDBRANCH  18  19
ENDBRANCH   1  18
TORSDOF 6
ENDMDL
MODEL 6
REMARK VINA RESULT:    -6.487      4.013      7.564
REMARK INTER + INTRA:          -9.820
REMARK INTER:                  -9.395
REMARK INTRA:                  -0.425
REMARK UNBOUND:                -1.058
REMARK  Name = 
REMARK  8 active torsions:
REMARK  status: ('A' for Active; 'I' for Inactive)
REMARK    1  A    between atoms: C_1  and  O_2
REMARK    2  A    between atoms: O_2  and  C_3
REMARK    3  A    between atoms: C_5  and  C_6
REMARK    4  A    between atoms: C_14  and  C_15
REMARK    5  A    between atoms: C_15  and  C_16
REMARK    6  A    between atoms: C_15  and  C_17
REMARK    7  A    between atoms: C_17  and  N_18
REMARK    8  A    between atoms: C_22  and  C_23
REMARK                            x       y       z     vdW  Elec       q    Type
REMARK                         _______ _______ _______ _____ _____    ______ ____
ROOT
ATOM      1  C   UNL     1      46.058   7.029  11.222  0.00  0.00    +0.000 C 
ATOM      2  C   UNL     1      44.878   7.991  11.404  0.00  0.00    +0.000 C 
ENDROOT
BRANCH   1   7
ATOM      3  C   UNL     1      44.056   3.758  11.142  0.00  0.00    +0.000 A 
ATOM      4  C   UNL     1      44.604   3.129  10.022  0.00  0.00    +0.000 A 
ATOM      5  C   UNL     1      45.624   3.732   9.263  0.00  0.00    +0.000 A 
ATOM      6  C   UNL     1      46.104   4.980   9.700  0.00  0.00    +0.000 A 
ATOM      7  C   UNL     1      45.582   5.631  10.832  0.00  0.00    +0.000 A 
ATOM      8  C   UNL     1      44.552   5.002  11.544  0.00  0.00    +0.000 A 
BRANCH   5   9
ATOM      9  C   UNL     1      46.143   3.095   8.028  0.00  0.00    +0.000 A 
ATOM     10  C   UNL     1      46.407   3.843   6.862  0.00  0.00    +0.000 A 
ATOM     11  C   UNL     1      46.875   3.238   5.689  0.00  0.00    +0.000 A 
ATOM     12  C   UNL     1      47.106   1.867   5.661  0.00  0.00    +0.000 A 
ATOM     13  C   UNL     1      46.853   1.115   6.798  0.00  0.00    +0.000 A 
ATOM     14  F   UNL     1      47.071  -0.206   6.777  0.00  0.00    +0.000 F 
ATOM     15  C   UNL     1      46.371   1.709   7.963  0.00  0.00    +0.000 A 
ENDBRANCH   5   9
BRANCH   3  17
ATOM     16  C   UNL     1      43.024   3.628  13.286  0.00  0.00    +0.000 C 
ATOM     17  O   UNL     1      43.031   3.270  11.907  0.00  0.00    +0.000 OA
ENDBRANCH   3  17
ENDBRANCH   1   7
BRANCH   1  18
ATOM     18  C   UNL     1      46.945   6.917  12.484  0.00  0.00    +0.000 C 
BRANCH  18  19
ATOM     19  N   UNL     1      46.309   6.175  13.569  0.00  0.00    +0.000 N 
ATOM     20  C   UNL     1      47.145   5.588  14.514  0.00  0.00    +0.000 A 
ATOM     21  C   UNL     1      48.325   6.170  14.992  0.00  0.00    +0.000 A 
ATOM     22  N   UNL     1      49.126   5.619  15.940  0.00  0.00    +0.000 NA
ATOM     23  C   UNL     1      48.673   4.438  16.435  0.00  0.00    +0.000 A 
ATOM     24  C   UNL     1      47.500   3.849  15.990  0.00  0.00    +0.000 A 
ATOM     25  N   UNL     1      46.724   4.406  15.018  0.00  0.00    +0.000 NA
ATOM     26  H   UNL     1      45.644   5.457  13.292  0.00  0.00    +0.000 HD
BRANCH  23  27
ATOM     27  C   UNL     1      49.493   3.784  17.492  0.00  0.00    +0.000 C 
ATOM     28  N   UNL     1      48.818   3.455  18.639  0.00  0.00    +0.000 N 
ATOM     29  O   UNL     1      50.683   3.555  17.350  0.00  0.00    +0.000 OA
ATOM     30  H   UNL     1      47.827   3.656  18.718  0.00  0.00    +0.000 HD
ATOM     31  H   UNL     1      49.310   3.003  19.396  0.00  0.00    +0.000 HD
ENDBRANCH  23  27
ENDBRANCH  18  19
ENDBRANCH   1  18
TORSDOF 6
ENDMDL
MODEL 7
REMARK VINA RESULT:    -6.259      3.790      6.447
REMARK INTER + INTRA:          -9.513
REMARK INTER:                  -8.576
REMARK INTRA:                  -0.937
REMARK UNBOUND:                -1.058
REMARK  Name = 
REMARK  8 active torsions:
REMARK  status: ('A' for Active; 'I' for Inactive)
REMARK    1  A    between atoms: C_1  and  O_2
REMARK    2  A    between atoms: O_2  and  C_3
REMARK    3  A    between atoms: C_5  and  C_6
REMARK    4  A    between atoms: C_14  and  C_15
REMARK    5  A    between atoms: C_15  and  C_16
REMARK    6  A    between atoms: C_15  and  C_17
REMARK    7  A    between atoms: C_17  and  N_18
REMARK    8  A    between atoms: C_22  and  C_23
REMARK                            x       y       z     vdW  Elec       q    Type
REMARK                         _______ _______ _______ _____ _____    ______ ____
ROOT
ATOM      1  C   UNL     1      48.566   8.271  12.939  0.00  0.00    +0.000 C 
ATOM      2  C   UNL     1      49.024   7.734  11.578  0.00  0.00    +0.000 C 
ENDROOT
BRANCH   1   7
ATOM      3  C   UNL     1      51.574   8.006  15.304  0.00  0.00    +0.000 A 
ATOM      4  C   UNL     1      51.123   7.048  16.215  0.00  0.00    +0.000 A 
ATOM      5  C   UNL     1      49.848   6.464  16.100  0.00  0.00    +0.000 A 
ATOM      6  C   UNL     1      49.056   6.850  15.003  0.00  0.00    +0.000 A 
ATOM      7  C   UNL     1      49.489   7.802  14.062  0.00  0.00    +0.000 A 
ATOM      8  C   UNL     1      50.757   8.373  14.230  0.00  0.00    +0.000 A 
BRANCH   5   9
ATOM      9  C   UNL     1      49.344   5.508  17.116  0.00  0.00    +0.000 A 
ATOM     10  C   UNL     1      49.859   5.482  18.429  0.00  0.00    +0.000 A 
ATOM     11  C   UNL     1      49.400   4.565  19.382  0.00  0.00    +0.000 A 
ATOM     12  C   UNL     1      48.400   3.659  19.046  0.00  0.00    +0.000 A 
ATOM     13  C   UNL     1      47.881   3.671  17.760  0.00  0.00    +0.000 A 
ATOM     14  F   UNL     1      46.919   2.799  17.430  0.00  0.00    +0.000 F 
ATOM     15  C   UNL     1      48.346   4.569  16.803  0.00  0.00    +0.000 A 
ENDBRANCH   5   9
BRANCH   3  17
ATOM     16  C   UNL     1      53.054   9.385  16.564  0.00  0.00    +0.000 C 
ATOM     17  O   UNL     1      52.774   8.662  15.369  0.00  0.00    +0.000 OA
ENDBRANCH   3  17
ENDBRANCH   1   7
BRANCH   1  18
ATOM     18  C   UNL     1      47.114   7.869  13.288  0.00  0.00    +0.000 C 
BRANCH  18  19
ATOM     19  N   UNL     1      46.260   7.725  12.112  0.00  0.00    +0.000 N 
ATOM     20  C   UNL     1      45.707   6.470  11.877  0.00  0.00    +0.000 A 
ATOM     21  C   UNL     1      45.246   5.611  12.881  0.00  0.00    +0.000 A 
ATOM     22  N   UNL     1      44.673   4.400  12.656  0.00  0.00    +0.000 NA
ATOM     23  C   UNL     1      44.543   4.081  11.343  0.00  0.00    +0.000 A 
ATOM     24  C   UNL     1      44.977   4.920  10.329  0.00  0.00    +0.000 A 
ATOM     25  N   UNL     1      45.574   6.120  10.577  0.00  0.00    +0.000 NA
ATOM     26  H   UNL     1      46.659   8.031  11.227  0.00  0.00    +0.000 HD
BRANCH  23  27
ATOM     27  C   UNL     1      43.907   2.774  11.021  0.00  0.00    +0.000 C 
ATOM     28  N   UNL     1      44.446   2.106   9.952  0.00  0.00    +0.000 N 
ATOM     29  O   UNL     1      42.969   2.326  11.661  0.00  0.00    +0.000 OA
ATOM     30  H   UNL     1      45.228   2.508   9.447  0.00  0.00    +0.000 HD
ATOM     31  H   UNL     1      44.067   1.210   9.680  0.00  0.00    +0.000 HD
ENDBRANCH  23  27
ENDBRANCH  18  19
ENDBRANCH   1  18
TORSDOF 6
ENDMDL
MODEL 8
REMARK VINA RESULT:    -6.214      4.428      8.032
REMARK INTER + INTRA:          -9.451
REMARK INTER:                  -8.679
REMARK INTRA:                  -0.772
REMARK UNBOUND:                -1.058
REMARK  Name = 
REMARK  8 active torsions:
REMARK  status: ('A' for Active; 'I' for Inactive)
REMARK    1  A    between atoms: C_1  and  O_2
REMARK    2  A    between atoms: O_2  and  C_3
REMARK    3  A    between atoms: C_5  and  C_6
REMARK    4  A    between atoms: C_14  and  C_15
REMARK    5  A    between atoms: C_15  and  C_16
REMARK    6  A    between atoms: C_15  and  C_17
REMARK    7  A    between atoms: C_17  and  N_18
REMARK    8  A    between atoms: C_22  and  C_23
REMARK                            x       y       z     vdW  Elec       q    Type
REMARK                         _______ _______ _______ _____ _____    ______ ____
ROOT
ATOM      1  C   UNL     1      45.629   6.716  10.726  0.00  0.00    +0.000 C 
ATOM      2  C   UNL     1      44.456   7.356  11.476  0.00  0.00    +0.000 C 
ENDROOT
BRANCH   1   7
ATOM      3  C   UNL     1      44.058   3.216  10.722  0.00  0.00    +0.000 A 
ATOM      4  C   UNL     1      44.677   2.639   9.611  0.00  0.00    +0.000 A 
ATOM      5  C   UNL     1      45.609   3.351   8.833  0.00  0.00    +0.000 A 
ATOM      6  C   UNL     1      45.929   4.659   9.243  0.00  0.00    +0.000 A 
ATOM      7  C   UNL     1      45.333   5.261  10.365  0.00  0.00    +0.000 A 
ATOM      8  C   UNL     1      44.394   4.521  11.096  0.00  0.00    +0.000 A 
BRANCH   5   9
ATOM      9  C   UNL     1      46.200   2.761   7.608  0.00  0.00    +0.000 A 
ATOM     10  C   UNL     1      46.508   3.548   6.479  0.00  0.00    +0.000 A 
ATOM     11  C   UNL     1      47.044   2.987   5.314  0.00  0.00    +0.000 A 
ATOM     12  C   UNL     1      47.301   1.621   5.257  0.00  0.00    +0.000 A 
ATOM     13  C   UNL     1      47.007   0.831   6.358  0.00  0.00    +0.000 A 
ATOM     14  F   UNL     1      47.250  -0.484   6.309  0.00  0.00    +0.000 F 
ATOM     15  C   UNL     1      46.457   1.381   7.514  0.00  0.00    +0.000 A 
ENDBRANCH   5   9
BRANCH   3  17
ATOM     16  C   UNL     1      43.249   2.748  12.913  0.00  0.00    +0.000 C 
ATOM     17  O   UNL     1      43.105   2.618  11.502  0.00  0.00    +0.000 OA
ENDBRANCH   3  17
ENDBRANCH   1   7
BRANCH   1  18
ATOM     18  C   UNL     1      46.955   6.770  11.521  0.00  0.00    +0.000 C 
BRANCH  18  19
ATOM     19  N   UNL     1      46.847   6.191  12.857  0.00  0.00    +0.000 N 
ATOM     20  C   UNL     1      47.717   6.673  13.830  0.00  0.00    +0.000 A 
ATOM     21  C   UNL     1      48.108   8.012  13.945  0.00  0.00    +0.000 A 
ATOM     22  N   UNL     1      48.927   8.494  14.915  0.00  0.00    +0.000 NA
ATOM     23  C   UNL     1      49.332   7.564  15.817  0.00  0.00    +0.000 A 
ATOM     24  C   UNL     1      48.947   6.235  15.735  0.00  0.00    +0.000 A 
ATOM     25  N   UNL     1      48.145   5.765  14.738  0.00  0.00    +0.000 NA
ATOM     26  H   UNL     1      46.893   5.176  12.911  0.00  0.00    +0.000 HD
BRANCH  23  27
ATOM     27  C   UNL     1      50.219   8.025  16.920  0.00  0.00    +0.000 C 
ATOM     28  N   UNL     1      51.010   7.057  17.481  0.00  0.00    +0.000 N 
ATOM     29  O   UNL     1      50.244   9.185  17.300  0.00  0.00    +0.000 OA
ATOM     30  H   UNL     1      50.966   6.104  17.136  0.00  0.00    +0.000 HD
ATOM     31  H   UNL     1      51.641   7.300  18.231  0.00  0.00    +0.000 HD
ENDBRANCH  23  27
ENDBRANCH  18  19
ENDBRANCH   1  18
TORSDOF 6
ENDMDL
MODEL 9
REMARK VINA RESULT:    -5.961      4.949      8.195
REMARK INTER + INTRA:          -9.110
REMARK INTER:                  -7.779
REMARK INTRA:                  -1.332
REMARK UNBOUND:                -1.058
REMARK  Name = 
REMARK  8 active torsions:
REMARK  status: ('A' for Active; 'I' for Inactive)
REMARK    1  A    between atoms: C_1  and  O_2
REMARK    2  A    between atoms: O_2  and  C_3
REMARK    3  A    between atoms: C_5  and  C_6
REMARK    4  A    between atoms: C_14  and  C_15
REMARK    5  A    between atoms: C_15  and  C_16
REMARK    6  A    between atoms: C_15  and  C_17
REMARK    7  A    between atoms: C_17  and  N_18
REMARK    8  A    between atoms: C_22  and  C_23
REMARK                            x       y       z     vdW  Elec       q    Type
REMARK                         _______ _______ _______ _____ _____    ______ ____
ROOT
ATOM      1  C   UNL     1      49.790   9.668  16.240  0.00  0.00    +0.000 C 
ATOM      2  C   UNL     1      48.383   9.923  16.792  0.00  0.00    +0.000 C 
ENDROOT
BRANCH   1   7
ATOM      3  C   UNL     1      50.787   8.425  12.750  0.00  0.00    +0.000 A 
ATOM      4  C   UNL     1      49.706   7.597  12.435  0.00  0.00    +0.000 A 
ATOM      5  C   UNL     1      48.634   7.413  13.327  0.00  0.00    +0.000 A 
ATOM      6  C   UNL     1      48.669   8.130  14.537  0.00  0.00    +0.000 A 
ATOM      7  C   UNL     1      49.736   8.981  14.876  0.00  0.00    +0.000 A 
ATOM      8  C   UNL     1      50.793   9.116  13.966  0.00  0.00    +0.000 A 
BRANCH   5   9
ATOM      9  C   UNL     1      47.531   6.471  13.020  0.00  0.00    +0.000 A 
ATOM     10  C   UNL     1      47.151   5.455  13.921  0.00  0.00    +0.000 A 
ATOM     11  C   UNL     1      46.125   4.550  13.622  0.00  0.00    +0.000 A 
ATOM     12  C   UNL     1      45.442   4.652  12.415  0.00  0.00    +0.000 A 
ATOM     13  C   UNL     1      45.800   5.646  11.517  0.00  0.00    +0.000 A 
ATOM     14  F   UNL     1      45.147   5.748  10.352  0.00  0.00    +0.000 F 
ATOM     15  C   UNL     1      46.832   6.538  11.802  0.00  0.00    +0.000 A 
ENDBRANCH   5   9
BRANCH   3  17
ATOM     16  C   UNL     1      51.943   9.826  11.209  0.00  0.00    +0.000 C 
ATOM     17  O   UNL     1      51.893   8.621  11.968  0.00  0.00    +0.000 OA
ENDBRANCH   3  17
ENDBRANCH   1   7
BRANCH   1  18
ATOM     18  C   UNL     1      50.666   8.819  17.190  0.00  0.00    +0.000 C 
BRANCH  18  19
ATOM     19  N   UNL     1      49.894   8.127  18.218  0.00  0.00    +0.000 N 
ATOM     20  C   UNL     1      49.378   6.876  17.893  0.00  0.00    +0.000 A 
ATOM     21  C   UNL     1      50.048   5.927  17.112  0.00  0.00    +0.000 A 
ATOM     22  N   UNL     1      49.566   4.691  16.821  0.00  0.00    +0.000 NA
ATOM     23  C   UNL     1      48.362   4.415  17.385  0.00  0.00    +0.000 A 
ATOM     24  C   UNL     1      47.686   5.332  18.175  0.00  0.00    +0.000 A 
ATOM     25  N   UNL     1      48.175   6.577  18.433  0.00  0.00    +0.000 NA
ATOM     26  H   UNL     1      49.127   8.652  18.632  0.00  0.00    +0.000 HD
BRANCH  23  27
ATOM     27  C   UNL     1      47.780   3.070  17.123  0.00  0.00    +0.000 C 
ATOM     28  N   UNL     1      48.594   2.201  16.444  0.00  0.00    +0.000 N 
ATOM     29  O   UNL     1      46.657   2.760  17.486  0.00  0.00    +0.000 OA
ATOM     30  H   UNL     1      49.523   2.492  16.163  0.00  0.00    +0.000 HD
ATOM     31  H   UNL     1      48.266   1.268  16.236  0.00  0.00    +0.000 HD
ENDBRANCH  23  27
ENDBRANCH  18  19
ENDBRANCH   1  18
TORSDOF 6
ENDMDL
