MODEL 1
REMARK VINA RESULT:    -7.838      0.000      0.000
REMARK INTER + INTRA:         -11.793
REMARK INTER:                 -10.587
REMARK INTRA:                  -1.206
REMARK UNBOUND:                -1.206
REMARK  Name = 
REMARK  6 active torsions:
REMARK  status: ('A' for Active; 'I' for Inactive)
REMARK    1  A    between atoms: C_2  and  C_4
REMARK    2  A    between atoms: C_8  and  C_9
REMARK    3  A    between atoms: C_9  and  C_10
REMARK    4  A    between atoms: C_13  and  C_14
REMARK    5  A    between atoms: C_14  and  N_15
REMARK    6  A    between atoms: C_16  and  C_18
REMARK                            x       y       z     vdW  Elec       q    Type
REMARK                         _______ _______ _______ _____ _____    ______ ____
ROOT
ATOM      1  C   UNL     1      44.754   6.063  11.123  0.00  0.00    +0.000 A 
ATOM      2  C   UNL     1      45.918   5.458  11.618  0.00  0.00    +0.000 A 
ATOM      3  C   UNL     1      46.817   6.177  12.416  0.00  0.00    +0.000 A 
ATOM      4  C   UNL     1      46.565   7.515  12.745  0.00  0.00    +0.000 A 
ATOM      5  C   UNL     1      45.426   8.133  12.212  0.00  0.00    +0.000 A 
ATOM      6  C   UNL     1      44.525   7.414  11.418  0.00  0.00    +0.000 A 
ENDROOT
BRANCH   1   7
ATOM      7  C   UNL     1      43.742   5.264  10.329  0.00  0.00    +0.000 C 
BRANCH   7  12
ATOM      8  C   UNL     1      45.876   3.160   7.956  0.00  0.00    +0.000 A 
ATOM      9  C   UNL     1      45.633   1.867   8.430  0.00  0.00    +0.000 A 
ATOM     10  C   UNL     1      44.732   1.669   9.479  0.00  0.00    +0.000 A 
ATOM     11  C   UNL     1      44.093   2.761  10.073  0.00  0.00    +0.000 A 
ATOM     12  C   UNL     1      44.347   4.066   9.628  0.00  0.00    +0.000 A 
ATOM     13  C   UNL     1      45.234   4.251   8.557  0.00  0.00    +0.000 A 
BRANCH   8  15
ATOM     14  N   UNL     1      48.011   2.717   6.859  0.00  0.00    +0.000 N 
ATOM     15  C   UNL     1      46.845   3.432   6.862  0.00  0.00    +0.000 C 
ATOM     16  O   UNL     1      46.604   4.239   5.975  0.00  0.00    +0.000 OA
ATOM     17  H   UNL     1      48.611   2.850   6.055  0.00  0.00    +0.000 HD
ATOM     18  H   UNL     1      48.138   1.880   7.408  0.00  0.00    +0.000 HD
ENDBRANCH   8  15
ENDBRANCH   7  12
ENDBRANCH   1   7
BRANCH   4  19
ATOM     19  C   UNL     1      47.498   8.285  13.644  0.00  0.00    +0.000 C 
BRANCH  19  20
ATOM     20  N   UNL     1      47.813   7.541  14.838  0.00  0.00    +0.000 N 
ATOM     21  C   UNL     1      49.092   7.125  15.108  0.00  0.00    +0.000 C 
ATOM     22  O   UNL     1      50.038   7.398  14.374  0.00  0.00    +0.000 OA
ATOM     23  H   UNL     1      47.034   7.094  15.312  0.00  0.00    +0.000 HD
BRANCH  21  24
ATOM     24  C   UNL     1      49.281   6.390  16.365  0.00  0.00    +0.000 A 
ATOM     25  C   UNL     1      50.158   6.878  17.325  0.00  0.00    +0.000 A 
ATOM     26  S   UNL     1      50.197   5.943  18.753  0.00  0.00    +0.000 S 
ATOM     27  C   UNL     1      49.088   4.822  18.114  0.00  0.00    +0.000 A 
ATOM     28  N   UNL     1      48.695   3.737  18.834  0.00  0.00    +0.000 NA
ATOM     29  C   UNL     1      47.874   2.955  18.215  0.00  0.00    +0.000 A 
ATOM     30  N   UNL     1      47.410   3.161  16.942  0.00  0.00    +0.000 N 
ATOM     31  C   UNL     1      47.760   4.254  16.185  0.00  0.00    +0.000 A 
ATOM     32  O   UNL     1      47.302   4.421  15.062  0.00  0.00    +0.000 OA
ATOM     33  C   UNL     1      48.684   5.165  16.836  0.00  0.00    +0.000 A 
ATOM     34  H   UNL     1      46.767   2.511  16.513  0.00  0.00    +0.000 HD
ENDBRANCH  21  24
ENDBRANCH  19  20
ENDBRANCH   4  19
TORSDOF 6
ENDMDL
MODEL 2
REMARK VINA RESULT:    -7.624      3.548      8.436
REMARK INTER + INTRA:         -11.504
REMARK INTER:                 -10.300
REMARK INTRA:                  -1.204
REMARK UNBOUND:                -1.206
REMARK  Name = 
REMARK  6 active torsions:
REMARK  status: ('A' for Active; 'I' for Inactive)
REMARK    1  A    between atoms: C_2  and  C_4
REMARK    2  A    between atoms: C_8  and  C_9
REMARK    3  A    between atoms: C_9  and  C_10
REMARK    4  A    between atoms: C_13  and  C_14
REMARK    5  A    between atoms: C_14  and  N_15
REMARK    6  A    between atoms: C_16  and  C_18
REMARK                            x       y       z     vdW  Elec       q    Type
REMARK                         _______ _______ _______ _____ _____    ______ ____
ROOT
ATOM      1  C   UNL     1      49.758   6.680  16.427  0.00  0.00    +0.000 A 
ATOM      2  C   UNL     1      50.592   7.443  15.597  0.00  0.00    +0.000 A 
ATOM      3  C   UNL     1      50.202   7.767  14.292  0.00  0.00    +0.000 A 
ATOM      4  C   UNL     1      48.964   7.345  13.792  0.00  0.00    +0.000 A 
ATOM      5  C   UNL     1      48.152   6.543  14.604  0.00  0.00    +0.000 A 
ATOM      6  C   UNL     1      48.538   6.222  15.910  0.00  0.00    +0.000 A 
ENDROOT
BRANCH   1   7
ATOM      7  C   UNL     1      50.142   6.398  17.864  0.00  0.00    +0.000 C 
BRANCH   7  12
ATOM      8  C   UNL     1      51.625   2.878  17.705  0.00  0.00    +0.000 A 
ATOM      9  C   UNL     1      52.953   3.115  18.077  0.00  0.00    +0.000 A 
ATOM     10  C   UNL     1      53.355   4.403  18.437  0.00  0.00    +0.000 A 
ATOM     11  C   UNL     1      52.441   5.460  18.403  0.00  0.00    +0.000 A 
ATOM     12  C   UNL     1      51.115   5.245  18.005  0.00  0.00    +0.000 A 
ATOM     13  C   UNL     1      50.714   3.942  17.670  0.00  0.00    +0.000 A 
BRANCH   8  15
ATOM     14  N   UNL     1      51.641   0.450  17.961  0.00  0.00    +0.000 N 
ATOM     15  C   UNL     1      51.149   1.534  17.286  0.00  0.00    +0.000 C 
ATOM     16  O   UNL     1      50.323   1.393  16.394  0.00  0.00    +0.000 OA
ATOM     17  H   UNL     1      51.233  -0.444  17.722  0.00  0.00    +0.000 HD
ATOM     18  H   UNL     1      52.114   0.532  18.848  0.00  0.00    +0.000 HD
ENDBRANCH   8  15
ENDBRANCH   7  12
ENDBRANCH   1   7
BRANCH   4  19
ATOM     19  C   UNL     1      48.511   7.730  12.406  0.00  0.00    +0.000 C 
BRANCH  19  20
ATOM     20  N   UNL     1      47.733   6.682  11.795  0.00  0.00    +0.000 N 
ATOM     21  C   UNL     1      46.399   6.844  11.521  0.00  0.00    +0.000 C 
ATOM     22  O   UNL     1      45.809   7.898  11.741  0.00  0.00    +0.000 OA
ATOM     23  H   UNL     1      48.121   5.745  11.842  0.00  0.00    +0.000 HD
BRANCH  21  24
ATOM     24  C   UNL     1      45.727   5.706  10.883  0.00  0.00    +0.000 A 
ATOM     25  C   UNL     1      45.844   5.514   9.512  0.00  0.00    +0.000 A 
ATOM     26  S   UNL     1      45.065   4.103   8.951  0.00  0.00    +0.000 S 
ATOM     27  C   UNL     1      44.496   3.731  10.511  0.00  0.00    +0.000 A 
ATOM     28  N   UNL     1      43.729   2.630  10.733  0.00  0.00    +0.000 NA
ATOM     29  C   UNL     1      43.342   2.487  11.957  0.00  0.00    +0.000 A 
ATOM     30  N   UNL     1      43.655   3.344  12.979  0.00  0.00    +0.000 N 
ATOM     31  C   UNL     1      44.447   4.455  12.808  0.00  0.00    +0.000 A 
ATOM     32  O   UNL     1      44.731   5.182  13.751  0.00  0.00    +0.000 OA
ATOM     33  C   UNL     1      44.907   4.663  11.447  0.00  0.00    +0.000 A 
ATOM     34  H   UNL     1      43.322   3.175  13.917  0.00  0.00    +0.000 HD
ENDBRANCH  21  24
ENDBRANCH  19  20
ENDBRANCH   4  19
TORSDOF 6
ENDMDL
MODEL 3
REMARK VINA RESULT:    -7.509      1.620      2.050
REMARK INTER + INTRA:         -11.349
REMARK INTER:                 -10.266
REMARK INTRA:                  -1.083
REMARK UNBOUND:                -1.206
REMARK  Name = 
REMARK  6 active torsions:
REMARK  status: ('A' for Active; 'I' for Inactive)
REMARK    1  A    between atoms: C_2  and  C_4
REMARK    2  A    between atoms: C_8  and  C_9
REMARK    3  A    between atoms: C_9  and  C_10
REMARK    4  A    between atoms: C_13  and  C_14
REMARK    5  A    between atoms: C_14  and  N_15
REMARK    6  A    between atoms: C_16  and  C_18
REMARK                            x       y       z     vdW  Elec       q    Type
REMARK                         _______ _______ _______ _____ _____    ______ ____
ROOT
ATOM      1  C   UNL     1      45.271   5.708  11.667  0.00  0.00    +0.000 A 
ATOM      2  C   UNL     1      45.837   6.975  11.465  0.00  0.00    +0.000 A 
ATOM      3  C   UNL     1      46.934   7.401  12.225  0.00  0.00    +0.000 A 
ATOM      4  C   UNL     1      47.496   6.563  13.196  0.00  0.00    +0.000 A 
ATOM      5  C   UNL     1      46.902   5.316  13.430  0.00  0.00    +0.000 A 
ATOM      6  C   UNL     1      45.809   4.889  12.669  0.00  0.00    +0.000 A 
ENDROOT
BRANCH   1   7
ATOM      7  C   UNL     1      44.138   5.216  10.791  0.00  0.00    +0.000 C 
BRANCH   7  12
ATOM      8  C   UNL     1      45.853   3.181   8.047  0.00  0.00    +0.000 A 
ATOM      9  C   UNL     1      45.433   1.883   8.355  0.00  0.00    +0.000 A 
ATOM     10  C   UNL     1      44.547   1.672   9.414  0.00  0.00    +0.000 A 
ATOM     11  C   UNL     1      44.100   2.750  10.182  0.00  0.00    +0.000 A 
ATOM     12  C   UNL     1      44.533   4.053   9.904  0.00  0.00    +0.000 A 
ATOM     13  C   UNL     1      45.403   4.258   8.822  0.00  0.00    +0.000 A 
BRANCH   8  15
ATOM     14  N   UNL     1      47.946   2.692   6.889  0.00  0.00    +0.000 N 
ATOM     15  C   UNL     1      46.816   3.461   6.950  0.00  0.00    +0.000 C 
ATOM     16  O   UNL     1      46.600   4.323   6.108  0.00  0.00    +0.000 OA
ATOM     17  H   UNL     1      48.538   2.837   6.081  0.00  0.00    +0.000 HD
ATOM     18  H   UNL     1      48.041   1.824   7.394  0.00  0.00    +0.000 HD
ENDBRANCH   8  15
ENDBRANCH   7  12
ENDBRANCH   1   7
BRANCH   4  19
ATOM     19  C   UNL     1      48.708   6.989  13.985  0.00  0.00    +0.000 C 
BRANCH  19  20
ATOM     20  N   UNL     1      48.403   7.127  15.387  0.00  0.00    +0.000 N 
ATOM     21  C   UNL     1      49.271   6.692  16.356  0.00  0.00    +0.000 C 
ATOM     22  O   UNL     1      50.364   6.205  16.085  0.00  0.00    +0.000 OA
ATOM     23  H   UNL     1      47.428   7.282  15.625  0.00  0.00    +0.000 HD
BRANCH  21  24
ATOM     24  C   UNL     1      48.848   6.906  17.746  0.00  0.00    +0.000 A 
ATOM     25  C   UNL     1      48.536   8.187  18.183  0.00  0.00    +0.000 A 
ATOM     26  S   UNL     1      47.990   8.242  19.800  0.00  0.00    +0.000 S 
ATOM     27  C   UNL     1      48.207   6.565  19.988  0.00  0.00    +0.000 A 
ATOM     28  N   UNL     1      47.934   5.952  21.171  0.00  0.00    +0.000 NA
ATOM     29  C   UNL     1      48.174   4.683  21.181  0.00  0.00    +0.000 A 
ATOM     30  N   UNL     1      48.660   3.972  20.115  0.00  0.00    +0.000 N 
ATOM     31  C   UNL     1      48.927   4.543  18.893  0.00  0.00    +0.000 A 
ATOM     32  O   UNL     1      49.332   3.871  17.954  0.00  0.00    +0.000 OA
ATOM     33  C   UNL     1      48.676   5.971  18.830  0.00  0.00    +0.000 A 
ATOM     34  H   UNL     1      48.825   2.978  20.187  0.00  0.00    +0.000 HD
ENDBRANCH  21  24
ENDBRANCH  19  20
ENDBRANCH   4  19
TORSDOF 6
ENDMDL
MODEL 4
REMARK VINA RESULT:    -7.133      2.698      8.398
REMARK INTER + INTRA:         -10.840
REMARK INTER:                  -9.553
REMARK INTRA:                  -1.288
REMARK UNBOUND:                -1.206
REMARK  Name = 
REMARK  6 active torsions:
REMARK  status: ('A' for Active; 'I' for Inactive)
REMARK    1  A    between atoms: C_2  and  C_4
REMARK    2  A    between atoms: C_8  and  C_9
REMARK    3  A    between atoms: C_9  and  C_10
REMARK    4  A    between atoms: C_13  and  C_14
REMARK    5  A    between atoms: C_14  and  N_15
REMARK    6  A    between atoms: C_16  and  C_18
REMARK                            x       y       z     vdW  Elec       q    Type
REMARK                         _______ _______ _______ _____ _____    ______ ____
ROOT
ATOM      1  C   UNL     1      49.458   8.099  15.807  0.00  0.00    +0.000 A 
ATOM      2  C   UNL     1      48.203   8.666  15.545  0.00  0.00    +0.000 A 
ATOM      3  C   UNL     1      47.646   8.614  14.261  0.00  0.00    +0.000 A 
ATOM      4  C   UNL     1      48.328   7.982  13.214  0.00  0.00    +0.000 A 
ATOM      5  C   UNL     1      49.602   7.457  13.464  0.00  0.00    +0.000 A 
ATOM      6  C   UNL     1      50.158   7.505  14.747  0.00  0.00    +0.000 A 
ENDROOT
BRANCH   1   7
ATOM      7  C   UNL     1      50.025   8.084  17.211  0.00  0.00    +0.000 C 
BRANCH   7  12
ATOM      8  C   UNL     1      48.801   4.548  17.997  0.00  0.00    +0.000 A 
ATOM      9  C   UNL     1      49.191   4.406  19.333  0.00  0.00    +0.000 A 
ATOM     10  C   UNL     1      49.796   5.475  19.998  0.00  0.00    +0.000 A 
ATOM     11  C   UNL     1      50.036   6.676  19.326  0.00  0.00    +0.000 A 
ATOM     12  C   UNL     1      49.677   6.825  17.979  0.00  0.00    +0.000 A 
ATOM     13  C   UNL     1      49.046   5.755  17.327  0.00  0.00    +0.000 A 
BRANCH   8  15
ATOM     14  N   UNL     1      46.833   3.243  17.380  0.00  0.00    +0.000 N 
ATOM     15  C   UNL     1      48.179   3.436  17.232  0.00  0.00    +0.000 C 
ATOM     16  O   UNL     1      48.831   2.735  16.470  0.00  0.00    +0.000 OA
ATOM     17  H   UNL     1      46.416   2.543  16.780  0.00  0.00    +0.000 HD
ATOM     18  H   UNL     1      46.225   3.938  17.787  0.00  0.00    +0.000 HD
ENDBRANCH   8  15
ENDBRANCH   7  12
ENDBRANCH   1   7
BRANCH   4  19
ATOM     19  C   UNL     1      47.716   7.874  11.839  0.00  0.00    +0.000 C 
BRANCH  19  20
ATOM     20  N   UNL     1      47.005   6.631  11.675  0.00  0.00    +0.000 N 
ATOM     21  C   UNL     1      45.642   6.562  11.804  0.00  0.00    +0.000 C 
ATOM     22  O   UNL     1      44.954   7.555  12.023  0.00  0.00    +0.000 OA
ATOM     23  H   UNL     1      47.556   5.781  11.750  0.00  0.00    +0.000 HD
BRANCH  21  24
ATOM     24  C   UNL     1      45.038   5.239  11.596  0.00  0.00    +0.000 A 
ATOM     25  C   UNL     1      44.372   4.612  12.641  0.00  0.00    +0.000 A 
ATOM     26  S   UNL     1      43.667   3.121  12.203  0.00  0.00    +0.000 S 
ATOM     27  C   UNL     1      44.278   3.234  10.619  0.00  0.00    +0.000 A 
ATOM     28  N   UNL     1      44.048   2.251   9.708  0.00  0.00    +0.000 NA
ATOM     29  C   UNL     1      44.596   2.453   8.556  0.00  0.00    +0.000 A 
ATOM     30  N   UNL     1      45.352   3.550   8.233  0.00  0.00    +0.000 N 
ATOM     31  C   UNL     1      45.590   4.580   9.112  0.00  0.00    +0.000 A 
ATOM     32  O   UNL     1      46.245   5.559   8.779  0.00  0.00    +0.000 OA
ATOM     33  C   UNL     1      44.997   4.400  10.425  0.00  0.00    +0.000 A 
ATOM     34  H   UNL     1      45.753   3.650   7.312  0.00  0.00    +0.000 HD
ENDBRANCH  21  24
ENDBRANCH  19  20
ENDBRANCH   4  19
TORSDOF 6
ENDMDL
MODEL 5
REMARK VINA RESULT:    -7.113      3.442      7.769
REMARK INTER + INTRA:         -10.814
REMARK INTER:                  -9.163
REMARK INTRA:                  -1.651
REMARK UNBOUND:                -1.206
REMARK  Name = 
REMARK  6 active torsions:
REMARK  status: ('A' for Active; 'I' for Inactive)
REMARK    1  A    between atoms: C_2  and  C_4
REMARK    2  A    between atoms: C_8  and  C_9
REMARK    3  A    between atoms: C_9  and  C_10
REMARK    4  A    between atoms: C_13  and  C_14
REMARK    5  A    between atoms: C_14  and  N_15
REMARK    6  A    between atoms: C_16  and  C_18
REMARK                            x       y       z     vdW  Elec       q    Type
REMARK                         _______ _______ _______ _____ _____    ______ ____
ROOT
ATOM      1  C   UNL     1      50.719   7.180  17.116  0.00  0.00    +0.000 A 
ATOM      2  C   UNL     1      49.611   7.835  17.671  0.00  0.00    +0.000 A 
ATOM      3  C   UNL     1      48.740   8.579  16.866  0.00  0.00    +0.000 A 
ATOM      4  C   UNL     1      48.952   8.675  15.485  0.00  0.00    +0.000 A 
ATOM      5  C   UNL     1      50.085   8.059  14.937  0.00  0.00    +0.000 A 
ATOM      6  C   UNL     1      50.954   7.312  15.740  0.00  0.00    +0.000 A 
ENDROOT
BRANCH   1   7
ATOM      7  C   UNL     1      51.615   6.309  17.972  0.00  0.00    +0.000 C 
BRANCH   7  12
ATOM      8  C   UNL     1      49.768   3.047  17.221  0.00  0.00    +0.000 A 
ATOM      9  C   UNL     1      50.788   2.103  17.380  0.00  0.00    +0.000 A 
ATOM     10  C   UNL     1      52.059   2.514  17.789  0.00  0.00    +0.000 A 
ATOM     11  C   UNL     1      52.321   3.869  18.014  0.00  0.00    +0.000 A 
ATOM     12  C   UNL     1      51.317   4.830  17.832  0.00  0.00    +0.000 A 
ATOM     13  C   UNL     1      50.037   4.404  17.446  0.00  0.00    +0.000 A 
BRANCH   8  15
ATOM     14  N   UNL     1      47.394   2.712  17.682  0.00  0.00    +0.000 N 
ATOM     15  C   UNL     1      48.405   2.669  16.762  0.00  0.00    +0.000 C 
ATOM     16  O   UNL     1      48.180   2.363  15.599  0.00  0.00    +0.000 OA
ATOM     17  H   UNL     1      46.462   2.543  17.326  0.00  0.00    +0.000 HD
ATOM     18  H   UNL     1      47.482   3.193  18.565  0.00  0.00    +0.000 HD
ENDBRANCH   8  15
ENDBRANCH   7  12
ENDBRANCH   1   7
BRANCH   4  19
ATOM     19  C   UNL     1      47.993   9.430  14.600  0.00  0.00    +0.000 C 
BRANCH  19  20
ATOM     20  N   UNL     1      46.967   8.565  14.076  0.00  0.00    +0.000 N 
ATOM     21  C   UNL     1      47.076   7.994  12.833  0.00  0.00    +0.000 C 
ATOM     22  O   UNL     1      48.065   8.154  12.124  0.00  0.00    +0.000 OA
ATOM     23  H   UNL     1      46.055   8.625  14.518  0.00  0.00    +0.000 HD
BRANCH  21  24
ATOM     24  C   UNL     1      45.969   7.120  12.424  0.00  0.00    +0.000 A 
ATOM     25  C   UNL     1      44.873   7.658  11.763  0.00  0.00    +0.000 A 
ATOM     26  S   UNL     1      43.719   6.491  11.293  0.00  0.00    +0.000 S 
ATOM     27  C   UNL     1      44.617   5.235  12.008  0.00  0.00    +0.000 A 
ATOM     28  N   UNL     1      44.171   3.951  11.979  0.00  0.00    +0.000 NA
ATOM     29  C   UNL     1      44.937   3.107  12.586  0.00  0.00    +0.000 A 
ATOM     30  N   UNL     1      46.110   3.431  13.217  0.00  0.00    +0.000 N 
ATOM     31  C   UNL     1      46.613   4.710  13.251  0.00  0.00    +0.000 A 
ATOM     32  O   UNL     1      47.680   4.957  13.799  0.00  0.00    +0.000 OA
ATOM     33  C   UNL     1      45.787   5.699  12.584  0.00  0.00    +0.000 A 
ATOM     34  H   UNL     1      46.666   2.722  13.674  0.00  0.00    +0.000 HD
ENDBRANCH  21  24
ENDBRANCH  19  20
ENDBRANCH   4  19
TORSDOF 6
ENDMDL
MODEL 6
REMARK VINA RESULT:    -6.839      1.790      2.459
REMARK INTER + INTRA:         -10.444
REMARK INTER:                  -9.133
REMARK INTRA:                  -1.311
REMARK UNBOUND:                -1.206
REMARK  Name = 
REMARK  6 active torsions:
REMARK  status: ('A' for Active; 'I' for Inactive)
REMARK    1  A    between atoms: C_2  and  C_4
REMARK    2  A    between atoms: C_8  and  C_9
REMARK    3  A    between atoms: C_9  and  C_10
REMARK    4  A    between atoms: C_13  and  C_14
REMARK    5  A    between atoms: C_14  and  N_15
REMARK    6  A    between atoms: C_16  and  C_18
REMARK                            x       y       z     vdW  Elec       q    Type
REMARK                         _______ _______ _______ _____ _____    ______ ____
ROOT
ATOM      1  C   UNL     1      45.712   7.634  12.049  0.00  0.00    +0.000 A 
ATOM      2  C   UNL     1      46.846   6.855  11.775  0.00  0.00    +0.000 A 
ATOM      3  C   UNL     1      48.079   7.148  12.371  0.00  0.00    +0.000 A 
ATOM      4  C   UNL     1      48.202   8.221  13.263  0.00  0.00    +0.000 A 
ATOM      5  C   UNL     1      47.081   9.028  13.500  0.00  0.00    +0.000 A 
ATOM      6  C   UNL     1      45.848   8.733  12.908  0.00  0.00    +0.000 A 
ENDROOT
BRANCH   1   7
ATOM      7  C   UNL     1      44.362   7.269  11.469  0.00  0.00    +0.000 C 
BRANCH   7  12
ATOM      8  C   UNL     1      44.094   3.600  10.431  0.00  0.00    +0.000 A 
ATOM      9  C   UNL     1      43.730   2.992  11.637  0.00  0.00    +0.000 A 
ATOM     10  C   UNL     1      43.512   3.775  12.773  0.00  0.00    +0.000 A 
ATOM     11  C   UNL     1      43.682   5.161  12.714  0.00  0.00    +0.000 A 
ATOM     12  C   UNL     1      44.074   5.783  11.521  0.00  0.00    +0.000 A 
ATOM     13  C   UNL     1      44.265   4.990  10.379  0.00  0.00    +0.000 A 
BRANCH   8  15
ATOM     14  N   UNL     1      44.348   3.482   8.006  0.00  0.00    +0.000 N 
ATOM     15  C   UNL     1      44.365   2.813   9.199  0.00  0.00    +0.000 C 
ATOM     16  O   UNL     1      44.628   1.619   9.243  0.00  0.00    +0.000 OA
ATOM     17  H   UNL     1      44.627   2.948   7.193  0.00  0.00    +0.000 HD
ATOM     18  H   UNL     1      44.389   4.489   7.946  0.00  0.00    +0.000 HD
ENDBRANCH   8  15
ENDBRANCH   7  12
ENDBRANCH   1   7
BRANCH   4  19
ATOM     19  C   UNL     1      49.511   8.516  13.950  0.00  0.00    +0.000 C 
BRANCH  19  20
ATOM     20  N   UNL     1      49.577   7.894  15.249  0.00  0.00    +0.000 N 
ATOM     21  C   UNL     1      50.748   7.372  15.736  0.00  0.00    +0.000 C 
ATOM     22  O   UNL     1      51.805   7.444  15.115  0.00  0.00    +0.000 OA
ATOM     23  H   UNL     1      48.694   7.600  15.655  0.00  0.00    +0.000 HD
BRANCH  21  24
ATOM     24  C   UNL     1      50.684   6.781  17.078  0.00  0.00    +0.000 A 
ATOM     25  C   UNL     1      51.561   7.212  18.065  0.00  0.00    +0.000 A 
ATOM     26  S   UNL     1      51.296   6.477  19.583  0.00  0.00    +0.000 S 
ATOM     27  C   UNL     1      50.038   5.515  18.958  0.00  0.00    +0.000 A 
ATOM     28  N   UNL     1      49.378   4.626  19.748  0.00  0.00    +0.000 NA
ATOM     29  C   UNL     1      48.470   3.942  19.136  0.00  0.00    +0.000 A 
ATOM     30  N   UNL     1      48.161   4.068  17.807  0.00  0.00    +0.000 N 
ATOM     31  C   UNL     1      48.783   4.970  16.976  0.00  0.00    +0.000 A 
ATOM     32  O   UNL     1      48.460   5.075  15.800  0.00  0.00    +0.000 OA
ATOM     33  C   UNL     1      49.816   5.763  17.615  0.00  0.00    +0.000 A 
ATOM     34  H   UNL     1      47.436   3.503  17.387  0.00  0.00    +0.000 HD
ENDBRANCH  21  24
ENDBRANCH  19  20
ENDBRANCH   4  19
TORSDOF 6
ENDMDL
MODEL 7
REMARK VINA RESULT:    -6.404      2.953      4.222
REMARK INTER + INTRA:          -9.856
REMARK INTER:                  -8.704
REMARK INTRA:                  -1.152
REMARK UNBOUND:                -1.206
REMARK  Name = 
REMARK  6 active torsions:
REMARK  status: ('A' for Active; 'I' for Inactive)
REMARK    1  A    between atoms: C_2  and  C_4
REMARK    2  A    between atoms: C_8  and  C_9
REMARK    3  A    between atoms: C_9  and  C_10
REMARK    4  A    between atoms: C_13  and  C_14
REMARK    5  A    between atoms: C_14  and  N_15
REMARK    6  A    between atoms: C_16  and  C_18
REMARK                            x       y       z     vdW  Elec       q    Type
REMARK                         _______ _______ _______ _____ _____    ______ ____
ROOT
ATOM      1  C   UNL     1      45.092   5.233  11.100  0.00  0.00    +0.000 A 
ATOM      2  C   UNL     1      45.997   6.300  11.003  0.00  0.00    +0.000 A 
ATOM      3  C   UNL     1      46.835   6.628  12.076  0.00  0.00    +0.000 A 
ATOM      4  C   UNL     1      46.794   5.889  13.264  0.00  0.00    +0.000 A 
ATOM      5  C   UNL     1      45.858   4.853  13.377  0.00  0.00    +0.000 A 
ATOM      6  C   UNL     1      45.023   4.521  12.305  0.00  0.00    +0.000 A 
ENDROOT
BRANCH   1   7
ATOM      7  C   UNL     1      44.244   4.826   9.913  0.00  0.00    +0.000 C 
BRANCH   7  12
ATOM      8  C   UNL     1      46.316   2.789   7.429  0.00  0.00    +0.000 A 
ATOM      9  C   UNL     1      46.036   1.480   7.835  0.00  0.00    +0.000 A 
ATOM     10  C   UNL     1      45.130   1.253   8.873  0.00  0.00    +0.000 A 
ATOM     11  C   UNL     1      44.522   2.331   9.525  0.00  0.00    +0.000 A 
ATOM     12  C   UNL     1      44.814   3.649   9.149  0.00  0.00    +0.000 A 
ATOM     13  C   UNL     1      45.706   3.865   8.087  0.00  0.00    +0.000 A 
BRANCH   8  15
ATOM     14  N   UNL     1      48.562   2.600   6.490  0.00  0.00    +0.000 N 
ATOM     15  C   UNL     1      47.293   3.090   6.349  0.00  0.00    +0.000 C 
ATOM     16  O   UNL     1      46.974   3.724   5.353  0.00  0.00    +0.000 OA
ATOM     17  H   UNL     1      49.180   2.736   5.701  0.00  0.00    +0.000 HD
ATOM     18  H   UNL     1      48.794   1.874   7.152  0.00  0.00    +0.000 HD
ENDBRANCH   8  15
ENDBRANCH   7  12
ENDBRANCH   1   7
BRANCH   4  19
ATOM     19  C   UNL     1      47.727   6.200  14.408  0.00  0.00    +0.000 C 
BRANCH  19  20
ATOM     20  N   UNL     1      48.909   6.887  13.951  0.00  0.00    +0.000 N 
ATOM     21  C   UNL     1      49.180   8.178  14.329  0.00  0.00    +0.000 C 
ATOM     22  O   UNL     1      48.457   8.798  15.104  0.00  0.00    +0.000 OA
ATOM     23  H   UNL     1      49.370   6.502  13.133  0.00  0.00    +0.000 HD
BRANCH  21  24
ATOM     24  C   UNL     1      50.424   8.757  13.808  0.00  0.00    +0.000 A 
ATOM     25  C   UNL     1      50.377   9.674  12.766  0.00  0.00    +0.000 A 
ATOM     26  S   UNL     1      51.905  10.303  12.338  0.00  0.00    +0.000 S 
ATOM     27  C   UNL     1      52.689   9.328  13.492  0.00  0.00    +0.000 A 
ATOM     28  N   UNL     1      54.041   9.366  13.638  0.00  0.00    +0.000 NA
ATOM     29  C   UNL     1      54.503   8.552  14.528  0.00  0.00    +0.000 A 
ATOM     30  N   UNL     1      53.736   7.706  15.286  0.00  0.00    +0.000 N 
ATOM     31  C   UNL     1      52.366   7.651  15.191  0.00  0.00    +0.000 A 
ATOM     32  O   UNL     1      51.711   6.903  15.906  0.00  0.00    +0.000 OA
ATOM     33  C   UNL     1      51.795   8.545  14.201  0.00  0.00    +0.000 A 
ATOM     34  H   UNL     1      54.161   7.094  15.968  0.00  0.00    +0.000 HD
ENDBRANCH  21  24
ENDBRANCH  19  20
ENDBRANCH   4  19
TORSDOF 6
ENDMDL
MODEL 8
REMARK VINA RESULT:    -6.258      3.000      4.712
REMARK INTER + INTRA:          -9.659
REMARK INTER:                  -8.601
REMARK INTRA:                  -1.058
REMARK UNBOUND:                -1.206
REMARK  Name = 
REMARK  6 active torsions:
REMARK  status: ('A' for Active; 'I' for Inactive)
REMARK    1  A    between atoms: C_2  and  C_4
REMARK    2  A    between atoms: C_8  and  C_9
REMARK    3  A    between atoms: C_9  and  C_10
REMARK    4  A    between atoms: C_13  and  C_14
REMARK    5  A    between atoms: C_14  and  N_15
REMARK    6  A    between atoms: C_16  and  C_18
REMARK                            x       y       z     vdW  Elec       q    Type
REMARK                         _______ _______ _______ _____ _____    ______ ____
ROOT
ATOM      1  C   UNL     1      48.208   7.068  13.850  0.00  0.00    +0.000 A 
ATOM      2  C   UNL     1      48.686   8.188  14.546  0.00  0.00    +0.000 A 
ATOM      3  C   UNL     1      48.981   8.110  15.913  0.00  0.00    +0.000 A 
ATOM      4  C   UNL     1      48.814   6.908  16.611  0.00  0.00    +0.000 A 
ATOM      5  C   UNL     1      48.293   5.802  15.926  0.00  0.00    +0.000 A 
ATOM      6  C   UNL     1      48.002   5.877  14.560  0.00  0.00    +0.000 A 
ENDROOT
BRANCH   1   7
ATOM      7  C   UNL     1      47.967   7.129  12.356  0.00  0.00    +0.000 C 
BRANCH   7  12
ATOM      8  C   UNL     1      44.907   4.992  11.530  0.00  0.00    +0.000 A 
ATOM      9  C   UNL     1      43.906   5.964  11.422  0.00  0.00    +0.000 A 
ATOM     10  C   UNL     1      44.232   7.316  11.557  0.00  0.00    +0.000 A 
ATOM     11  C   UNL     1      45.549   7.698  11.824  0.00  0.00    +0.000 A 
ATOM     12  C   UNL     1      46.558   6.735  11.964  0.00  0.00    +0.000 A 
ATOM     13  C   UNL     1      46.225   5.382  11.801  0.00  0.00    +0.000 A 
BRANCH   8  15
ATOM     14  N   UNL     1      44.888   2.757  12.511  0.00  0.00    +0.000 N 
ATOM     15  C   UNL     1      44.613   3.539  11.423  0.00  0.00    +0.000 C 
ATOM     16  O   UNL     1      44.113   3.056  10.416  0.00  0.00    +0.000 OA
ATOM     17  H   UNL     1      44.593   1.791  12.449  0.00  0.00    +0.000 HD
ATOM     18  H   UNL     1      45.055   3.142  13.429  0.00  0.00    +0.000 HD
ENDBRANCH   8  15
ENDBRANCH   7  12
ENDBRANCH   1   7
BRANCH   4  19
ATOM     19  C   UNL     1      49.176   6.798  18.070  0.00  0.00    +0.000 C 
BRANCH  19  20
ATOM     20  N   UNL     1      50.116   5.730  18.302  0.00  0.00    +0.000 N 
ATOM     21  C   UNL     1      51.442   5.858  17.976  0.00  0.00    +0.000 C 
ATOM     22  O   UNL     1      51.905   6.897  17.513  0.00  0.00    +0.000 OA
ATOM     23  H   UNL     1      49.724   4.803  18.436  0.00  0.00    +0.000 HD
BRANCH  21  24
ATOM     24  C   UNL     1      52.297   4.703  18.277  0.00  0.00    +0.000 A 
ATOM     25  C   UNL     1      53.517   4.893  18.912  0.00  0.00    +0.000 A 
ATOM     26  S   UNL     1      54.344   3.439  19.255  0.00  0.00    +0.000 S 
ATOM     27  C   UNL     1      53.125   2.509  18.515  0.00  0.00    +0.000 A 
ATOM     28  N   UNL     1      53.223   1.155  18.446  0.00  0.00    +0.000 NA
ATOM     29  C   UNL     1      52.244   0.580  17.831  0.00  0.00    +0.000 A 
ATOM     30  N   UNL     1      51.175   1.238  17.280  0.00  0.00    +0.000 N 
ATOM     31  C   UNL     1      51.021   2.602  17.346  0.00  0.00    +0.000 A 
ATOM     32  O   UNL     1      50.038   3.153  16.868  0.00  0.00    +0.000 OA
ATOM     33  C   UNL     1      52.098   3.297  18.026  0.00  0.00    +0.000 A 
ATOM     34  H   UNL     1      50.439   0.729  16.812  0.00  0.00    +0.000 HD
ENDBRANCH  21  24
ENDBRANCH  19  20
ENDBRANCH   4  19
TORSDOF 6
ENDMDL
MODEL 9
REMARK VINA RESULT:    -5.746      3.520      8.809
REMARK INTER + INTRA:          -8.967
REMARK INTER:                  -7.575
REMARK INTRA:                  -1.392
REMARK UNBOUND:                -1.206
REMARK  Name = 
REMARK  6 active torsions:
REMARK  status: ('A' for Active; 'I' for Inactive)
REMARK    1  A    between atoms: C_2  and  C_4
REMARK    2  A    between atoms: C_8  and  C_9
REMARK    3  A    between atoms: C_9  and  C_10
REMARK    4  A    between atoms: C_13  and  C_14
REMARK    5  A    between atoms: C_14  and  N_15
REMARK    6  A    between atoms: C_16  and  C_18
REMARK                            x       y       z     vdW  Elec       q    Type
REMARK                         _______ _______ _______ _____ _____    ______ ____
ROOT
ATOM      1  C   UNL     1      50.737   8.712  16.886  0.00  0.00    +0.000 A 
ATOM      2  C   UNL     1      49.503   9.350  17.081  0.00  0.00    +0.000 A 
ATOM      3  C   UNL     1      48.642   9.592  16.004  0.00  0.00    +0.000 A 
ATOM      4  C   UNL     1      48.990   9.189  14.709  0.00  0.00    +0.000 A 
ATOM      5  C   UNL     1      50.242   8.593  14.506  0.00  0.00    +0.000 A 
ATOM      6  C   UNL     1      51.102   8.348  15.582  0.00  0.00    +0.000 A 
ENDROOT
BRANCH   1   7
ATOM      7  C   UNL     1      51.632   8.378  18.060  0.00  0.00    +0.000 C 
BRANCH   7  12
ATOM      8  C   UNL     1      50.036   5.055  19.071  0.00  0.00    +0.000 A 
ATOM      9  C   UNL     1      50.264   5.041  20.451  0.00  0.00    +0.000 A 
ATOM     10  C   UNL     1      50.882   6.133  21.065  0.00  0.00    +0.000 A 
ATOM     11  C   UNL     1      51.294   7.229  20.301  0.00  0.00    +0.000 A 
ATOM     12  C   UNL     1      51.098   7.246  18.913  0.00  0.00    +0.000 A 
ATOM     13  C   UNL     1      50.453   6.155  18.310  0.00  0.00    +0.000 A 
BRANCH   8  15
ATOM     14  N   UNL     1      48.506   3.152  19.059  0.00  0.00    +0.000 N 
ATOM     15  C   UNL     1      49.408   3.909  18.362  0.00  0.00    +0.000 C 
ATOM     16  O   UNL     1      49.658   3.663  17.190  0.00  0.00    +0.000 OA
ATOM     17  H   UNL     1      48.023   2.438  18.529  0.00  0.00    +0.000 HD
ATOM     18  H   UNL     1      48.088   3.463  19.923  0.00  0.00    +0.000 HD
ENDBRANCH   8  15
ENDBRANCH   7  12
ENDBRANCH   1   7
BRANCH   4  19
ATOM     19  C   UNL     1      48.049   9.396  13.549  0.00  0.00    +0.000 C 
BRANCH  19  20
ATOM     20  N   UNL     1      47.128   8.296  13.414  0.00  0.00    +0.000 N 
ATOM     21  C   UNL     1      47.354   7.277  12.524  0.00  0.00    +0.000 C 
ATOM     22  O   UNL     1      48.365   7.226  11.830  0.00  0.00    +0.000 OA
ATOM     23  H   UNL     1      46.191   8.443  13.774  0.00  0.00    +0.000 HD
BRANCH  21  24
ATOM     24  C   UNL     1      46.347   6.208  12.495  0.00  0.00    +0.000 A 
ATOM     25  C   UNL     1      46.686   4.929  12.915  0.00  0.00    +0.000 A 
ATOM     26  S   UNL     1      45.378   3.832  12.889  0.00  0.00    +0.000 S 
ATOM     27  C   UNL     1      44.328   5.016  12.262  0.00  0.00    +0.000 A 
ATOM     28  N   UNL     1      43.029   4.723  11.985  0.00  0.00    +0.000 NA
ATOM     29  C   UNL     1      42.356   5.706  11.485  0.00  0.00    +0.000 A 
ATOM     30  N   UNL     1      42.865   6.955  11.240  0.00  0.00    +0.000 N 
ATOM     31  C   UNL     1      44.163   7.304  11.526  0.00  0.00    +0.000 A 
ATOM     32  O   UNL     1      44.575   8.438  11.321  0.00  0.00    +0.000 OA
ATOM     33  C   UNL     1      44.964   6.232  12.088  0.00  0.00    +0.000 A 
ATOM     34  H   UNL     1      42.285   7.683  10.848  0.00  0.00    +0.000 HD
ENDBRANCH  21  24
ENDBRANCH  19  20
ENDBRANCH   4  19
TORSDOF 6
ENDMDL
