MODEL 1
REMARK VINA RESULT:    -8.529      0.000      0.000
REMARK INTER + INTRA:         -15.028
REMARK INTER:                 -13.516
REMARK INTRA:                  -1.512
REMARK UNBOUND:                -1.512
REMARK  Name = 
REMARK  13 active torsions:
REMARK  status: ('A' for Active; 'I' for Inactive)
REMARK    1  A    between atoms: C_1  and  C_2
REMARK    2  A    between atoms: C_2  and  N_3
REMARK    3  A    between atoms: C_2  and  C_24
REMARK    4  A    between atoms: N_3  and  C_4
REMARK    5  A    between atoms: C_4  and  C_5
REMARK    6  A    between atoms: C_4  and  C_6
REMARK    7  A    between atoms: C_9  and  C_10
REMARK    8  A    between atoms: C_10  and  O_11
REMARK    9  A    between atoms: O_11  and  C_12
REMARK   10  A    between atoms: C_12  and  C_13
REMARK   11  A    between atoms: C_16  and  C_17
REMARK   12  A    between atoms: C_17  and  O_19
REMARK   13  A    between atoms: C_28  and  O_29
REMARK                            x       y       z     vdW  Elec       q    Type
REMARK                         _______ _______ _______ _____ _____    ______ ____
ROOT
ATOM      1  C   UNL     1      47.276   6.082  12.967  0.00  0.00    +0.000 A 
ATOM      2  C   UNL     1      46.873   6.552  11.705  0.00  0.00    +0.000 A 
ATOM      3  C   UNL     1      45.683   6.112  11.113  0.00  0.00    +0.000 A 
ATOM      4  C   UNL     1      44.864   5.187  11.764  0.00  0.00    +0.000 A 
ATOM      5  C   UNL     1      45.313   4.634  12.973  0.00  0.00    +0.000 A 
ATOM      6  C   UNL     1      46.511   5.067  13.559  0.00  0.00    +0.000 A 
ENDROOT
BRANCH   1   7
ATOM      7  C   UNL     1      48.394   6.809  13.704  0.00  0.00    +0.000 C 
ATOM      8  C   UNL     1      48.973   7.910  12.788  0.00  0.00    +0.000 C 
BRANCH   7   9
ATOM      9  N   UNL     1      48.055   7.480  14.965  0.00  0.00    +0.000 NA
ATOM     10  H   UNL     1      47.746   8.423  14.719  0.00  0.00    +0.000 HD
BRANCH   9  12
ATOM     11  C   UNL     1      49.425   9.149  16.183  0.00  0.00    +0.000 C 
ATOM     12  C   UNL     1      49.098   7.673  15.980  0.00  0.00    +0.000 C 
BRANCH  12  13
ATOM     13  C   UNL     1      48.884   6.876  17.243  0.00  0.00    +0.000 A 
ATOM     14  C   UNL     1      48.932   7.335  18.551  0.00  0.00    +0.000 A 
ATOM     15  N   UNL     1      48.769   6.273  19.404  0.00  0.00    +0.000 N 
ATOM     16  C   UNL     1      48.615   5.118  18.684  0.00  0.00    +0.000 A 
ATOM     17  C   UNL     1      48.438   3.793  19.036  0.00  0.00    +0.000 A 
ATOM     18  N   UNL     1      48.278   2.877  18.075  0.00  0.00    +0.000 NA
ATOM     19  C   UNL     1      48.320   3.302  16.802  0.00  0.00    +0.000 A 
ATOM     20  N   UNL     1      48.512   4.553  16.349  0.00  0.00    +0.000 NA
ATOM     21  C   UNL     1      48.658   5.466  17.336  0.00  0.00    +0.000 A 
ATOM     22  H   UNL     1      48.770   6.344  20.412  0.00  0.00    +0.000 HD
BRANCH  17  23
ATOM     23  O   UNL     1      48.423   3.325  20.321  0.00  0.00    +0.000 OA
ATOM     24  H   UNL     1      48.306   2.367  20.288  0.00  0.00    +0.000 HD
ENDBRANCH  17  23
ENDBRANCH  12  13
ENDBRANCH   9  12
ENDBRANCH   7   9
ENDBRANCH   1   7
BRANCH   4  25
ATOM     25  C   UNL     1      43.491   4.861  11.225  0.00  0.00    +0.000 C 
BRANCH  25  26
ATOM     26  O   UNL     1      43.611   4.232   9.956  0.00  0.00    +0.000 OA
BRANCH  26  27
ATOM     27  C   UNL     1      44.170   2.921  10.077  0.00  0.00    +0.000 C 
BRANCH  27  28
ATOM     28  C   UNL     1      45.145   2.700   8.944  0.00  0.00    +0.000 A 
ATOM     29  C   UNL     1      45.485   3.763   8.106  0.00  0.00    +0.000 A 
ATOM     30  C   UNL     1      46.364   3.543   7.047  0.00  0.00    +0.000 A 
ATOM     31  C   UNL     1      46.875   2.261   6.847  0.00  0.00    +0.000 A 
ATOM     32  C   UNL     1      46.513   1.265   7.744  0.00  0.00    +0.000 A 
ATOM     33  N   UNL     1      45.661   1.456   8.782  0.00  0.00    +0.000 NA
BRANCH  31  34
ATOM     34  C   UNL     1      47.809   1.914   5.758  0.00  0.00    +0.000 C 
ATOM     35  O   UNL     1      48.063   0.761   5.454  0.00  0.00    +0.000 OA
BRANCH  34  36
ATOM     36  O   UNL     1      48.326   2.979   5.110  0.00  0.00    +0.000 OA
ATOM     37  H   UNL     1      47.727   3.739   4.996  0.00  0.00    +0.000 HD
ENDBRANCH  34  36
ENDBRANCH  31  34
ENDBRANCH  27  28
ENDBRANCH  26  27
ENDBRANCH  25  26
ENDBRANCH   4  25
TORSDOF 11
ENDMDL
MODEL 2
REMARK VINA RESULT:    -8.382      1.132      1.256
REMARK INTER + INTRA:         -14.794
REMARK INTER:                 -13.078
REMARK INTRA:                  -1.715
REMARK UNBOUND:                -1.512
REMARK  Name = 
REMARK  13 active torsions:
REMARK  status: ('A' for Active; 'I' for Inactive)
REMARK    1  A    between atoms: C_1  and  C_2
REMARK    2  A    between atoms: C_2  and  N_3
REMARK    3  A    between atoms: C_2  and  C_24
REMARK    4  A    between atoms: N_3  and  C_4
REMARK    5  A    between atoms: C_4  and  C_5
REMARK    6  A    between atoms: C_4  and  C_6
REMARK    7  A    between atoms: C_9  and  C_10
REMARK    8  A    between atoms: C_10  and  O_11
REMARK    9  A    between atoms: O_11  and  C_12
REMARK   10  A    between atoms: C_12  and  C_13
REMARK   11  A    between atoms: C_16  and  C_17
REMARK   12  A    between atoms: C_17  and  O_19
REMARK   13  A    between atoms: C_28  and  O_29
REMARK                            x       y       z     vdW  Elec       q    Type
REMARK                         _______ _______ _______ _____ _____    ______ ____
ROOT
ATOM      1  C   UNL     1      47.346   6.238  13.205  0.00  0.00    +0.000 A 
ATOM      2  C   UNL     1      46.873   6.890  12.052  0.00  0.00    +0.000 A 
ATOM      3  C   UNL     1      45.669   6.509  11.446  0.00  0.00    +0.000 A 
ATOM      4  C   UNL     1      44.906   5.465  11.973  0.00  0.00    +0.000 A 
ATOM      5  C   UNL     1      45.424   4.742  13.058  0.00  0.00    +0.000 A 
ATOM      6  C   UNL     1      46.636   5.117  13.657  0.00  0.00    +0.000 A 
ENDROOT
BRANCH   1   7
ATOM      7  C   UNL     1      48.477   6.877  14.003  0.00  0.00    +0.000 C 
ATOM      8  C   UNL     1      49.191   7.924  13.121  0.00  0.00    +0.000 C 
BRANCH   7   9
ATOM      9  N   UNL     1      48.124   7.576  15.244  0.00  0.00    +0.000 NA
ATOM     10  H   UNL     1      47.865   8.529  14.977  0.00  0.00    +0.000 HD
BRANCH   9  12
ATOM     11  C   UNL     1      48.674   8.690  17.390  0.00  0.00    +0.000 C 
ATOM     12  C   UNL     1      49.138   7.736  16.292  0.00  0.00    +0.000 C 
BRANCH  12  13
ATOM     13  C   UNL     1      49.738   6.438  16.772  0.00  0.00    +0.000 A 
ATOM     14  C   UNL     1      51.082   6.140  16.944  0.00  0.00    +0.000 A 
ATOM     15  N   UNL     1      51.205   4.824  17.310  0.00  0.00    +0.000 N 
ATOM     16  C   UNL     1      49.966   4.243  17.381  0.00  0.00    +0.000 A 
ATOM     17  C   UNL     1      49.529   2.967  17.680  0.00  0.00    +0.000 A 
ATOM     18  N   UNL     1      48.215   2.713  17.702  0.00  0.00    +0.000 NA
ATOM     19  C   UNL     1      47.386   3.727  17.406  0.00  0.00    +0.000 A 
ATOM     20  N   UNL     1      47.702   4.992  17.077  0.00  0.00    +0.000 NA
ATOM     21  C   UNL     1      49.033   5.230  17.075  0.00  0.00    +0.000 A 
ATOM     22  H   UNL     1      52.084   4.360  17.492  0.00  0.00    +0.000 HD
BRANCH  17  23
ATOM     23  O   UNL     1      50.349   1.907  17.952  0.00  0.00    +0.000 OA
ATOM     24  H   UNL     1      50.305   1.732  18.901  0.00  0.00    +0.000 HD
ENDBRANCH  17  23
ENDBRANCH  12  13
ENDBRANCH   9  12
ENDBRANCH   7   9
ENDBRANCH   1   7
BRANCH   4  25
ATOM     25  C   UNL     1      43.519   5.183  11.445  0.00  0.00    +0.000 C 
BRANCH  25  26
ATOM     26  O   UNL     1      43.606   4.640  10.134  0.00  0.00    +0.000 OA
BRANCH  26  27
ATOM     27  C   UNL     1      43.921   3.245  10.171  0.00  0.00    +0.000 C 
BRANCH  27  28
ATOM     28  C   UNL     1      45.006   2.964   9.158  0.00  0.00    +0.000 A 
ATOM     29  C   UNL     1      45.542   4.011   8.409  0.00  0.00    +0.000 A 
ATOM     30  C   UNL     1      46.524   3.738   7.458  0.00  0.00    +0.000 A 
ATOM     31  C   UNL     1      46.939   2.419   7.274  0.00  0.00    +0.000 A 
ATOM     32  C   UNL     1      46.379   1.438   8.080  0.00  0.00    +0.000 A 
ATOM     33  N   UNL     1      45.424   1.681   9.013  0.00  0.00    +0.000 NA
BRANCH  31  34
ATOM     34  C   UNL     1      47.967   2.015   6.295  0.00  0.00    +0.000 C 
ATOM     35  O   UNL     1      47.840   1.040   5.574  0.00  0.00    +0.000 OA
BRANCH  34  36
ATOM     36  O   UNL     1      49.037   2.835   6.244  0.00  0.00    +0.000 OA
ATOM     37  H   UNL     1      48.894   3.696   5.812  0.00  0.00    +0.000 HD
ENDBRANCH  34  36
ENDBRANCH  31  34
ENDBRANCH  27  28
ENDBRANCH  26  27
ENDBRANCH  25  26
ENDBRANCH   4  25
TORSDOF 11
ENDMDL
MODEL 3
REMARK VINA RESULT:    -8.072      1.588      2.085
REMARK INTER + INTRA:         -14.303
REMARK INTER:                 -12.552
REMARK INTRA:                  -1.752
REMARK UNBOUND:                -1.512
REMARK  Name = 
REMARK  13 active torsions:
REMARK  status: ('A' for Active; 'I' for Inactive)
REMARK    1  A    between atoms: C_1  and  C_2
REMARK    2  A    between atoms: C_2  and  N_3
REMARK    3  A    between atoms: C_2  and  C_24
REMARK    4  A    between atoms: N_3  and  C_4
REMARK    5  A    between atoms: C_4  and  C_5
REMARK    6  A    between atoms: C_4  and  C_6
REMARK    7  A    between atoms: C_9  and  C_10
REMARK    8  A    between atoms: C_10  and  O_11
REMARK    9  A    between atoms: O_11  and  C_12
REMARK   10  A    between atoms: C_12  and  C_13
REMARK   11  A    between atoms: C_16  and  C_17
REMARK   12  A    between atoms: C_17  and  O_19
REMARK   13  A    between atoms: C_28  and  O_29
REMARK                            x       y       z     vdW  Elec       q    Type
REMARK                         _______ _______ _______ _____ _____    ______ ____
ROOT
ATOM      1  C   UNL     1      47.846   8.129  12.520  0.00  0.00    +0.000 A 
ATOM      2  C   UNL     1      46.643   8.536  13.122  0.00  0.00    +0.000 A 
ATOM      3  C   UNL     1      45.448   7.840  12.900  0.00  0.00    +0.000 A 
ATOM      4  C   UNL     1      45.422   6.718  12.069  0.00  0.00    +0.000 A 
ATOM      5  C   UNL     1      46.595   6.370  11.382  0.00  0.00    +0.000 A 
ATOM      6  C   UNL     1      47.788   7.076  11.596  0.00  0.00    +0.000 A 
ENDROOT
BRANCH   1   7
ATOM      7  C   UNL     1      49.160   8.712  13.027  0.00  0.00    +0.000 C 
ATOM      8  C   UNL     1      49.246  10.198  12.618  0.00  0.00    +0.000 C 
BRANCH   7   9
ATOM      9  N   UNL     1      49.406   8.682  14.474  0.00  0.00    +0.000 NA
ATOM     10  H   UNL     1      49.873   9.562  14.707  0.00  0.00    +0.000 HD
BRANCH   9  12
ATOM     11  C   UNL     1      51.630   8.177  15.444  0.00  0.00    +0.000 C 
ATOM     12  C   UNL     1      50.265   7.633  15.036  0.00  0.00    +0.000 C 
BRANCH  12  13
ATOM     13  C   UNL     1      49.581   6.760  16.059  0.00  0.00    +0.000 A 
ATOM     14  C   UNL     1      49.860   6.670  17.415  0.00  0.00    +0.000 A 
ATOM     15  N   UNL     1      49.070   5.696  17.970  0.00  0.00    +0.000 N 
ATOM     16  C   UNL     1      48.274   5.137  17.005  0.00  0.00    +0.000 A 
ATOM     17  C   UNL     1      47.329   4.129  17.017  0.00  0.00    +0.000 A 
ATOM     18  N   UNL     1      46.678   3.828  15.888  0.00  0.00    +0.000 NA
ATOM     19  C   UNL     1      47.001   4.523  14.785  0.00  0.00    +0.000 A 
ATOM     20  N   UNL     1      47.917   5.499  14.656  0.00  0.00    +0.000 NA
ATOM     21  C   UNL     1      48.553   5.796  15.811  0.00  0.00    +0.000 A 
ATOM     22  H   UNL     1      49.086   5.434  18.946  0.00  0.00    +0.000 HD
BRANCH  17  23
ATOM     23  O   UNL     1      47.002   3.382  18.115  0.00  0.00    +0.000 OA
ATOM     24  H   UNL     1      46.136   2.984  17.959  0.00  0.00    +0.000 HD
ENDBRANCH  17  23
ENDBRANCH  12  13
ENDBRANCH   9  12
ENDBRANCH   7   9
ENDBRANCH   1   7
BRANCH   4  25
ATOM     25  C   UNL     1      44.189   5.851  11.985  0.00  0.00    +0.000 C 
BRANCH  25  26
ATOM     26  O   UNL     1      43.883   5.581  10.622  0.00  0.00    +0.000 OA
BRANCH  26  27
ATOM     27  C   UNL     1      43.662   4.184  10.407  0.00  0.00    +0.000 C 
BRANCH  27  28
ATOM     28  C   UNL     1      44.659   3.683   9.389  0.00  0.00    +0.000 A 
ATOM     29  C   UNL     1      44.908   2.315   9.278  0.00  0.00    +0.000 A 
ATOM     30  C   UNL     1      45.850   1.865   8.355  0.00  0.00    +0.000 A 
ATOM     31  C   UNL     1      46.528   2.798   7.570  0.00  0.00    +0.000 A 
ATOM     32  C   UNL     1      46.201   4.139   7.719  0.00  0.00    +0.000 A 
ATOM     33  N   UNL     1      45.286   4.599   8.609  0.00  0.00    +0.000 NA
BRANCH  31  34
ATOM     34  C   UNL     1      47.546   2.435   6.565  0.00  0.00    +0.000 C 
ATOM     35  O   UNL     1      48.480   1.692   6.815  0.00  0.00    +0.000 OA
BRANCH  34  36
ATOM     36  O   UNL     1      47.333   2.966   5.343  0.00  0.00    +0.000 OA
ATOM     37  H   UNL     1      48.014   2.778   4.673  0.00  0.00    +0.000 HD
ENDBRANCH  34  36
ENDBRANCH  31  34
ENDBRANCH  27  28
ENDBRANCH  26  27
ENDBRANCH  25  26
ENDBRANCH   4  25
TORSDOF 11
ENDMDL
MODEL 4
REMARK VINA RESULT:    -7.918      1.501      2.279
REMARK INTER + INTRA:         -14.059
REMARK INTER:                 -12.652
REMARK INTRA:                  -1.407
REMARK UNBOUND:                -1.512
REMARK  Name = 
REMARK  13 active torsions:
REMARK  status: ('A' for Active; 'I' for Inactive)
REMARK    1  A    between atoms: C_1  and  C_2
REMARK    2  A    between atoms: C_2  and  N_3
REMARK    3  A    between atoms: C_2  and  C_24
REMARK    4  A    between atoms: N_3  and  C_4
REMARK    5  A    between atoms: C_4  and  C_5
REMARK    6  A    between atoms: C_4  and  C_6
REMARK    7  A    between atoms: C_9  and  C_10
REMARK    8  A    between atoms: C_10  and  O_11
REMARK    9  A    between atoms: O_11  and  C_12
REMARK   10  A    between atoms: C_12  and  C_13
REMARK   11  A    between atoms: C_16  and  C_17
REMARK   12  A    between atoms: C_17  and  O_19
REMARK   13  A    between atoms: C_28  and  O_29
REMARK                            x       y       z     vdW  Elec       q    Type
REMARK                         _______ _______ _______ _____ _____    ______ ____
ROOT
ATOM      1  C   UNL     1      47.417   6.560  13.743  0.00  0.00    +0.000 A 
ATOM      2  C   UNL     1      46.541   7.336  12.964  0.00  0.00    +0.000 A 
ATOM      3  C   UNL     1      45.353   6.797  12.453  0.00  0.00    +0.000 A 
ATOM      4  C   UNL     1      45.010   5.467  12.703  0.00  0.00    +0.000 A 
ATOM      5  C   UNL     1      45.929   4.659  13.388  0.00  0.00    +0.000 A 
ATOM      6  C   UNL     1      47.124   5.197  13.890  0.00  0.00    +0.000 A 
ENDROOT
BRANCH   1   7
ATOM      7  C   UNL     1      48.520   7.257  14.530  0.00  0.00    +0.000 C 
ATOM      8  C   UNL     1      48.345   8.786  14.403  0.00  0.00    +0.000 C 
BRANCH   7   9
ATOM      9  N   UNL     1      48.605   6.986  15.970  0.00  0.00    +0.000 NA
ATOM     10  H   UNL     1      48.794   7.883  16.424  0.00  0.00    +0.000 HD
BRANCH   9  12
ATOM     11  C   UNL     1      51.037   6.689  16.350  0.00  0.00    +0.000 C 
ATOM     12  C   UNL     1      49.644   6.078  16.471  0.00  0.00    +0.000 C 
BRANCH  12  13
ATOM     13  C   UNL     1      49.324   5.453  17.806  0.00  0.00    +0.000 A 
ATOM     14  C   UNL     1      49.517   4.133  18.189  0.00  0.00    +0.000 A 
ATOM     15  N   UNL     1      49.011   3.957  19.452  0.00  0.00    +0.000 N 
ATOM     16  C   UNL     1      48.486   5.135  19.912  0.00  0.00    +0.000 A 
ATOM     17  C   UNL     1      47.852   5.501  21.084  0.00  0.00    +0.000 A 
ATOM     18  N   UNL     1      47.475   6.774  21.254  0.00  0.00    +0.000 NA
ATOM     19  C   UNL     1      47.720   7.630  20.249  0.00  0.00    +0.000 A 
ATOM     20  N   UNL     1      48.301   7.377  19.064  0.00  0.00    +0.000 NA
ATOM     21  C   UNL     1      48.687   6.089  18.918  0.00  0.00    +0.000 A 
ATOM     22  H   UNL     1      49.026   3.081  19.956  0.00  0.00    +0.000 HD
BRANCH  17  23
ATOM     23  O   UNL     1      47.559   4.647  22.111  0.00  0.00    +0.000 OA
ATOM     24  H   UNL     1      48.387   4.252  22.416  0.00  0.00    +0.000 HD
ENDBRANCH  17  23
ENDBRANCH  12  13
ENDBRANCH   9  12
ENDBRANCH   7   9
ENDBRANCH   1   7
BRANCH   4  25
ATOM     25  C   UNL     1      43.645   4.941  12.326  0.00  0.00    +0.000 C 
BRANCH  25  26
ATOM     26  O   UNL     1      43.778   3.931  11.334  0.00  0.00    +0.000 OA
BRANCH  26  27
ATOM     27  C   UNL     1      43.745   4.491  10.017  0.00  0.00    +0.000 C 
BRANCH  27  28
ATOM     28  C   UNL     1      44.733   3.750   9.148  0.00  0.00    +0.000 A 
ATOM     29  C   UNL     1      44.866   2.367   9.274  0.00  0.00    +0.000 A 
ATOM     30  C   UNL     1      45.800   1.695   8.486  0.00  0.00    +0.000 A 
ATOM     31  C   UNL     1      46.586   2.428   7.597  0.00  0.00    +0.000 A 
ATOM     32  C   UNL     1      46.372   3.797   7.508  0.00  0.00    +0.000 A 
ATOM     33  N   UNL     1      45.467   4.470   8.263  0.00  0.00    +0.000 NA
BRANCH  31  34
ATOM     34  C   UNL     1      47.606   1.823   6.719  0.00  0.00    +0.000 C 
ATOM     35  O   UNL     1      47.480   0.710   6.236  0.00  0.00    +0.000 OA
BRANCH  34  36
ATOM     36  O   UNL     1      48.667   2.618   6.470  0.00  0.00    +0.000 OA
ATOM     37  H   UNL     1      49.255   2.330   5.748  0.00  0.00    +0.000 HD
ENDBRANCH  34  36
ENDBRANCH  31  34
ENDBRANCH  27  28
ENDBRANCH  26  27
ENDBRANCH  25  26
ENDBRANCH   4  25
TORSDOF 11
ENDMDL
MODEL 5
REMARK VINA RESULT:    -7.264      2.902      4.833
REMARK INTER + INTRA:         -13.023
REMARK INTER:                 -11.038
REMARK INTRA:                  -1.985
REMARK UNBOUND:                -1.512
REMARK  Name = 
REMARK  13 active torsions:
REMARK  status: ('A' for Active; 'I' for Inactive)
REMARK    1  A    between atoms: C_1  and  C_2
REMARK    2  A    between atoms: C_2  and  N_3
REMARK    3  A    between atoms: C_2  and  C_24
REMARK    4  A    between atoms: N_3  and  C_4
REMARK    5  A    between atoms: C_4  and  C_5
REMARK    6  A    between atoms: C_4  and  C_6
REMARK    7  A    between atoms: C_9  and  C_10
REMARK    8  A    between atoms: C_10  and  O_11
REMARK    9  A    between atoms: O_11  and  C_12
REMARK   10  A    between atoms: C_12  and  C_13
REMARK   11  A    between atoms: C_16  and  C_17
REMARK   12  A    between atoms: C_17  and  O_19
REMARK   13  A    between atoms: C_28  and  O_29
REMARK                            x       y       z     vdW  Elec       q    Type
REMARK                         _______ _______ _______ _____ _____    ______ ____
ROOT
ATOM      1  C   UNL     1      48.937   8.487  16.580  0.00  0.00    +0.000 A 
ATOM      2  C   UNL     1      48.691   9.631  15.800  0.00  0.00    +0.000 A 
ATOM      3  C   UNL     1      48.819   9.599  14.406  0.00  0.00    +0.000 A 
ATOM      4  C   UNL     1      49.198   8.425  13.752  0.00  0.00    +0.000 A 
ATOM      5  C   UNL     1      49.549   7.312  14.531  0.00  0.00    +0.000 A 
ATOM      6  C   UNL     1      49.432   7.349  15.929  0.00  0.00    +0.000 A 
ENDROOT
BRANCH   1   7
ATOM      7  C   UNL     1      48.489   8.476  18.037  0.00  0.00    +0.000 C 
ATOM      8  C   UNL     1      47.641   9.736  18.316  0.00  0.00    +0.000 C 
BRANCH   7   9
ATOM      9  N   UNL     1      47.675   7.341  18.490  0.00  0.00    +0.000 NA
ATOM     10  H   UNL     1      46.836   7.739  18.920  0.00  0.00    +0.000 HD
BRANCH   9  12
ATOM     11  C   UNL     1      47.244   6.196  20.646  0.00  0.00    +0.000 C 
ATOM     12  C   UNL     1      48.221   6.423  19.497  0.00  0.00    +0.000 C 
BRANCH  12  13
ATOM     13  C   UNL     1      48.843   5.176  18.918  0.00  0.00    +0.000 A 
ATOM     14  C   UNL     1      50.009   4.545  19.327  0.00  0.00    +0.000 A 
ATOM     15  N   UNL     1      50.270   3.496  18.483  0.00  0.00    +0.000 N 
ATOM     16  C   UNL     1      49.298   3.421  17.520  0.00  0.00    +0.000 A 
ATOM     17  C   UNL     1      49.091   2.585  16.440  0.00  0.00    +0.000 A 
ATOM     18  N   UNL     1      47.998   2.749  15.686  0.00  0.00    +0.000 NA
ATOM     19  C   UNL     1      47.164   3.748  16.016  0.00  0.00    +0.000 A 
ATOM     20  N   UNL     1      47.281   4.631  17.022  0.00  0.00    +0.000 NA
ATOM     21  C   UNL     1      48.384   4.439  17.780  0.00  0.00    +0.000 A 
ATOM     22  H   UNL     1      51.066   2.879  18.566  0.00  0.00    +0.000 HD
BRANCH  17  23
ATOM     23  O   UNL     1      49.938   1.581  16.059  0.00  0.00    +0.000 OA
ATOM     24  H   UNL     1      50.084   1.659  15.108  0.00  0.00    +0.000 HD
ENDBRANCH  17  23
ENDBRANCH  12  13
ENDBRANCH   9  12
ENDBRANCH   7   9
ENDBRANCH   1   7
BRANCH   4  25
ATOM     25  C   UNL     1      49.145   8.331  12.246  0.00  0.00    +0.000 C 
BRANCH  25  26
ATOM     26  O   UNL     1      48.325   7.234  11.862  0.00  0.00    +0.000 OA
BRANCH  26  27
ATOM     27  C   UNL     1      46.943   7.509  12.110  0.00  0.00    +0.000 C 
BRANCH  27  28
ATOM     28  C   UNL     1      46.143   6.254  11.851  0.00  0.00    +0.000 A 
ATOM     29  C   UNL     1      45.906   5.357  12.893  0.00  0.00    +0.000 A 
ATOM     30  C   UNL     1      45.190   4.188  12.639  0.00  0.00    +0.000 A 
ATOM     31  C   UNL     1      44.736   3.942  11.343  0.00  0.00    +0.000 A 
ATOM     32  C   UNL     1      44.985   4.899  10.369  0.00  0.00    +0.000 A 
ATOM     33  N   UNL     1      45.678   6.044  10.595  0.00  0.00    +0.000 NA
BRANCH  31  34
ATOM     34  C   UNL     1      43.972   2.738  10.960  0.00  0.00    +0.000 C 
ATOM     35  O   UNL     1      42.950   2.399  11.533  0.00  0.00    +0.000 OA
BRANCH  34  36
ATOM     36  O   UNL     1      44.482   2.070   9.905  0.00  0.00    +0.000 OA
ATOM     37  H   UNL     1      44.478   2.548   9.056  0.00  0.00    +0.000 HD
ENDBRANCH  34  36
ENDBRANCH  31  34
ENDBRANCH  27  28
ENDBRANCH  26  27
ENDBRANCH  25  26
ENDBRANCH   4  25
TORSDOF 11
ENDMDL
MODEL 6
REMARK VINA RESULT:    -6.953      3.165      5.518
REMARK INTER + INTRA:         -12.530
REMARK INTER:                 -10.464
REMARK INTRA:                  -2.066
REMARK UNBOUND:                -1.512
REMARK  Name = 
REMARK  13 active torsions:
REMARK  status: ('A' for Active; 'I' for Inactive)
REMARK    1  A    between atoms: C_1  and  C_2
REMARK    2  A    between atoms: C_2  and  N_3
REMARK    3  A    between atoms: C_2  and  C_24
REMARK    4  A    between atoms: N_3  and  C_4
REMARK    5  A    between atoms: C_4  and  C_5
REMARK    6  A    between atoms: C_4  and  C_6
REMARK    7  A    between atoms: C_9  and  C_10
REMARK    8  A    between atoms: C_10  and  O_11
REMARK    9  A    between atoms: O_11  and  C_12
REMARK   10  A    between atoms: C_12  and  C_13
REMARK   11  A    between atoms: C_16  and  C_17
REMARK   12  A    between atoms: C_17  and  O_19
REMARK   13  A    between atoms: C_28  and  O_29
REMARK                            x       y       z     vdW  Elec       q    Type
REMARK                         _______ _______ _______ _____ _____    ______ ____
ROOT
ATOM      1  C   UNL     1      50.545   7.427  18.046  0.00  0.00    +0.000 A 
ATOM      2  C   UNL     1      49.471   8.274  17.722  0.00  0.00    +0.000 A 
ATOM      3  C   UNL     1      49.076   8.470  16.393  0.00  0.00    +0.000 A 
ATOM      4  C   UNL     1      49.746   7.827  15.349  0.00  0.00    +0.000 A 
ATOM      5  C   UNL     1      50.884   7.067  15.656  0.00  0.00    +0.000 A 
ATOM      6  C   UNL     1      51.286   6.881  16.987  0.00  0.00    +0.000 A 
ENDROOT
BRANCH   1   7
ATOM      7  C   UNL     1      50.739   6.999  19.496  0.00  0.00    +0.000 C 
ATOM      8  C   UNL     1      51.570   8.071  20.233  0.00  0.00    +0.000 C 
BRANCH   7   9
ATOM      9  N   UNL     1      49.536   6.797  20.313  0.00  0.00    +0.000 NA
ATOM     10  H   UNL     1      49.803   7.002  21.279  0.00  0.00    +0.000 HD
BRANCH   9  12
ATOM     11  C   UNL     1      47.968   5.329  21.550  0.00  0.00    +0.000 C 
ATOM     12  C   UNL     1      48.915   5.468  20.362  0.00  0.00    +0.000 C 
BRANCH  12  13
ATOM     13  C   UNL     1      48.370   4.994  19.038  0.00  0.00    +0.000 A 
ATOM     14  C   UNL     1      47.175   5.359  18.436  0.00  0.00    +0.000 A 
ATOM     15  N   UNL     1      47.015   4.633  17.283  0.00  0.00    +0.000 N 
ATOM     16  C   UNL     1      48.082   3.792  17.111  0.00  0.00    +0.000 A 
ATOM     17  C   UNL     1      48.410   2.854  16.151  0.00  0.00    +0.000 A 
ATOM     18  N   UNL     1      49.573   2.200  16.245  0.00  0.00    +0.000 NA
ATOM     19  C   UNL     1      50.357   2.483  17.298  0.00  0.00    +0.000 A 
ATOM     20  N   UNL     1      50.126   3.351  18.297  0.00  0.00    +0.000 NA
ATOM     21  C   UNL     1      48.952   4.012  18.176  0.00  0.00    +0.000 A 
ATOM     22  H   UNL     1      46.221   4.713  16.663  0.00  0.00    +0.000 HD
BRANCH  17  23
ATOM     23  O   UNL     1      47.618   2.520  15.087  0.00  0.00    +0.000 OA
ATOM     24  H   UNL     1      47.990   1.730  14.674  0.00  0.00    +0.000 HD
ENDBRANCH  17  23
ENDBRANCH  12  13
ENDBRANCH   9  12
ENDBRANCH   7   9
ENDBRANCH   1   7
BRANCH   4  25
ATOM     25  C   UNL     1      49.204   7.878  13.940  0.00  0.00    +0.000 C 
BRANCH  25  26
ATOM     26  O   UNL     1      48.893   6.562  13.499  0.00  0.00    +0.000 OA
BRANCH  26  27
ATOM     27  C   UNL     1      47.788   6.019  14.227  0.00  0.00    +0.000 C 
BRANCH  27  28
ATOM     28  C   UNL     1      46.742   5.546  13.245  0.00  0.00    +0.000 A 
ATOM     29  C   UNL     1      46.497   6.283  12.086  0.00  0.00    +0.000 A 
ATOM     30  C   UNL     1      45.511   5.854  11.199  0.00  0.00    +0.000 A 
ATOM     31  C   UNL     1      44.787   4.700  11.500  0.00  0.00    +0.000 A 
ATOM     32  C   UNL     1      45.113   4.006  12.657  0.00  0.00    +0.000 A 
ATOM     33  N   UNL     1      46.069   4.404  13.533  0.00  0.00    +0.000 NA
BRANCH  31  34
ATOM     34  C   UNL     1      43.721   4.156  10.636  0.00  0.00    +0.000 C 
ATOM     35  O   UNL     1      42.941   3.300  11.016  0.00  0.00    +0.000 OA
BRANCH  34  36
ATOM     36  O   UNL     1      43.664   4.712   9.408  0.00  0.00    +0.000 OA
ATOM     37  H   UNL     1      43.621   5.685   9.383  0.00  0.00    +0.000 HD
ENDBRANCH  34  36
ENDBRANCH  31  34
ENDBRANCH  27  28
ENDBRANCH  26  27
ENDBRANCH  25  26
ENDBRANCH   4  25
TORSDOF 11
ENDMDL
MODEL 7
REMARK VINA RESULT:    -6.562      3.148      4.862
REMARK INTER + INTRA:         -11.909
REMARK INTER:                 -10.110
REMARK INTRA:                  -1.800
REMARK UNBOUND:                -1.512
REMARK  Name = 
REMARK  13 active torsions:
REMARK  status: ('A' for Active; 'I' for Inactive)
REMARK    1  A    between atoms: C_1  and  C_2
REMARK    2  A    between atoms: C_2  and  N_3
REMARK    3  A    between atoms: C_2  and  C_24
REMARK    4  A    between atoms: N_3  and  C_4
REMARK    5  A    between atoms: C_4  and  C_5
REMARK    6  A    between atoms: C_4  and  C_6
REMARK    7  A    between atoms: C_9  and  C_10
REMARK    8  A    between atoms: C_10  and  O_11
REMARK    9  A    between atoms: O_11  and  C_12
REMARK   10  A    between atoms: C_12  and  C_13
REMARK   11  A    between atoms: C_16  and  C_17
REMARK   12  A    between atoms: C_17  and  O_19
REMARK   13  A    between atoms: C_28  and  O_29
REMARK                            x       y       z     vdW  Elec       q    Type
REMARK                         _______ _______ _______ _____ _____    ______ ____
ROOT
ATOM      1  C   UNL     1      50.811   8.356  14.681  0.00  0.00    +0.000 A 
ATOM      2  C   UNL     1      49.636   8.828  15.292  0.00  0.00    +0.000 A 
ATOM      3  C   UNL     1      48.519   9.194  14.531  0.00  0.00    +0.000 A 
ATOM      4  C   UNL     1      48.544   9.099  13.138  0.00  0.00    +0.000 A 
ATOM      5  C   UNL     1      49.747   8.730  12.517  0.00  0.00    +0.000 A 
ATOM      6  C   UNL     1      50.870   8.376  13.280  0.00  0.00    +0.000 A 
ENDROOT
BRANCH   1   7
ATOM      7  C   UNL     1      51.872   7.682  15.542  0.00  0.00    +0.000 C 
ATOM      8  C   UNL     1      53.009   8.687  15.824  0.00  0.00    +0.000 C 
BRANCH   7   9
ATOM      9  N   UNL     1      51.460   7.169  16.854  0.00  0.00    +0.000 NA
ATOM     10  H   UNL     1      51.932   7.748  17.554  0.00  0.00    +0.000 HD
BRANCH   9  12
ATOM     11  C   UNL     1      53.014   5.714  18.124  0.00  0.00    +0.000 C 
ATOM     12  C   UNL     1      51.787   5.786  17.221  0.00  0.00    +0.000 C 
BRANCH  12  13
ATOM     13  C   UNL     1      50.600   4.972  17.673  0.00  0.00    +0.000 A 
ATOM     14  C   UNL     1      50.513   4.151  18.788  0.00  0.00    +0.000 A 
ATOM     15  N   UNL     1      49.292   3.525  18.788  0.00  0.00    +0.000 N 
ATOM     16  C   UNL     1      48.569   3.916  17.692  0.00  0.00    +0.000 A 
ATOM     17  C   UNL     1      47.316   3.586  17.211  0.00  0.00    +0.000 A 
ATOM     18  N   UNL     1      46.863   4.181  16.102  0.00  0.00    +0.000 NA
ATOM     19  C   UNL     1      47.676   5.064  15.499  0.00  0.00    +0.000 A 
ATOM     20  N   UNL     1      48.915   5.437  15.863  0.00  0.00    +0.000 NA
ATOM     21  C   UNL     1      49.348   4.834  16.993  0.00  0.00    +0.000 A 
ATOM     22  H   UNL     1      48.985   2.871  19.494  0.00  0.00    +0.000 HD
BRANCH  17  23
ATOM     23  O   UNL     1      46.480   2.668  17.784  0.00  0.00    +0.000 OA
ATOM     24  H   UNL     1      46.309   1.973  17.135  0.00  0.00    +0.000 HD
ENDBRANCH  17  23
ENDBRANCH  12  13
ENDBRANCH   9  12
ENDBRANCH   7   9
ENDBRANCH   1   7
BRANCH   4  25
ATOM     25  C   UNL     1      47.285   9.300  12.329  0.00  0.00    +0.000 C 
BRANCH  25  26
ATOM     26  O   UNL     1      46.182   8.707  13.004  0.00  0.00    +0.000 OA
BRANCH  26  27
ATOM     27  C   UNL     1      45.059   8.557  12.129  0.00  0.00    +0.000 C 
BRANCH  27  28
ATOM     28  C   UNL     1      44.800   7.084  11.918  0.00  0.00    +0.000 A 
ATOM     29  C   UNL     1      45.726   6.145  12.374  0.00  0.00    +0.000 A 
ATOM     30  C   UNL     1      45.491   4.790  12.151  0.00  0.00    +0.000 A 
ATOM     31  C   UNL     1      44.337   4.407  11.467  0.00  0.00    +0.000 A 
ATOM     32  C   UNL     1      43.450   5.399  11.073  0.00  0.00    +0.000 A 
ATOM     33  N   UNL     1      43.657   6.724  11.281  0.00  0.00    +0.000 NA
BRANCH  31  34
ATOM     34  C   UNL     1      43.989   3.003  11.173  0.00  0.00    +0.000 C 
ATOM     35  O   UNL     1      42.930   2.504  11.513  0.00  0.00    +0.000 OA
BRANCH  34  36
ATOM     36  O   UNL     1      44.926   2.335  10.468  0.00  0.00    +0.000 OA
ATOM     37  H   UNL     1      45.844   2.638  10.587  0.00  0.00    +0.000 HD
ENDBRANCH  34  36
ENDBRANCH  31  34
ENDBRANCH  27  28
ENDBRANCH  26  27
ENDBRANCH  25  26
ENDBRANCH   4  25
TORSDOF 11
ENDMDL
MODEL 8
REMARK VINA RESULT:    -6.549      1.841      2.796
REMARK INTER + INTRA:         -11.890
REMARK INTER:                 -10.319
REMARK INTRA:                  -1.571
REMARK UNBOUND:                -1.512
REMARK  Name = 
REMARK  13 active torsions:
REMARK  status: ('A' for Active; 'I' for Inactive)
REMARK    1  A    between atoms: C_1  and  C_2
REMARK    2  A    between atoms: C_2  and  N_3
REMARK    3  A    between atoms: C_2  and  C_24
REMARK    4  A    between atoms: N_3  and  C_4
REMARK    5  A    between atoms: C_4  and  C_5
REMARK    6  A    between atoms: C_4  and  C_6
REMARK    7  A    between atoms: C_9  and  C_10
REMARK    8  A    between atoms: C_10  and  O_11
REMARK    9  A    between atoms: O_11  and  C_12
REMARK   10  A    between atoms: C_12  and  C_13
REMARK   11  A    between atoms: C_16  and  C_17
REMARK   12  A    between atoms: C_17  and  O_19
REMARK   13  A    between atoms: C_28  and  O_29
REMARK                            x       y       z     vdW  Elec       q    Type
REMARK                         _______ _______ _______ _____ _____    ______ ____
ROOT
ATOM      1  C   UNL     1      47.481   8.059  12.195  0.00  0.00    +0.000 A 
ATOM      2  C   UNL     1      46.211   8.579  11.889  0.00  0.00    +0.000 A 
ATOM      3  C   UNL     1      45.079   7.755  11.856  0.00  0.00    +0.000 A 
ATOM      4  C   UNL     1      45.184   6.389  12.125  0.00  0.00    +0.000 A 
ATOM      5  C   UNL     1      46.462   5.846  12.325  0.00  0.00    +0.000 A 
ATOM      6  C   UNL     1      47.597   6.670  12.346  0.00  0.00    +0.000 A 
ENDROOT
BRANCH   1   7
ATOM      7  C   UNL     1      48.614   9.023  12.526  0.00  0.00    +0.000 C 
ATOM      8  C   UNL     1      48.350  10.375  11.828  0.00  0.00    +0.000 C 
BRANCH   7   9
ATOM      9  N   UNL     1      48.845   9.343  13.940  0.00  0.00    +0.000 NA
ATOM     10  H   UNL     1      49.068  10.341  13.979  0.00  0.00    +0.000 HD
BRANCH   9  12
ATOM     11  C   UNL     1      51.105   9.630  14.919  0.00  0.00    +0.000 C 
ATOM     12  C   UNL     1      49.940   8.680  14.658  0.00  0.00    +0.000 C 
BRANCH  12  13
ATOM     13  C   UNL     1      49.491   7.862  15.844  0.00  0.00    +0.000 A 
ATOM     14  C   UNL     1      49.667   6.501  16.047  0.00  0.00    +0.000 A 
ATOM     15  N   UNL     1      49.033   6.137  17.208  0.00  0.00    +0.000 N 
ATOM     16  C   UNL     1      48.440   7.233  17.777  0.00  0.00    +0.000 A 
ATOM     17  C   UNL     1      47.679   7.420  18.915  0.00  0.00    +0.000 A 
ATOM     18  N   UNL     1      47.262   8.651  19.230  0.00  0.00    +0.000 NA
ATOM     19  C   UNL     1      47.597   9.648  18.394  0.00  0.00    +0.000 A 
ATOM     20  N   UNL     1      48.305   9.575  17.254  0.00  0.00    +0.000 NA
ATOM     21  C   UNL     1      48.728   8.325  16.962  0.00  0.00    +0.000 A 
ATOM     22  H   UNL     1      49.011   5.196  17.577  0.00  0.00    +0.000 HD
BRANCH  17  23
ATOM     23  O   UNL     1      47.294   6.421  19.767  0.00  0.00    +0.000 OA
ATOM     24  H   UNL     1      46.329   6.387  19.771  0.00  0.00    +0.000 HD
ENDBRANCH  17  23
ENDBRANCH  12  13
ENDBRANCH   9  12
ENDBRANCH   7   9
ENDBRANCH   1   7
BRANCH   4  25
ATOM     25  C   UNL     1      43.946   5.539  12.286  0.00  0.00    +0.000 C 
BRANCH  25  26
ATOM     26  O   UNL     1      43.486   5.114  11.009  0.00  0.00    +0.000 OA
BRANCH  26  27
ATOM     27  C   UNL     1      43.558   3.691  10.879  0.00  0.00    +0.000 C 
BRANCH  27  28
ATOM     28  C   UNL     1      44.487   3.352   9.736  0.00  0.00    +0.000 A 
ATOM     29  C   UNL     1      44.876   2.029   9.530  0.00  0.00    +0.000 A 
ATOM     30  C   UNL     1      45.755   1.730   8.489  0.00  0.00    +0.000 A 
ATOM     31  C   UNL     1      46.230   2.767   7.686  0.00  0.00    +0.000 A 
ATOM     32  C   UNL     1      45.770   4.052   7.937  0.00  0.00    +0.000 A 
ATOM     33  N   UNL     1      44.913   4.366   8.942  0.00  0.00    +0.000 NA
BRANCH  31  34
ATOM     34  C   UNL     1      47.164   2.566   6.561  0.00  0.00    +0.000 C 
ATOM     35  O   UNL     1      46.952   3.010   5.445  0.00  0.00    +0.000 OA
BRANCH  34  36
ATOM     36  O   UNL     1      48.282   1.883   6.883  0.00  0.00    +0.000 OA
ATOM     37  H   UNL     1      49.049   2.023   6.298  0.00  0.00    +0.000 HD
ENDBRANCH  34  36
ENDBRANCH  31  34
ENDBRANCH  27  28
ENDBRANCH  26  27
ENDBRANCH  25  26
ENDBRANCH   4  25
TORSDOF 11
ENDMDL
MODEL 9
REMARK VINA RESULT:    -5.685      4.947      8.217
REMARK INTER + INTRA:         -10.521
REMARK INTER:                  -9.046
REMARK INTRA:                  -1.475
REMARK UNBOUND:                -1.512
REMARK  Name = 
REMARK  13 active torsions:
REMARK  status: ('A' for Active; 'I' for Inactive)
REMARK    1  A    between atoms: C_1  and  C_2
REMARK    2  A    between atoms: C_2  and  N_3
REMARK    3  A    between atoms: C_2  and  C_24
REMARK    4  A    between atoms: N_3  and  C_4
REMARK    5  A    between atoms: C_4  and  C_5
REMARK    6  A    between atoms: C_4  and  C_6
REMARK    7  A    between atoms: C_9  and  C_10
REMARK    8  A    between atoms: C_10  and  O_11
REMARK    9  A    between atoms: O_11  and  C_12
REMARK   10  A    between atoms: C_12  and  C_13
REMARK   11  A    between atoms: C_16  and  C_17
REMARK   12  A    between atoms: C_17  and  O_19
REMARK   13  A    between atoms: C_28  and  O_29
REMARK                            x       y       z     vdW  Elec       q    Type
REMARK                         _______ _______ _______ _____ _____    ______ ____
ROOT
ATOM      1  C   UNL     1      51.223   9.094  11.566  0.00  0.00    +0.000 A 
ATOM      2  C   UNL     1      51.632   9.242  12.903  0.00  0.00    +0.000 A 
ATOM      3  C   UNL     1      50.963   8.584  13.943  0.00  0.00    +0.000 A 
ATOM      4  C   UNL     1      49.865   7.764  13.677  0.00  0.00    +0.000 A 
ATOM      5  C   UNL     1      49.387   7.697  12.360  0.00  0.00    +0.000 A 
ATOM      6  C   UNL     1      50.050   8.366  11.320  0.00  0.00    +0.000 A 
ENDROOT
BRANCH   1   7
ATOM      7  C   UNL     1      52.152   9.563  10.453  0.00  0.00    +0.000 C 
ATOM      8  C   UNL     1      51.625  10.897   9.881  0.00  0.00    +0.000 C 
BRANCH   7   9
ATOM      9  N   UNL     1      53.558   9.806  10.796  0.00  0.00    +0.000 NA
ATOM     10  H   UNL     1      53.892  10.533  10.159  0.00  0.00    +0.000 HD
BRANCH   9  12
ATOM     11  C   UNL     1      55.220   8.408  11.993  0.00  0.00    +0.000 C 
ATOM     12  C   UNL     1      54.529   8.712  10.667  0.00  0.00    +0.000 C 
BRANCH  12  13
ATOM     13  C   UNL     1      54.007   7.512   9.917  0.00  0.00    +0.000 A 
ATOM     14  C   UNL     1      53.655   6.276  10.440  0.00  0.00    +0.000 A 
ATOM     15  N   UNL     1      53.314   5.436   9.410  0.00  0.00    +0.000 N 
ATOM     16  C   UNL     1      53.436   6.093   8.214  0.00  0.00    +0.000 A 
ATOM     17  C   UNL     1      53.239   5.719   6.899  0.00  0.00    +0.000 A 
ATOM     18  N   UNL     1      53.411   6.623   5.928  0.00  0.00    +0.000 NA
ATOM     19  C   UNL     1      53.792   7.858   6.296  0.00  0.00    +0.000 A 
ATOM     20  N   UNL     1      54.036   8.319   7.534  0.00  0.00    +0.000 NA
ATOM     21  C   UNL     1      53.842   7.393   8.501  0.00  0.00    +0.000 A 
ATOM     22  H   UNL     1      53.023   4.475   9.528  0.00  0.00    +0.000 HD
BRANCH  17  23
ATOM     23  O   UNL     1      52.884   4.462   6.491  0.00  0.00    +0.000 OA
ATOM     24  H   UNL     1      52.142   4.170   7.036  0.00  0.00    +0.000 HD
ENDBRANCH  17  23
ENDBRANCH  12  13
ENDBRANCH   9  12
ENDBRANCH   7   9
ENDBRANCH   1   7
BRANCH   4  25
ATOM     25  C   UNL     1      49.268   6.901  14.763  0.00  0.00    +0.000 C 
BRANCH  25  26
ATOM     26  O   UNL     1      47.878   6.720  14.522  0.00  0.00    +0.000 OA
BRANCH  26  27
ATOM     27  C   UNL     1      47.511   5.340  14.618  0.00  0.00    +0.000 C 
BRANCH  27  28
ATOM     28  C   UNL     1      46.599   4.996  13.464  0.00  0.00    +0.000 A 
ATOM     29  C   UNL     1      46.266   5.977  12.529  0.00  0.00    +0.000 A 
ATOM     30  C   UNL     1      45.403   5.658  11.483  0.00  0.00    +0.000 A 
ATOM     31  C   UNL     1      44.885   4.365  11.404  0.00  0.00    +0.000 A 
ATOM     32  C   UNL     1      45.289   3.438  12.354  0.00  0.00    +0.000 A 
ATOM     33  N   UNL     1      46.131   3.726  13.380  0.00  0.00    +0.000 NA
BRANCH  31  34
ATOM     34  C   UNL     1      43.961   3.919  10.342  0.00  0.00    +0.000 C 
ATOM     35  O   UNL     1      43.604   2.758  10.228  0.00  0.00    +0.000 OA
BRANCH  34  36
ATOM     36  O   UNL     1      43.522   4.907   9.536  0.00  0.00    +0.000 OA
ATOM     37  H   UNL     1      44.212   5.430   9.089  0.00  0.00    +0.000 HD
ENDBRANCH  34  36
ENDBRANCH  31  34
ENDBRANCH  27  28
ENDBRANCH  26  27
ENDBRANCH  25  26
ENDBRANCH   4  25
TORSDOF 11
ENDMDL
