MODEL 1
REMARK VINA RESULT:    -8.120      0.000      0.000
REMARK INTER + INTRA:         -12.519
REMARK INTER:                 -11.206
REMARK INTRA:                  -1.313
REMARK UNBOUND:                -1.313
REMARK  Name = 
REMARK  8 active torsions:
REMARK  status: ('A' for Active; 'I' for Inactive)
REMARK    1  A    between atoms: C_1  and  C_2
REMARK    2  A    between atoms: C_2  and  C_3
REMARK    3  A    between atoms: C_2  and  N_19
REMARK    4  A    between atoms: C_3  and  C_4
REMARK    5  A    between atoms: C_8  and  C_9
REMARK    6  A    between atoms: C_14  and  C_15
REMARK    7  A    between atoms: C_15  and  O_17
REMARK    8  A    between atoms: C_23  and  C_24
REMARK                            x       y       z     vdW  Elec       q    Type
REMARK                         _______ _______ _______ _____ _____    ______ ____
ROOT
ATOM      1  C   UNL     1      47.455   8.275  12.225  0.00  0.00    +0.000 C 
ENDROOT
BRANCH   1   2
ATOM      2  C   UNL     1      46.188   7.571  11.786  0.00  0.00    +0.000 A 
ATOM      3  C   UNL     1      44.927   8.052  12.153  0.00  0.00    +0.000 A 
ATOM      4  C   UNL     1      43.784   7.328  11.839  0.00  0.00    +0.000 A 
ATOM      5  C   UNL     1      43.893   6.126  11.136  0.00  0.00    +0.000 A 
ATOM      6  C   UNL     1      45.136   5.645  10.676  0.00  0.00    +0.000 A 
ATOM      7  C   UNL     1      46.272   6.400  11.013  0.00  0.00    +0.000 A 
BRANCH   6   8
ATOM      8  C   UNL     1      45.217   4.439   9.807  0.00  0.00    +0.000 A 
ATOM      9  C   UNL     1      45.807   4.593   8.527  0.00  0.00    +0.000 A 
ATOM     10  C   UNL     1      46.034   3.517   7.667  0.00  0.00    +0.000 A 
ATOM     11  C   UNL     1      45.692   2.235   8.064  0.00  0.00    +0.000 A 
ATOM     12  C   UNL     1      45.094   2.040   9.307  0.00  0.00    +0.000 A 
ATOM     13  C   UNL     1      44.831   3.125  10.171  0.00  0.00    +0.000 A 
BRANCH  13  14
ATOM     14  C   UNL     1      44.166   2.734  11.448  0.00  0.00    +0.000 C 
ATOM     15  O   UNL     1      42.967   2.514  11.512  0.00  0.00    +0.000 OA
BRANCH  14  16
ATOM     16  O   UNL     1      44.964   2.735  12.529  0.00  0.00    +0.000 OA
ATOM     17  H   UNL     1      44.507   2.654  13.385  0.00  0.00    +0.000 HD
ENDBRANCH  14  16
ENDBRANCH  13  14
ENDBRANCH   6   8
ENDBRANCH   1   2
BRANCH   1  19
ATOM     18  C   UNL     1      49.817   7.565  11.553  0.00  0.00    +0.000 C 
ATOM     19  C   UNL     1      48.635   7.312  12.501  0.00  0.00    +0.000 C 
BRANCH  19  20
ATOM     20  N   UNL     1      49.100   7.486  13.889  0.00  0.00    +0.000 N 
ATOM     21  C   UNL     1      48.665   6.519  14.806  0.00  0.00    +0.000 A 
ATOM     22  C   UNL     1      49.125   6.594  16.116  0.00  0.00    +0.000 A 
ATOM     23  C   UNL     1      48.705   5.643  17.052  0.00  0.00    +0.000 A 
ATOM     24  C   UNL     1      47.829   4.630  16.661  0.00  0.00    +0.000 A 
ATOM     25  C   UNL     1      47.437   4.620  15.335  0.00  0.00    +0.000 A 
ATOM     26  N   UNL     1      47.837   5.531  14.414  0.00  0.00    +0.000 NA
ATOM     27  H   UNL     1      48.901   8.408  14.268  0.00  0.00    +0.000 HD
BRANCH  24  28
ATOM     28  C   UNL     1      47.366   3.638  17.659  0.00  0.00    +0.000 C 
ATOM     29  N   UNL     1      48.001   3.566  18.869  0.00  0.00    +0.000 N 
ATOM     30  O   UNL     1      46.440   2.881  17.412  0.00  0.00    +0.000 OA
ATOM     31  H   UNL     1      48.790   4.119  19.164  0.00  0.00    +0.000 HD
ATOM     32  H   UNL     1      47.660   2.862  19.513  0.00  0.00    +0.000 HD
ENDBRANCH  24  28
ENDBRANCH  19  20
ENDBRANCH   1  19
TORSDOF 7
ENDMDL
MODEL 2
REMARK VINA RESULT:    -7.366      3.487      7.759
REMARK INTER + INTRA:         -11.479
REMARK INTER:                 -10.597
REMARK INTRA:                  -0.882
REMARK UNBOUND:                -1.313
REMARK  Name = 
REMARK  8 active torsions:
REMARK  status: ('A' for Active; 'I' for Inactive)
REMARK    1  A    between atoms: C_1  and  C_2
REMARK    2  A    between atoms: C_2  and  C_3
REMARK    3  A    between atoms: C_2  and  N_19
REMARK    4  A    between atoms: C_3  and  C_4
REMARK    5  A    between atoms: C_8  and  C_9
REMARK    6  A    between atoms: C_14  and  C_15
REMARK    7  A    between atoms: C_15  and  O_17
REMARK    8  A    between atoms: C_23  and  C_24
REMARK                            x       y       z     vdW  Elec       q    Type
REMARK                         _______ _______ _______ _____ _____    ______ ____
ROOT
ATOM      1  C   UNL     1      45.332   3.680  12.613  0.00  0.00    +0.000 C 
ENDROOT
BRANCH   1   2
ATOM      2  C   UNL     1      45.659   5.158  12.671  0.00  0.00    +0.000 A 
ATOM      3  C   UNL     1      44.649   6.125  12.661  0.00  0.00    +0.000 A 
ATOM      4  C   UNL     1      44.973   7.474  12.598  0.00  0.00    +0.000 A 
ATOM      5  C   UNL     1      46.313   7.867  12.565  0.00  0.00    +0.000 A 
ATOM      6  C   UNL     1      47.363   6.931  12.656  0.00  0.00    +0.000 A 
ATOM      7  C   UNL     1      47.001   5.574  12.716  0.00  0.00    +0.000 A 
BRANCH   6   8
ATOM      8  C   UNL     1      48.780   7.376  12.764  0.00  0.00    +0.000 A 
ATOM      9  C   UNL     1      49.417   7.827  11.580  0.00  0.00    +0.000 A 
ATOM     10  C   UNL     1      50.705   8.365  11.574  0.00  0.00    +0.000 A 
ATOM     11  C   UNL     1      51.403   8.489  12.765  0.00  0.00    +0.000 A 
ATOM     12  C   UNL     1      50.822   8.044  13.949  0.00  0.00    +0.000 A 
ATOM     13  C   UNL     1      49.533   7.468  13.960  0.00  0.00    +0.000 A 
BRANCH  13  14
ATOM     14  C   UNL     1      49.080   7.026  15.312  0.00  0.00    +0.000 C 
ATOM     15  O   UNL     1      49.336   5.915  15.748  0.00  0.00    +0.000 OA
BRANCH  14  16
ATOM     16  O   UNL     1      48.298   7.902  15.965  0.00  0.00    +0.000 OA
ATOM     17  H   UNL     1      48.028   7.632  16.861  0.00  0.00    +0.000 HD
ENDBRANCH  14  16
ENDBRANCH  13  14
ENDBRANCH   6   8
ENDBRANCH   1   2
BRANCH   1  19
ATOM     18  C   UNL     1      43.019   3.371  11.570  0.00  0.00    +0.000 C 
ATOM     19  C   UNL     1      44.535   3.272  11.349  0.00  0.00    +0.000 C 
BRANCH  19  20
ATOM     20  N   UNL     1      44.906   4.152  10.227  0.00  0.00    +0.000 N 
ATOM     21  C   UNL     1      45.508   3.523   9.128  0.00  0.00    +0.000 A 
ATOM     22  C   UNL     1      45.819   4.292   8.012  0.00  0.00    +0.000 A 
ATOM     23  C   UNL     1      46.423   3.689   6.904  0.00  0.00    +0.000 A 
ATOM     24  C   UNL     1      46.707   2.324   6.929  0.00  0.00    +0.000 A 
ATOM     25  C   UNL     1      46.346   1.632   8.071  0.00  0.00    +0.000 A 
ATOM     26  N   UNL     1      45.757   2.199   9.153  0.00  0.00    +0.000 NA
ATOM     27  H   UNL     1      45.482   4.942  10.506  0.00  0.00    +0.000 HD
BRANCH  24  28
ATOM     28  C   UNL     1      47.367   1.693   5.763  0.00  0.00    +0.000 C 
ATOM     29  N   UNL     1      48.124   2.467   4.928  0.00  0.00    +0.000 N 
ATOM     30  O   UNL     1      47.236   0.500   5.534  0.00  0.00    +0.000 OA
ATOM     31  H   UNL     1      48.275   3.460   5.005  0.00  0.00    +0.000 HD
ATOM     32  H   UNL     1      48.543   1.995   4.136  0.00  0.00    +0.000 HD
ENDBRANCH  24  28
ENDBRANCH  19  20
ENDBRANCH   1  19
TORSDOF 7
ENDMDL
MODEL 3
REMARK VINA RESULT:    -7.040      1.648      2.503
REMARK INTER + INTRA:         -11.028
REMARK INTER:                  -9.916
REMARK INTRA:                  -1.112
REMARK UNBOUND:                -1.313
REMARK  Name = 
REMARK  8 active torsions:
REMARK  status: ('A' for Active; 'I' for Inactive)
REMARK    1  A    between atoms: C_1  and  C_2
REMARK    2  A    between atoms: C_2  and  C_3
REMARK    3  A    between atoms: C_2  and  N_19
REMARK    4  A    between atoms: C_3  and  C_4
REMARK    5  A    between atoms: C_8  and  C_9
REMARK    6  A    between atoms: C_14  and  C_15
REMARK    7  A    between atoms: C_15  and  O_17
REMARK    8  A    between atoms: C_23  and  C_24
REMARK                            x       y       z     vdW  Elec       q    Type
REMARK                         _______ _______ _______ _____ _____    ______ ____
ROOT
ATOM      1  C   UNL     1      47.976   8.885  13.372  0.00  0.00    +0.000 C 
ENDROOT
BRANCH   1   2
ATOM      2  C   UNL     1      46.710   8.535  12.618  0.00  0.00    +0.000 A 
ATOM      3  C   UNL     1      45.945   9.523  11.988  0.00  0.00    +0.000 A 
ATOM      4  C   UNL     1      44.729   9.197  11.402  0.00  0.00    +0.000 A 
ATOM      5  C   UNL     1      44.278   7.875  11.423  0.00  0.00    +0.000 A 
ATOM      6  C   UNL     1      45.054   6.836  11.974  0.00  0.00    +0.000 A 
ATOM      7  C   UNL     1      46.278   7.199  12.561  0.00  0.00    +0.000 A 
BRANCH   6   8
ATOM      8  C   UNL     1      44.624   5.415  11.861  0.00  0.00    +0.000 A 
ATOM      9  C   UNL     1      43.993   4.829  12.987  0.00  0.00    +0.000 A 
ATOM     10  C   UNL     1      43.453   3.542  12.966  0.00  0.00    +0.000 A 
ATOM     11  C   UNL     1      43.510   2.792  11.802  0.00  0.00    +0.000 A 
ATOM     12  C   UNL     1      44.136   3.322  10.677  0.00  0.00    +0.000 A 
ATOM     13  C   UNL     1      44.713   4.610  10.698  0.00  0.00    +0.000 A 
BRANCH  13  14
ATOM     14  C   UNL     1      45.360   5.004   9.413  0.00  0.00    +0.000 C 
ATOM     15  O   UNL     1      46.337   5.734   9.377  0.00  0.00    +0.000 OA
BRANCH  14  16
ATOM     16  O   UNL     1      44.734   4.572   8.304  0.00  0.00    +0.000 OA
ATOM     17  H   UNL     1      43.780   4.762   8.264  0.00  0.00    +0.000 HD
ENDBRANCH  14  16
ENDBRANCH  13  14
ENDBRANCH   6   8
ENDBRANCH   1   2
BRANCH   1  19
ATOM     18  C   UNL     1      50.170   8.126  12.301  0.00  0.00    +0.000 C 
ATOM     19  C   UNL     1      49.061   7.782  13.307  0.00  0.00    +0.000 C 
BRANCH  19  20
ATOM     20  N   UNL     1      49.669   7.609  14.638  0.00  0.00    +0.000 N 
ATOM     21  C   UNL     1      49.163   6.555  15.411  0.00  0.00    +0.000 A 
ATOM     22  C   UNL     1      49.743   6.303  16.649  0.00  0.00    +0.000 A 
ATOM     23  C   UNL     1      49.254   5.259  17.441  0.00  0.00    +0.000 A 
ATOM     24  C   UNL     1      48.190   4.483  16.982  0.00  0.00    +0.000 A 
ATOM     25  C   UNL     1      47.686   4.792  15.732  0.00  0.00    +0.000 A 
ATOM     26  N   UNL     1      48.149   5.797  14.949  0.00  0.00    +0.000 NA
ATOM     27  H   UNL     1      49.662   8.458  15.198  0.00  0.00    +0.000 HD
BRANCH  24  28
ATOM     28  C   UNL     1      47.659   3.393  17.833  0.00  0.00    +0.000 C 
ATOM     29  N   UNL     1      48.332   3.052  18.974  0.00  0.00    +0.000 N 
ATOM     30  O   UNL     1      46.641   2.792  17.524  0.00  0.00    +0.000 OA
ATOM     31  H   UNL     1      49.191   3.459  19.306  0.00  0.00    +0.000 HD
ATOM     32  H   UNL     1      47.939   2.291  19.515  0.00  0.00    +0.000 HD
ENDBRANCH  24  28
ENDBRANCH  19  20
ENDBRANCH   1  19
TORSDOF 7
ENDMDL
MODEL 4
REMARK VINA RESULT:    -6.866      1.549      2.009
REMARK INTER + INTRA:         -10.788
REMARK INTER:                  -9.578
REMARK INTRA:                  -1.210
REMARK UNBOUND:                -1.313
REMARK  Name = 
REMARK  8 active torsions:
REMARK  status: ('A' for Active; 'I' for Inactive)
REMARK    1  A    between atoms: C_1  and  C_2
REMARK    2  A    between atoms: C_2  and  C_3
REMARK    3  A    between atoms: C_2  and  N_19
REMARK    4  A    between atoms: C_3  and  C_4
REMARK    5  A    between atoms: C_8  and  C_9
REMARK    6  A    between atoms: C_14  and  C_15
REMARK    7  A    between atoms: C_15  and  O_17
REMARK    8  A    between atoms: C_23  and  C_24
REMARK                            x       y       z     vdW  Elec       q    Type
REMARK                         _______ _______ _______ _____ _____    ______ ____
ROOT
ATOM      1  C   UNL     1      49.196   8.509  11.913  0.00  0.00    +0.000 C 
ENDROOT
BRANCH   1   2
ATOM      2  C   UNL     1      47.736   8.116  11.995  0.00  0.00    +0.000 A 
ATOM      3  C   UNL     1      46.817   8.890  12.712  0.00  0.00    +0.000 A 
ATOM      4  C   UNL     1      45.508   8.451  12.871  0.00  0.00    +0.000 A 
ATOM      5  C   UNL     1      45.104   7.245  12.295  0.00  0.00    +0.000 A 
ATOM      6  C   UNL     1      45.974   6.475  11.496  0.00  0.00    +0.000 A 
ATOM      7  C   UNL     1      47.291   6.946  11.358  0.00  0.00    +0.000 A 
BRANCH   6   8
ATOM      8  C   UNL     1      45.485   5.269  10.774  0.00  0.00    +0.000 A 
ATOM      9  C   UNL     1      45.517   5.296   9.357  0.00  0.00    +0.000 A 
ATOM     10  C   UNL     1      45.184   4.189   8.573  0.00  0.00    +0.000 A 
ATOM     11  C   UNL     1      44.821   3.000   9.183  0.00  0.00    +0.000 A 
ATOM     12  C   UNL     1      44.759   2.933  10.572  0.00  0.00    +0.000 A 
ATOM     13  C   UNL     1      45.063   4.056  11.373  0.00  0.00    +0.000 A 
BRANCH  13  14
ATOM     14  C   UNL     1      44.921   3.810  12.838  0.00  0.00    +0.000 C 
ATOM     15  O   UNL     1      45.889   3.647  13.563  0.00  0.00    +0.000 OA
BRANCH  14  16
ATOM     16  O   UNL     1      43.655   3.689  13.274  0.00  0.00    +0.000 OA
ATOM     17  H   UNL     1      43.267   4.497  13.654  0.00  0.00    +0.000 HD
ENDBRANCH  14  16
ENDBRANCH  13  14
ENDBRANCH   6   8
ENDBRANCH   1   2
BRANCH   1  19
ATOM     18  C   UNL     1      51.542   8.240  12.893  0.00  0.00    +0.000 C 
ATOM     19  C   UNL     1      50.040   8.006  13.111  0.00  0.00    +0.000 C 
BRANCH  19  20
ATOM     20  N   UNL     1      49.627   8.713  14.336  0.00  0.00    +0.000 N 
ATOM     21  C   UNL     1      49.213   7.901  15.401  0.00  0.00    +0.000 A 
ATOM     22  C   UNL     1      48.874   8.509  16.606  0.00  0.00    +0.000 A 
ATOM     23  C   UNL     1      48.456   7.722  17.684  0.00  0.00    +0.000 A 
ATOM     24  C   UNL     1      48.381   6.337  17.539  0.00  0.00    +0.000 A 
ATOM     25  C   UNL     1      48.755   5.815  16.314  0.00  0.00    +0.000 A 
ATOM     26  N   UNL     1      49.167   6.562  15.260  0.00  0.00    +0.000 NA
ATOM     27  H   UNL     1      48.918   9.423  14.172  0.00  0.00    +0.000 HD
BRANCH  24  28
ATOM     28  C   UNL     1      47.915   5.508  18.675  0.00  0.00    +0.000 C 
ATOM     29  N   UNL     1      46.583   5.496  18.987  0.00  0.00    +0.000 N 
ATOM     30  O   UNL     1      48.701   4.849  19.339  0.00  0.00    +0.000 OA
ATOM     31  H   UNL     1      45.856   6.021  18.527  0.00  0.00    +0.000 HD
ATOM     32  H   UNL     1      46.314   4.926  19.781  0.00  0.00    +0.000 HD
ENDBRANCH  24  28
ENDBRANCH  19  20
ENDBRANCH   1  19
TORSDOF 7
ENDMDL
MODEL 5
REMARK VINA RESULT:    -6.836      1.614      2.079
REMARK INTER + INTRA:         -10.746
REMARK INTER:                 -10.143
REMARK INTRA:                  -0.604
REMARK UNBOUND:                -1.313
REMARK  Name = 
REMARK  8 active torsions:
REMARK  status: ('A' for Active; 'I' for Inactive)
REMARK    1  A    between atoms: C_1  and  C_2
REMARK    2  A    between atoms: C_2  and  C_3
REMARK    3  A    between atoms: C_2  and  N_19
REMARK    4  A    between atoms: C_3  and  C_4
REMARK    5  A    between atoms: C_8  and  C_9
REMARK    6  A    between atoms: C_14  and  C_15
REMARK    7  A    between atoms: C_15  and  O_17
REMARK    8  A    between atoms: C_23  and  C_24
REMARK                            x       y       z     vdW  Elec       q    Type
REMARK                         _______ _______ _______ _____ _____    ______ ____
ROOT
ATOM      1  C   UNL     1      48.641   7.867  12.609  0.00  0.00    +0.000 C 
ENDROOT
BRANCH   1   2
ATOM      2  C   UNL     1      47.236   7.641  12.091  0.00  0.00    +0.000 A 
ATOM      3  C   UNL     1      46.218   8.571  12.326  0.00  0.00    +0.000 A 
ATOM      4  C   UNL     1      44.912   8.290  11.945  0.00  0.00    +0.000 A 
ATOM      5  C   UNL     1      44.619   7.083  11.306  0.00  0.00    +0.000 A 
ATOM      6  C   UNL     1      45.626   6.154  10.976  0.00  0.00    +0.000 A 
ATOM      7  C   UNL     1      46.935   6.468  11.378  0.00  0.00    +0.000 A 
BRANCH   6   8
ATOM      8  C   UNL     1      45.316   4.942  10.169  0.00  0.00    +0.000 A 
ATOM      9  C   UNL     1      45.732   4.933   8.813  0.00  0.00    +0.000 A 
ATOM     10  C   UNL     1      45.591   3.816   7.988  0.00  0.00    +0.000 A 
ATOM     11  C   UNL     1      45.041   2.651   8.496  0.00  0.00    +0.000 A 
ATOM     12  C   UNL     1      44.603   2.620   9.817  0.00  0.00    +0.000 A 
ATOM     13  C   UNL     1      44.712   3.755  10.651  0.00  0.00    +0.000 A 
BRANCH  13  14
ATOM     14  C   UNL     1      44.171   3.548  12.026  0.00  0.00    +0.000 C 
ATOM     15  O   UNL     1      44.865   3.133  12.939  0.00  0.00    +0.000 OA
BRANCH  14  16
ATOM     16  O   UNL     1      42.850   3.764  12.157  0.00  0.00    +0.000 OA
ATOM     17  H   UNL     1      42.550   3.974  13.059  0.00  0.00    +0.000 HD
ENDBRANCH  14  16
ENDBRANCH  13  14
ENDBRANCH   6   8
ENDBRANCH   1   2
BRANCH   1  19
ATOM     18  C   UNL     1      48.174   8.948  14.878  0.00  0.00    +0.000 C 
ATOM     19  C   UNL     1      48.764   7.733  14.146  0.00  0.00    +0.000 C 
BRANCH  19  20
ATOM     20  N   UNL     1      48.053   6.522  14.594  0.00  0.00    +0.000 N 
ATOM     21  C   UNL     1      48.397   6.045  15.866  0.00  0.00    +0.000 A 
ATOM     22  C   UNL     1      47.711   4.944  16.369  0.00  0.00    +0.000 A 
ATOM     23  C   UNL     1      48.037   4.446  17.635  0.00  0.00    +0.000 A 
ATOM     24  C   UNL     1      49.046   5.058  18.379  0.00  0.00    +0.000 A 
ATOM     25  C   UNL     1      49.662   6.158  17.811  0.00  0.00    +0.000 A 
ATOM     26  N   UNL     1      49.357   6.656  16.588  0.00  0.00    +0.000 NA
ATOM     27  H   UNL     1      48.108   5.754  13.931  0.00  0.00    +0.000 HD
BRANCH  24  28
ATOM     28  C   UNL     1      49.406   4.513  19.709  0.00  0.00    +0.000 C 
ATOM     29  N   UNL     1      48.527   3.683  20.347  0.00  0.00    +0.000 N 
ATOM     30  O   UNL     1      50.465   4.806  20.244  0.00  0.00    +0.000 OA
ATOM     31  H   UNL     1      47.619   3.401  20.013  0.00  0.00    +0.000 HD
ATOM     32  H   UNL     1      48.809   3.348  21.261  0.00  0.00    +0.000 HD
ENDBRANCH  24  28
ENDBRANCH  19  20
ENDBRANCH   1  19
TORSDOF 7
ENDMDL
MODEL 6
REMARK VINA RESULT:    -6.818      2.421      4.035
REMARK INTER + INTRA:         -10.721
REMARK INTER:                  -9.185
REMARK INTRA:                  -1.536
REMARK UNBOUND:                -1.313
REMARK  Name = 
REMARK  8 active torsions:
REMARK  status: ('A' for Active; 'I' for Inactive)
REMARK    1  A    between atoms: C_1  and  C_2
REMARK    2  A    between atoms: C_2  and  C_3
REMARK    3  A    between atoms: C_2  and  N_19
REMARK    4  A    between atoms: C_3  and  C_4
REMARK    5  A    between atoms: C_8  and  C_9
REMARK    6  A    between atoms: C_14  and  C_15
REMARK    7  A    between atoms: C_15  and  O_17
REMARK    8  A    between atoms: C_23  and  C_24
REMARK                            x       y       z     vdW  Elec       q    Type
REMARK                         _______ _______ _______ _____ _____    ______ ____
ROOT
ATOM      1  C   UNL     1      48.205   9.284  15.731  0.00  0.00    +0.000 C 
ENDROOT
BRANCH   1   2
ATOM      2  C   UNL     1      48.478   8.421  14.517  0.00  0.00    +0.000 A 
ATOM      3  C   UNL     1      49.704   8.482  13.845  0.00  0.00    +0.000 A 
ATOM      4  C   UNL     1      49.892   7.770  12.668  0.00  0.00    +0.000 A 
ATOM      5  C   UNL     1      48.861   6.974  12.164  0.00  0.00    +0.000 A 
ATOM      6  C   UNL     1      47.640   6.819  12.850  0.00  0.00    +0.000 A 
ATOM      7  C   UNL     1      47.481   7.555  14.037  0.00  0.00    +0.000 A 
BRANCH   6   8
ATOM      8  C   UNL     1      46.609   5.857  12.374  0.00  0.00    +0.000 A 
ATOM      9  C   UNL     1      45.929   6.168  11.169  0.00  0.00    +0.000 A 
ATOM     10  C   UNL     1      45.020   5.295  10.568  0.00  0.00    +0.000 A 
ATOM     11  C   UNL     1      44.766   4.062  11.146  0.00  0.00    +0.000 A 
ATOM     12  C   UNL     1      45.399   3.722  12.339  0.00  0.00    +0.000 A 
ATOM     13  C   UNL     1      46.296   4.610  12.971  0.00  0.00    +0.000 A 
BRANCH  13  14
ATOM     14  C   UNL     1      46.861   4.091  14.251  0.00  0.00    +0.000 C 
ATOM     15  O   UNL     1      47.752   3.258  14.274  0.00  0.00    +0.000 OA
BRANCH  14  16
ATOM     16  O   UNL     1      46.252   4.537  15.363  0.00  0.00    +0.000 OA
ATOM     17  H   UNL     1      46.613   4.195  16.201  0.00  0.00    +0.000 HD
ENDBRANCH  14  16
ENDBRANCH  13  14
ENDBRANCH   6   8
ENDBRANCH   1   2
BRANCH   1  19
ATOM     18  C   UNL     1      48.814   9.771  18.165  0.00  0.00    +0.000 C 
ATOM     19  C   UNL     1      48.825   8.730  17.037  0.00  0.00    +0.000 C 
BRANCH  19  20
ATOM     20  N   UNL     1      48.064   7.548  17.481  0.00  0.00    +0.000 N 
ATOM     21  C   UNL     1      48.758   6.329  17.458  0.00  0.00    +0.000 A 
ATOM     22  C   UNL     1      48.112   5.190  17.928  0.00  0.00    +0.000 A 
ATOM     23  C   UNL     1      48.780   3.962  17.914  0.00  0.00    +0.000 A 
ATOM     24  C   UNL     1      50.086   3.891  17.428  0.00  0.00    +0.000 A 
ATOM     25  C   UNL     1      50.657   5.075  16.999  0.00  0.00    +0.000 A 
ATOM     26  N   UNL     1      50.027   6.275  17.009  0.00  0.00    +0.000 NA
ATOM     27  H   UNL     1      47.181   7.430  16.992  0.00  0.00    +0.000 HD
BRANCH  24  28
ATOM     28  C   UNL     1      50.783   2.585  17.392  0.00  0.00    +0.000 C 
ATOM     29  N   UNL     1      51.845   2.375  18.227  0.00  0.00    +0.000 N 
ATOM     30  O   UNL     1      50.430   1.704  16.623  0.00  0.00    +0.000 OA
ATOM     31  H   UNL     1      52.236   3.038  18.877  0.00  0.00    +0.000 HD
ATOM     32  H   UNL     1      52.300   1.471  18.156  0.00  0.00    +0.000 HD
ENDBRANCH  24  28
ENDBRANCH  19  20
ENDBRANCH   1  19
TORSDOF 7
ENDMDL
MODEL 7
REMARK VINA RESULT:    -6.813      2.352      6.728
REMARK INTER + INTRA:         -10.715
REMARK INTER:                  -9.302
REMARK INTRA:                  -1.413
REMARK UNBOUND:                -1.313
REMARK  Name = 
REMARK  8 active torsions:
REMARK  status: ('A' for Active; 'I' for Inactive)
REMARK    1  A    between atoms: C_1  and  C_2
REMARK    2  A    between atoms: C_2  and  C_3
REMARK    3  A    between atoms: C_2  and  N_19
REMARK    4  A    between atoms: C_3  and  C_4
REMARK    5  A    between atoms: C_8  and  C_9
REMARK    6  A    between atoms: C_14  and  C_15
REMARK    7  A    between atoms: C_15  and  O_17
REMARK    8  A    between atoms: C_23  and  C_24
REMARK                            x       y       z     vdW  Elec       q    Type
REMARK                         _______ _______ _______ _____ _____    ______ ____
ROOT
ATOM      1  C   UNL     1      48.746   8.610  13.782  0.00  0.00    +0.000 C 
ENDROOT
BRANCH   1   2
ATOM      2  C   UNL     1      48.726   8.045  15.187  0.00  0.00    +0.000 A 
ATOM      3  C   UNL     1      48.257   8.802  16.266  0.00  0.00    +0.000 A 
ATOM      4  C   UNL     1      48.356   8.308  17.561  0.00  0.00    +0.000 A 
ATOM      5  C   UNL     1      48.907   7.044  17.784  0.00  0.00    +0.000 A 
ATOM      6  C   UNL     1      49.317   6.215  16.720  0.00  0.00    +0.000 A 
ATOM      7  C   UNL     1      49.205   6.745  15.423  0.00  0.00    +0.000 A 
BRANCH   6   8
ATOM      8  C   UNL     1      49.767   4.818  16.967  0.00  0.00    +0.000 A 
ATOM      9  C   UNL     1      51.100   4.628  17.412  0.00  0.00    +0.000 A 
ATOM     10  C   UNL     1      51.603   3.378  17.776  0.00  0.00    +0.000 A 
ATOM     11  C   UNL     1      50.781   2.264  17.724  0.00  0.00    +0.000 A 
ATOM     12  C   UNL     1      49.470   2.402  17.276  0.00  0.00    +0.000 A 
ATOM     13  C   UNL     1      48.961   3.656  16.875  0.00  0.00    +0.000 A 
BRANCH  13  14
ATOM     14  C   UNL     1      47.547   3.612  16.402  0.00  0.00    +0.000 C 
ATOM     15  O   UNL     1      46.608   3.524  17.176  0.00  0.00    +0.000 OA
BRANCH  14  16
ATOM     16  O   UNL     1      47.394   3.582  15.066  0.00  0.00    +0.000 OA
ATOM     17  H   UNL     1      47.874   2.868  14.609  0.00  0.00    +0.000 HD
ENDBRANCH  14  16
ENDBRANCH  13  14
ENDBRANCH   6   8
ENDBRANCH   1   2
BRANCH   1  19
ATOM     18  C   UNL     1      47.007  10.221  12.824  0.00  0.00    +0.000 C 
ATOM     19  C   UNL     1      47.338   8.758  13.155  0.00  0.00    +0.000 C 
BRANCH  19  20
ATOM     20  N   UNL     1      47.266   7.966  11.913  0.00  0.00    +0.000 N 
ATOM     21  C   UNL     1      46.383   6.877  11.932  0.00  0.00    +0.000 A 
ATOM     22  C   UNL     1      46.224   6.133  10.768  0.00  0.00    +0.000 A 
ATOM     23  C   UNL     1      45.352   5.040  10.760  0.00  0.00    +0.000 A 
ATOM     24  C   UNL     1      44.652   4.707  11.920  0.00  0.00    +0.000 A 
ATOM     25  C   UNL     1      44.856   5.512  13.026  0.00  0.00    +0.000 A 
ATOM     26  N   UNL     1      45.694   6.577  13.050  0.00  0.00    +0.000 NA
ATOM     27  H   UNL     1      48.173   7.646  11.586  0.00  0.00    +0.000 HD
BRANCH  24  28
ATOM     28  C   UNL     1      43.747   3.534  11.916  0.00  0.00    +0.000 C 
ATOM     29  N   UNL     1      44.033   2.470  12.727  0.00  0.00    +0.000 N 
ATOM     30  O   UNL     1      42.763   3.500  11.193  0.00  0.00    +0.000 OA
ATOM     31  H   UNL     1      44.829   2.381  13.337  0.00  0.00    +0.000 HD
ATOM     32  H   UNL     1      43.395   1.685  12.678  0.00  0.00    +0.000 HD
ENDBRANCH  24  28
ENDBRANCH  19  20
ENDBRANCH   1  19
TORSDOF 7
ENDMDL
MODEL 8
REMARK VINA RESULT:    -6.594      2.868      7.445
REMARK INTER + INTRA:         -10.413
REMARK INTER:                  -9.628
REMARK INTRA:                  -0.785
REMARK UNBOUND:                -1.313
REMARK  Name = 
REMARK  8 active torsions:
REMARK  status: ('A' for Active; 'I' for Inactive)
REMARK    1  A    between atoms: C_1  and  C_2
REMARK    2  A    between atoms: C_2  and  C_3
REMARK    3  A    between atoms: C_2  and  N_19
REMARK    4  A    between atoms: C_3  and  C_4
REMARK    5  A    between atoms: C_8  and  C_9
REMARK    6  A    between atoms: C_14  and  C_15
REMARK    7  A    between atoms: C_15  and  O_17
REMARK    8  A    between atoms: C_23  and  C_24
REMARK                            x       y       z     vdW  Elec       q    Type
REMARK                         _______ _______ _______ _____ _____    ______ ____
ROOT
ATOM      1  C   UNL     1      49.450   8.254  14.868  0.00  0.00    +0.000 C 
ENDROOT
BRANCH   1   2
ATOM      2  C   UNL     1      49.393   7.394  16.114  0.00  0.00    +0.000 A 
ATOM      3  C   UNL     1      48.526   7.702  17.168  0.00  0.00    +0.000 A 
ATOM      4  C   UNL     1      48.571   6.970  18.347  0.00  0.00    +0.000 A 
ATOM      5  C   UNL     1      49.471   5.909  18.473  0.00  0.00    +0.000 A 
ATOM      6  C   UNL     1      50.305   5.513  17.408  0.00  0.00    +0.000 A 
ATOM      7  C   UNL     1      50.236   6.276  16.230  0.00  0.00    +0.000 A 
BRANCH   6   8
ATOM      8  C   UNL     1      51.152   4.293  17.511  0.00  0.00    +0.000 A 
ATOM      9  C   UNL     1      52.518   4.471  17.847  0.00  0.00    +0.000 A 
ATOM     10  C   UNL     1      53.385   3.400  18.075  0.00  0.00    +0.000 A 
ATOM     11  C   UNL     1      52.910   2.102  17.991  0.00  0.00    +0.000 A 
ATOM     12  C   UNL     1      51.580   1.880  17.646  0.00  0.00    +0.000 A 
ATOM     13  C   UNL     1      50.703   2.955  17.383  0.00  0.00    +0.000 A 
BRANCH  13  14
ATOM     14  C   UNL     1      49.323   2.532  17.005  0.00  0.00    +0.000 C 
ATOM     15  O   UNL     1      48.361   2.744  17.725  0.00  0.00    +0.000 OA
BRANCH  14  16
ATOM     16  O   UNL     1      49.237   1.822  15.867  0.00  0.00    +0.000 OA
ATOM     17  H   UNL     1      49.328   2.338  15.046  0.00  0.00    +0.000 HD
ENDBRANCH  14  16
ENDBRANCH  13  14
ENDBRANCH   6   8
ENDBRANCH   1   2
BRANCH   1  19
ATOM     18  C   UNL     1      49.560   7.434  12.449  0.00  0.00    +0.000 C 
ATOM     19  C   UNL     1      48.661   7.666  13.673  0.00  0.00    +0.000 C 
BRANCH  19  20
ATOM     20  N   UNL     1      48.059   6.379  14.064  0.00  0.00    +0.000 N 
ATOM     21  C   UNL     1      46.819   6.081  13.482  0.00  0.00    +0.000 A 
ATOM     22  C   UNL     1      46.233   4.851  13.763  0.00  0.00    +0.000 A 
ATOM     23  C   UNL     1      44.996   4.529  13.197  0.00  0.00    +0.000 A 
ATOM     24  C   UNL     1      44.361   5.445  12.358  0.00  0.00    +0.000 A 
ATOM     25  C   UNL     1      45.023   6.636  12.118  0.00  0.00    +0.000 A 
ATOM     26  N   UNL     1      46.225   6.962  12.654  0.00  0.00    +0.000 NA
ATOM     27  H   UNL     1      47.984   6.259  15.071  0.00  0.00    +0.000 HD
BRANCH  24  28
ATOM     28  C   UNL     1      43.039   5.112  11.779  0.00  0.00    +0.000 C 
ATOM     29  N   UNL     1      42.064   6.071  11.752  0.00  0.00    +0.000 N 
ATOM     30  O   UNL     1      42.807   3.996  11.340  0.00  0.00    +0.000 OA
ATOM     31  H   UNL     1      42.137   7.009  12.111  0.00  0.00    +0.000 HD
ATOM     32  H   UNL     1      41.172   5.792  11.361  0.00  0.00    +0.000 HD
ENDBRANCH  24  28
ENDBRANCH  19  20
ENDBRANCH   1  19
TORSDOF 7
ENDMDL
MODEL 9
REMARK VINA RESULT:    -6.259      2.366      7.162
REMARK INTER + INTRA:          -9.951
REMARK INTER:                  -8.425
REMARK INTRA:                  -1.526
REMARK UNBOUND:                -1.313
REMARK  Name = 
REMARK  8 active torsions:
REMARK  status: ('A' for Active; 'I' for Inactive)
REMARK    1  A    between atoms: C_1  and  C_2
REMARK    2  A    between atoms: C_2  and  C_3
REMARK    3  A    between atoms: C_2  and  N_19
REMARK    4  A    between atoms: C_3  and  C_4
REMARK    5  A    between atoms: C_8  and  C_9
REMARK    6  A    between atoms: C_14  and  C_15
REMARK    7  A    between atoms: C_15  and  O_17
REMARK    8  A    between atoms: C_23  and  C_24
REMARK                            x       y       z     vdW  Elec       q    Type
REMARK                         _______ _______ _______ _____ _____    ______ ____
ROOT
ATOM      1  C   UNL     1      49.637   7.880  12.660  0.00  0.00    +0.000 C 
ENDROOT
BRANCH   1   2
ATOM      2  C   UNL     1      50.186   7.709  14.061  0.00  0.00    +0.000 A 
ATOM      3  C   UNL     1      51.526   7.987  14.353  0.00  0.00    +0.000 A 
ATOM      4  C   UNL     1      52.037   7.713  15.615  0.00  0.00    +0.000 A 
ATOM      5  C   UNL     1      51.206   7.177  16.602  0.00  0.00    +0.000 A 
ATOM      6  C   UNL     1      49.832   6.957  16.375  0.00  0.00    +0.000 A 
ATOM      7  C   UNL     1      49.347   7.243  15.088  0.00  0.00    +0.000 A 
BRANCH   6   8
ATOM      8  C   UNL     1      48.934   6.521  17.480  0.00  0.00    +0.000 A 
ATOM      9  C   UNL     1      48.571   7.489  18.450  0.00  0.00    +0.000 A 
ATOM     10  C   UNL     1      47.654   7.228  19.470  0.00  0.00    +0.000 A 
ATOM     11  C   UNL     1      47.049   5.985  19.548  0.00  0.00    +0.000 A 
ATOM     12  C   UNL     1      47.389   4.999  18.627  0.00  0.00    +0.000 A 
ATOM     13  C   UNL     1      48.339   5.242  17.611  0.00  0.00    +0.000 A 
BRANCH  13  14
ATOM     14  C   UNL     1      48.597   4.066  16.729  0.00  0.00    +0.000 C 
ATOM     15  O   UNL     1      49.526   3.301  16.927  0.00  0.00    +0.000 OA
BRANCH  14  16
ATOM     16  O   UNL     1      47.791   3.970  15.658  0.00  0.00    +0.000 OA
ATOM     17  H   UNL     1      47.606   3.063  15.355  0.00  0.00    +0.000 HD
ENDBRANCH  14  16
ENDBRANCH  13  14
ENDBRANCH   6   8
ENDBRANCH   1   2
BRANCH   1  19
ATOM     18  C   UNL     1      47.874   9.727  12.528  0.00  0.00    +0.000 C 
ATOM     19  C   UNL     1      48.125   8.215  12.624  0.00  0.00    +0.000 C 
BRANCH  19  20
ATOM     20  N   UNL     1      47.502   7.559  11.461  0.00  0.00    +0.000 N 
ATOM     21  C   UNL     1      46.597   6.528  11.751  0.00  0.00    +0.000 A 
ATOM     22  C   UNL     1      45.929   5.917  10.695  0.00  0.00    +0.000 A 
ATOM     23  C   UNL     1      45.022   4.884  10.957  0.00  0.00    +0.000 A 
ATOM     24  C   UNL     1      44.799   4.478  12.272  0.00  0.00    +0.000 A 
ATOM     25  C   UNL     1      45.492   5.153  13.261  0.00  0.00    +0.000 A 
ATOM     26  N   UNL     1      46.370   6.158  13.026  0.00  0.00    +0.000 NA
ATOM     27  H   UNL     1      48.177   7.219  10.781  0.00  0.00    +0.000 HD
BRANCH  24  28
ATOM     28  C   UNL     1      43.857   3.368  12.545  0.00  0.00    +0.000 C 
ATOM     29  N   UNL     1      43.605   2.453  11.560  0.00  0.00    +0.000 N 
ATOM     30  O   UNL     1      43.296   3.268  13.626  0.00  0.00    +0.000 OA
ATOM     31  H   UNL     1      43.986   2.456  10.628  0.00  0.00    +0.000 HD
ATOM     32  H   UNL     1      42.941   1.721  11.788  0.00  0.00    +0.000 HD
ENDBRANCH  24  28
ENDBRANCH  19  20
ENDBRANCH   1  19
TORSDOF 7
ENDMDL
