MODEL 1
REMARK VINA RESULT:    -7.274      0.000      0.000
REMARK INTER + INTRA:         -11.273
REMARK INTER:                 -10.251
REMARK INTRA:                  -1.023
REMARK UNBOUND:                -1.023
REMARK  Name = 
REMARK  7 active torsions:
REMARK  status: ('A' for Active; 'I' for Inactive)
REMARK    1  A    between atoms: C_2  and  C_3
REMARK    2  A    between atoms: C_3  and  N_4
REMARK    3  A    between atoms: N_4  and  C_5
REMARK    4  A    between atoms: C_5  and  C_6
REMARK    5  A    between atoms: C_10  and  C_11
REMARK    6  A    between atoms: C_11  and  C_12
REMARK    7  A    between atoms: C_19  and  C_21
REMARK                            x       y       z     vdW  Elec       q    Type
REMARK                         _______ _______ _______ _____ _____    ______ ____
ROOT
ATOM      1  N   UNL     1      47.211   6.974  13.113  0.00  0.00    +0.000 N 
ATOM      2  C   UNL     1      47.293   8.363  13.365  0.00  0.00    +0.000 C 
ATOM      3  O   UNL     1      47.932   8.789  14.324  0.00  0.00    +0.000 OA
ENDROOT
BRANCH   2   4
ATOM      4  C   UNL     1      46.570   9.326  12.509  0.00  0.00    +0.000 A 
ATOM      5  C   UNL     1      45.206   9.571  12.563  0.00  0.00    +0.000 A 
ATOM      6  S   UNL     1      44.677  10.803  11.508  0.00  0.00    +0.000 S 
ATOM      7  C   UNL     1      46.274  11.171  11.059  0.00  0.00    +0.000 A 
ATOM      8  N   UNL     1      46.544  12.238  10.262  0.00  0.00    +0.000 NA
ATOM      9  C   UNL     1      47.803  12.442  10.060  0.00  0.00    +0.000 A 
ATOM     10  N   UNL     1      48.810  11.648  10.549  0.00  0.00    +0.000 N 
ATOM     11  C   UNL     1      48.576  10.481  11.248  0.00  0.00    +0.000 A 
ATOM     12  O   UNL     1      49.478   9.680  11.462  0.00  0.00    +0.000 OA
ATOM     13  C   UNL     1      47.183  10.286  11.612  0.00  0.00    +0.000 A 
ATOM     14  H   UNL     1      49.770  11.822  10.292  0.00  0.00    +0.000 HD
ENDBRANCH   2   4
BRANCH   1  15
ATOM     15  C   UNL     1      47.944   6.094  14.039  0.00  0.00    +0.000 C 
BRANCH  15  17
ATOM     16  N   UNL     1      46.582   4.008  14.911  0.00  0.00    +0.000 NA
ATOM     17  C   UNL     1      47.183   4.929  14.518  0.00  0.00    +0.000 C 
ENDBRANCH  15  17
ENDBRANCH   1  15
BRANCH   1  18
ATOM     18  C   UNL     1      46.579   6.452  11.894  0.00  0.00    +0.000 C 
BRANCH  18  19
ATOM     19  C   UNL     1      45.229   5.764  11.837  0.00  0.00    +0.000 A 
ATOM     20  C   UNL     1      44.053   6.509  11.760  0.00  0.00    +0.000 A 
ATOM     21  C   UNL     1      42.879   5.898  11.329  0.00  0.00    +0.000 A 
ATOM     22  C   UNL     1      42.915   4.575  10.910  0.00  0.00    +0.000 A 
ATOM     23  C   UNL     1      44.131   3.899  10.959  0.00  0.00    +0.000 A 
ATOM     24  N   UNL     1      45.261   4.456  11.476  0.00  0.00    +0.000 NA
BRANCH  23  25
ATOM     25  C   UNL     1      44.306   2.626  10.150  0.00  0.00    +0.000 C 
BRANCH  25  26
ATOM     26  C   UNL     1      45.285   2.771   8.988  0.00  0.00    +0.000 A 
ATOM     27  C   UNL     1      45.568   4.018   8.403  0.00  0.00    +0.000 A 
ATOM     28  C   UNL     1      46.429   4.124   7.310  0.00  0.00    +0.000 A 
ATOM     29  C   UNL     1      47.052   2.990   6.807  0.00  0.00    +0.000 A 
ATOM     30  C   UNL     1      46.826   1.751   7.406  0.00  0.00    +0.000 A 
ATOM     31  C   UNL     1      45.952   1.642   8.494  0.00  0.00    +0.000 A 
ENDBRANCH  25  26
ENDBRANCH  23  25
ENDBRANCH  18  19
ENDBRANCH   1  18
TORSDOF 7
ENDMDL
MODEL 2
REMARK VINA RESULT:    -6.871      3.660      8.118
REMARK INTER + INTRA:         -10.705
REMARK INTER:                  -9.349
REMARK INTRA:                  -1.356
REMARK UNBOUND:                -1.023
REMARK  Name = 
REMARK  7 active torsions:
REMARK  status: ('A' for Active; 'I' for Inactive)
REMARK    1  A    between atoms: C_2  and  C_3
REMARK    2  A    between atoms: C_3  and  N_4
REMARK    3  A    between atoms: N_4  and  C_5
REMARK    4  A    between atoms: C_5  and  C_6
REMARK    5  A    between atoms: C_10  and  C_11
REMARK    6  A    between atoms: C_11  and  C_12
REMARK    7  A    between atoms: C_19  and  C_21
REMARK                            x       y       z     vdW  Elec       q    Type
REMARK                         _______ _______ _______ _____ _____    ______ ____
ROOT
ATOM      1  N   UNL     1      46.268   7.079  12.531  0.00  0.00    +0.000 N 
ATOM      2  C   UNL     1      45.069   6.732  11.868  0.00  0.00    +0.000 C 
ATOM      3  O   UNL     1      44.315   7.604  11.440  0.00  0.00    +0.000 OA
ENDROOT
BRANCH   2   4
ATOM      4  C   UNL     1      44.673   5.316  11.720  0.00  0.00    +0.000 A 
ATOM      5  C   UNL     1      43.923   4.600  12.640  0.00  0.00    +0.000 A 
ATOM      6  S   UNL     1      43.553   3.009  12.148  0.00  0.00    +0.000 S 
ATOM      7  C   UNL     1      44.240   3.270  10.617  0.00  0.00    +0.000 A 
ATOM      8  N   UNL     1      44.143   2.329   9.641  0.00  0.00    +0.000 NA
ATOM      9  C   UNL     1      44.646   2.689   8.507  0.00  0.00    +0.000 A 
ATOM     10  N   UNL     1      45.276   3.887   8.278  0.00  0.00    +0.000 N 
ATOM     11  C   UNL     1      45.515   4.813   9.274  0.00  0.00    +0.000 A 
ATOM     12  O   UNL     1      46.279   5.754   9.091  0.00  0.00    +0.000 OA
ATOM     13  C   UNL     1      44.849   4.510  10.529  0.00  0.00    +0.000 A 
ATOM     14  H   UNL     1      45.712   4.074   7.388  0.00  0.00    +0.000 HD
ENDBRANCH   2   4
BRANCH   1  15
ATOM     15  C   UNL     1      46.561   8.518  12.652  0.00  0.00    +0.000 C 
BRANCH  15  17
ATOM     16  N   UNL     1      48.923   9.261  11.738  0.00  0.00    +0.000 NA
ATOM     17  C   UNL     1      47.880   8.926  12.145  0.00  0.00    +0.000 C 
ENDBRANCH  15  17
ENDBRANCH   1  15
BRANCH   1  18
ATOM     18  C   UNL     1      47.253   6.060  12.917  0.00  0.00    +0.000 C 
BRANCH  18  19
ATOM     19  C   UNL     1      47.229   5.272  14.213  0.00  0.00    +0.000 A 
ATOM     20  C   UNL     1      47.113   3.881  14.198  0.00  0.00    +0.000 A 
ATOM     21  C   UNL     1      47.471   3.149  15.326  0.00  0.00    +0.000 A 
ATOM     22  C   UNL     1      48.011   3.809  16.421  0.00  0.00    +0.000 A 
ATOM     23  C   UNL     1      48.154   5.192  16.356  0.00  0.00    +0.000 A 
ATOM     24  N   UNL     1      47.710   5.927  15.299  0.00  0.00    +0.000 NA
BRANCH  23  25
ATOM     25  C   UNL     1      49.090   5.890  17.327  0.00  0.00    +0.000 C 
BRANCH  25  26
ATOM     26  C   UNL     1      48.660   5.765  18.785  0.00  0.00    +0.000 A 
ATOM     27  C   UNL     1      47.691   6.612  19.352  0.00  0.00    +0.000 A 
ATOM     28  C   UNL     1      47.346   6.514  20.701  0.00  0.00    +0.000 A 
ATOM     29  C   UNL     1      47.937   5.541  21.497  0.00  0.00    +0.000 A 
ATOM     30  C   UNL     1      48.861   4.657  20.942  0.00  0.00    +0.000 A 
ATOM     31  C   UNL     1      49.217   4.763  19.592  0.00  0.00    +0.000 A 
ENDBRANCH  25  26
ENDBRANCH  23  25
ENDBRANCH  18  19
ENDBRANCH   1  18
TORSDOF 7
ENDMDL
MODEL 3
REMARK VINA RESULT:    -6.816      2.555      3.156
REMARK INTER + INTRA:         -10.628
REMARK INTER:                 -10.296
REMARK INTRA:                  -0.332
REMARK UNBOUND:                -1.023
REMARK  Name = 
REMARK  7 active torsions:
REMARK  status: ('A' for Active; 'I' for Inactive)
REMARK    1  A    between atoms: C_2  and  C_3
REMARK    2  A    between atoms: C_3  and  N_4
REMARK    3  A    between atoms: N_4  and  C_5
REMARK    4  A    between atoms: C_5  and  C_6
REMARK    5  A    between atoms: C_10  and  C_11
REMARK    6  A    between atoms: C_11  and  C_12
REMARK    7  A    between atoms: C_19  and  C_21
REMARK                            x       y       z     vdW  Elec       q    Type
REMARK                         _______ _______ _______ _____ _____    ______ ____
ROOT
ATOM      1  N   UNL     1      47.354   4.963  14.964  0.00  0.00    +0.000 N 
ATOM      2  C   UNL     1      48.102   6.098  15.351  0.00  0.00    +0.000 C 
ATOM      3  O   UNL     1      48.522   6.209  16.501  0.00  0.00    +0.000 OA
ENDROOT
BRANCH   2   4
ATOM      4  C   UNL     1      48.351   7.197  14.396  0.00  0.00    +0.000 A 
ATOM      5  C   UNL     1      47.380   7.812  13.620  0.00  0.00    +0.000 A 
ATOM      6  S   UNL     1      47.961   9.109  12.677  0.00  0.00    +0.000 S 
ATOM      7  C   UNL     1      49.497   9.006  13.393  0.00  0.00    +0.000 A 
ATOM      8  N   UNL     1      50.455   9.931  13.122  0.00  0.00    +0.000 NA
ATOM      9  C   UNL     1      51.549   9.772  13.790  0.00  0.00    +0.000 A 
ATOM     10  N   UNL     1      51.783   8.745  14.670  0.00  0.00    +0.000 N 
ATOM     11  C   UNL     1      50.891   7.711  14.874  0.00  0.00    +0.000 A 
ATOM     12  O   UNL     1      51.225   6.698  15.478  0.00  0.00    +0.000 OA
ATOM     13  C   UNL     1      49.597   7.921  14.247  0.00  0.00    +0.000 A 
ATOM     14  H   UNL     1      52.688   8.638  15.104  0.00  0.00    +0.000 HD
ENDBRANCH   2   4
BRANCH   1  15
ATOM     15  C   UNL     1      47.136   3.935  15.996  0.00  0.00    +0.000 C 
BRANCH  15  17
ATOM     16  N   UNL     1      48.958   2.026  16.052  0.00  0.00    +0.000 NA
ATOM     17  C   UNL     1      48.152   2.872  16.034  0.00  0.00    +0.000 C 
ENDBRANCH  15  17
ENDBRANCH   1  15
BRANCH   1  18
ATOM     18  C   UNL     1      46.970   4.740  13.563  0.00  0.00    +0.000 C 
BRANCH  18  19
ATOM     19  C   UNL     1      45.544   4.635  13.056  0.00  0.00    +0.000 A 
ATOM     20  C   UNL     1      44.732   5.766  12.975  0.00  0.00    +0.000 A 
ATOM     21  C   UNL     1      43.596   5.741  12.172  0.00  0.00    +0.000 A 
ATOM     22  C   UNL     1      43.331   4.615  11.405  0.00  0.00    +0.000 A 
ATOM     23  C   UNL     1      44.208   3.538  11.486  0.00  0.00    +0.000 A 
ATOM     24  N   UNL     1      45.263   3.513  12.346  0.00  0.00    +0.000 NA
BRANCH  23  25
ATOM     25  C   UNL     1      44.194   2.484  10.393  0.00  0.00    +0.000 C 
BRANCH  25  26
ATOM     26  C   UNL     1      45.149   2.785   9.242  0.00  0.00    +0.000 A 
ATOM     27  C   UNL     1      45.409   4.099   8.812  0.00  0.00    +0.000 A 
ATOM     28  C   UNL     1      46.249   4.351   7.727  0.00  0.00    +0.000 A 
ATOM     29  C   UNL     1      46.874   3.296   7.076  0.00  0.00    +0.000 A 
ATOM     30  C   UNL     1      46.671   1.989   7.519  0.00  0.00    +0.000 A 
ATOM     31  C   UNL     1      45.819   1.734   8.599  0.00  0.00    +0.000 A 
ENDBRANCH  25  26
ENDBRANCH  23  25
ENDBRANCH  18  19
ENDBRANCH   1  18
TORSDOF 7
ENDMDL
MODEL 4
REMARK VINA RESULT:    -6.707      2.994      7.636
REMARK INTER + INTRA:         -10.475
REMARK INTER:                  -9.347
REMARK INTRA:                  -1.128
REMARK UNBOUND:                -1.023
REMARK  Name = 
REMARK  7 active torsions:
REMARK  status: ('A' for Active; 'I' for Inactive)
REMARK    1  A    between atoms: C_2  and  C_3
REMARK    2  A    between atoms: C_3  and  N_4
REMARK    3  A    between atoms: N_4  and  C_5
REMARK    4  A    between atoms: C_5  and  C_6
REMARK    5  A    between atoms: C_10  and  C_11
REMARK    6  A    between atoms: C_11  and  C_12
REMARK    7  A    between atoms: C_19  and  C_21
REMARK                            x       y       z     vdW  Elec       q    Type
REMARK                         _______ _______ _______ _____ _____    ______ ____
ROOT
ATOM      1  N   UNL     1      46.404   7.658  12.189  0.00  0.00    +0.000 N 
ATOM      2  C   UNL     1      45.219   7.380  11.472  0.00  0.00    +0.000 C 
ATOM      3  O   UNL     1      44.303   8.199  11.432  0.00  0.00    +0.000 OA
ENDROOT
BRANCH   2   4
ATOM      4  C   UNL     1      45.036   6.078  10.797  0.00  0.00    +0.000 A 
ATOM      5  C   UNL     1      45.608   5.723   9.584  0.00  0.00    +0.000 A 
ATOM      6  S   UNL     1      45.282   4.119   9.103  0.00  0.00    +0.000 S 
ATOM      7  C   UNL     1      44.502   3.785  10.575  0.00  0.00    +0.000 A 
ATOM      8  N   UNL     1      44.088   2.525  10.872  0.00  0.00    +0.000 NA
ATOM      9  C   UNL     1      43.577   2.401  12.052  0.00  0.00    +0.000 A 
ATOM     10  N   UNL     1      43.405   3.433  12.941  0.00  0.00    +0.000 N 
ATOM     11  C   UNL     1      43.687   4.748  12.629  0.00  0.00    +0.000 A 
ATOM     12  O   UNL     1      43.304   5.664  13.348  0.00  0.00    +0.000 OA
ATOM     13  C   UNL     1      44.387   4.915  11.366  0.00  0.00    +0.000 A 
ATOM     14  H   UNL     1      42.931   3.280  13.818  0.00  0.00    +0.000 HD
ENDBRANCH   2   4
BRANCH   1  15
ATOM     15  C   UNL     1      46.479   8.972  12.851  0.00  0.00    +0.000 C 
BRANCH  15  17
ATOM     16  N   UNL     1      47.530  10.904  11.392  0.00  0.00    +0.000 NA
ATOM     17  C   UNL     1      47.067  10.044  12.033  0.00  0.00    +0.000 C 
ENDBRANCH  15  17
ENDBRANCH   1  15
BRANCH   1  18
ATOM     18  C   UNL     1      47.566   6.761  12.129  0.00  0.00    +0.000 C 
BRANCH  18  19
ATOM     19  C   UNL     1      48.810   6.886  12.987  0.00  0.00    +0.000 A 
ATOM     20  C   UNL     1      49.828   7.774  12.639  0.00  0.00    +0.000 A 
ATOM     21  C   UNL     1      50.760   8.162  13.597  0.00  0.00    +0.000 A 
ATOM     22  C   UNL     1      50.615   7.718  14.904  0.00  0.00    +0.000 A 
ATOM     23  C   UNL     1      49.547   6.877  15.203  0.00  0.00    +0.000 A 
ATOM     24  N   UNL     1      48.693   6.410  14.252  0.00  0.00    +0.000 NA
BRANCH  23  25
ATOM     25  C   UNL     1      49.119   6.706  16.649  0.00  0.00    +0.000 C 
BRANCH  25  26
ATOM     26  C   UNL     1      48.861   5.254  17.041  0.00  0.00    +0.000 A 
ATOM     27  C   UNL     1      49.906   4.379  17.389  0.00  0.00    +0.000 A 
ATOM     28  C   UNL     1      49.655   3.041  17.698  0.00  0.00    +0.000 A 
ATOM     29  C   UNL     1      48.351   2.565  17.702  0.00  0.00    +0.000 A 
ATOM     30  C   UNL     1      47.295   3.429  17.411  0.00  0.00    +0.000 A 
ATOM     31  C   UNL     1      47.548   4.767  17.089  0.00  0.00    +0.000 A 
ENDBRANCH  25  26
ENDBRANCH  23  25
ENDBRANCH  18  19
ENDBRANCH   1  18
TORSDOF 7
ENDMDL
MODEL 5
REMARK VINA RESULT:    -6.533      1.718      2.453
REMARK INTER + INTRA:         -10.229
REMARK INTER:                  -9.770
REMARK INTRA:                  -0.460
REMARK UNBOUND:                -1.023
REMARK  Name = 
REMARK  7 active torsions:
REMARK  status: ('A' for Active; 'I' for Inactive)
REMARK    1  A    between atoms: C_2  and  C_3
REMARK    2  A    between atoms: C_3  and  N_4
REMARK    3  A    between atoms: N_4  and  C_5
REMARK    4  A    between atoms: C_5  and  C_6
REMARK    5  A    between atoms: C_10  and  C_11
REMARK    6  A    between atoms: C_11  and  C_12
REMARK    7  A    between atoms: C_19  and  C_21
REMARK                            x       y       z     vdW  Elec       q    Type
REMARK                         _______ _______ _______ _____ _____    ______ ____
ROOT
ATOM      1  N   UNL     1      47.774   6.141  13.560  0.00  0.00    +0.000 N 
ATOM      2  C   UNL     1      48.892   6.970  13.807  0.00  0.00    +0.000 C 
ATOM      3  O   UNL     1      49.549   6.846  14.839  0.00  0.00    +0.000 OA
ENDROOT
BRANCH   2   4
ATOM      4  C   UNL     1      49.262   8.037  12.854  0.00  0.00    +0.000 A 
ATOM      5  C   UNL     1      50.398   8.034  12.058  0.00  0.00    +0.000 A 
ATOM      6  S   UNL     1      50.507   9.364  10.995  0.00  0.00    +0.000 S 
ATOM      7  C   UNL     1      48.960   9.908  11.440  0.00  0.00    +0.000 A 
ATOM      8  N   UNL     1      48.379  10.954  10.795  0.00  0.00    +0.000 NA
ATOM      9  C   UNL     1      47.176  11.214  11.186  0.00  0.00    +0.000 A 
ATOM     10  N   UNL     1      46.522  10.548  12.193  0.00  0.00    +0.000 N 
ATOM     11  C   UNL     1      47.122   9.571  12.962  0.00  0.00    +0.000 A 
ATOM     12  O   UNL     1      46.597   9.168  13.994  0.00  0.00    +0.000 OA
ATOM     13  C   UNL     1      48.424   9.156  12.470  0.00  0.00    +0.000 A 
ATOM     14  H   UNL     1      45.609  10.851  12.498  0.00  0.00    +0.000 HD
ENDBRANCH   2   4
BRANCH   1  15
ATOM     15  C   UNL     1      47.469   5.126  14.584  0.00  0.00    +0.000 C 
BRANCH  15  17
ATOM     16  N   UNL     1      46.710   2.780  13.643  0.00  0.00    +0.000 NA
ATOM     17  C   UNL     1      47.043   3.822  14.053  0.00  0.00    +0.000 C 
ENDBRANCH  15  17
ENDBRANCH   1  15
BRANCH   1  18
ATOM     18  C   UNL     1      47.066   6.172  12.274  0.00  0.00    +0.000 C 
BRANCH  18  19
ATOM     19  C   UNL     1      45.687   5.592  12.023  0.00  0.00    +0.000 A 
ATOM     20  C   UNL     1      44.582   6.046  12.744  0.00  0.00    +0.000 A 
ATOM     21  C   UNL     1      43.299   5.805  12.261  0.00  0.00    +0.000 A 
ATOM     22  C   UNL     1      43.143   5.182  11.030  0.00  0.00    +0.000 A 
ATOM     23  C   UNL     1      44.285   4.801  10.331  0.00  0.00    +0.000 A 
ATOM     24  N   UNL     1      45.538   4.939  10.843  0.00  0.00    +0.000 NA
BRANCH  23  25
ATOM     25  C   UNL     1      44.182   4.504   8.846  0.00  0.00    +0.000 C 
BRANCH  25  26
ATOM     26  C   UNL     1      45.143   3.419   8.373  0.00  0.00    +0.000 A 
ATOM     27  C   UNL     1      45.036   2.086   8.808  0.00  0.00    +0.000 A 
ATOM     28  C   UNL     1      45.955   1.117   8.402  0.00  0.00    +0.000 A 
ATOM     29  C   UNL     1      46.974   1.455   7.523  0.00  0.00    +0.000 A 
ATOM     30  C   UNL     1      47.068   2.759   7.038  0.00  0.00    +0.000 A 
ATOM     31  C   UNL     1      46.155   3.735   7.455  0.00  0.00    +0.000 A 
ENDBRANCH  25  26
ENDBRANCH  23  25
ENDBRANCH  18  19
ENDBRANCH   1  18
TORSDOF 7
ENDMDL
MODEL 6
REMARK VINA RESULT:    -6.494      3.964      7.069
REMARK INTER + INTRA:         -10.175
REMARK INTER:                  -8.972
REMARK INTRA:                  -1.202
REMARK UNBOUND:                -1.023
REMARK  Name = 
REMARK  7 active torsions:
REMARK  status: ('A' for Active; 'I' for Inactive)
REMARK    1  A    between atoms: C_2  and  C_3
REMARK    2  A    between atoms: C_3  and  N_4
REMARK    3  A    between atoms: N_4  and  C_5
REMARK    4  A    between atoms: C_5  and  C_6
REMARK    5  A    between atoms: C_10  and  C_11
REMARK    6  A    between atoms: C_11  and  C_12
REMARK    7  A    between atoms: C_19  and  C_21
REMARK                            x       y       z     vdW  Elec       q    Type
REMARK                         _______ _______ _______ _____ _____    ______ ____
ROOT
ATOM      1  N   UNL     1      47.689   4.946  15.391  0.00  0.00    +0.000 N 
ATOM      2  C   UNL     1      47.487   4.308  16.637  0.00  0.00    +0.000 C 
ATOM      3  O   UNL     1      46.993   3.183  16.692  0.00  0.00    +0.000 OA
ENDROOT
BRANCH   2   4
ATOM      4  C   UNL     1      47.819   5.000  17.899  0.00  0.00    +0.000 A 
ATOM      5  C   UNL     1      46.913   5.690  18.691  0.00  0.00    +0.000 A 
ATOM      6  S   UNL     1      47.579   6.310  20.134  0.00  0.00    +0.000 S 
ATOM      7  C   UNL     1      49.063   5.539  19.836  0.00  0.00    +0.000 A 
ATOM      8  N   UNL     1      50.054   5.557  20.766  0.00  0.00    +0.000 NA
ATOM      9  C   UNL     1      51.100   4.871  20.438  0.00  0.00    +0.000 A 
ATOM     10  N   UNL     1      51.256   4.209  19.247  0.00  0.00    +0.000 N 
ATOM     11  C   UNL     1      50.333   4.276  18.222  0.00  0.00    +0.000 A 
ATOM     12  O   UNL     1      50.606   3.874  17.097  0.00  0.00    +0.000 OA
ATOM     13  C   UNL     1      49.086   4.922  18.597  0.00  0.00    +0.000 A 
ATOM     14  H   UNL     1      52.128   3.754  19.024  0.00  0.00    +0.000 HD
ENDBRANCH   2   4
BRANCH   1  15
ATOM     15  C   UNL     1      47.301   4.184  14.192  0.00  0.00    +0.000 C 
BRANCH  15  17
ATOM     16  N   UNL     1      44.713   4.172  13.672  0.00  0.00    +0.000 NA
ATOM     17  C   UNL     1      45.858   4.184  13.899  0.00  0.00    +0.000 C 
ENDBRANCH  15  17
ENDBRANCH   1  15
BRANCH   1  18
ATOM     18  C   UNL     1      48.410   6.221  15.292  0.00  0.00    +0.000 C 
BRANCH  18  19
ATOM     19  C   UNL     1      48.385   7.146  14.090  0.00  0.00    +0.000 A 
ATOM     20  C   UNL     1      49.440   7.155  13.177  0.00  0.00    +0.000 A 
ATOM     21  C   UNL     1      49.248   7.699  11.910  0.00  0.00    +0.000 A 
ATOM     22  C   UNL     1      47.987   8.154  11.550  0.00  0.00    +0.000 A 
ATOM     23  C   UNL     1      46.961   8.068  12.486  0.00  0.00    +0.000 A 
ATOM     24  N   UNL     1      47.163   7.635  13.760  0.00  0.00    +0.000 NA
BRANCH  23  25
ATOM     25  C   UNL     1      45.519   8.162  12.018  0.00  0.00    +0.000 C 
BRANCH  25  26
ATOM     26  C   UNL     1      45.000   6.879  11.378  0.00  0.00    +0.000 A 
ATOM     27  C   UNL     1      45.850   5.983  10.706  0.00  0.00    +0.000 A 
ATOM     28  C   UNL     1      45.349   4.838  10.085  0.00  0.00    +0.000 A 
ATOM     29  C   UNL     1      43.993   4.549  10.159  0.00  0.00    +0.000 A 
ATOM     30  C   UNL     1      43.140   5.396  10.865  0.00  0.00    +0.000 A 
ATOM     31  C   UNL     1      43.640   6.552  11.477  0.00  0.00    +0.000 A 
ENDBRANCH  25  26
ENDBRANCH  23  25
ENDBRANCH  18  19
ENDBRANCH   1  18
TORSDOF 7
ENDMDL
MODEL 7
REMARK VINA RESULT:    -6.486      3.692      7.435
REMARK INTER + INTRA:         -10.162
REMARK INTER:                  -8.525
REMARK INTRA:                  -1.637
REMARK UNBOUND:                -1.023
REMARK  Name = 
REMARK  7 active torsions:
REMARK  status: ('A' for Active; 'I' for Inactive)
REMARK    1  A    between atoms: C_2  and  C_3
REMARK    2  A    between atoms: C_3  and  N_4
REMARK    3  A    between atoms: N_4  and  C_5
REMARK    4  A    between atoms: C_5  and  C_6
REMARK    5  A    between atoms: C_10  and  C_11
REMARK    6  A    between atoms: C_11  and  C_12
REMARK    7  A    between atoms: C_19  and  C_21
REMARK                            x       y       z     vdW  Elec       q    Type
REMARK                         _______ _______ _______ _____ _____    ______ ____
ROOT
ATOM      1  N   UNL     1      49.350   8.081  14.260  0.00  0.00    +0.000 N 
ATOM      2  C   UNL     1      48.812   7.440  13.121  0.00  0.00    +0.000 C 
ATOM      3  O   UNL     1      49.548   6.893  12.302  0.00  0.00    +0.000 OA
ENDROOT
BRANCH   2   4
ATOM      4  C   UNL     1      47.356   7.458  12.865  0.00  0.00    +0.000 A 
ATOM      5  C   UNL     1      46.682   8.451  12.171  0.00  0.00    +0.000 A 
ATOM      6  S   UNL     1      45.016   8.149  11.964  0.00  0.00    +0.000 S 
ATOM      7  C   UNL     1      45.163   6.601  12.649  0.00  0.00    +0.000 A 
ATOM      8  N   UNL     1      44.110   5.742  12.658  0.00  0.00    +0.000 NA
ATOM      9  C   UNL     1      44.382   4.577  13.144  0.00  0.00    +0.000 A 
ATOM     10  N   UNL     1      45.600   4.211  13.660  0.00  0.00    +0.000 N 
ATOM     11  C   UNL     1      46.655   5.092  13.793  0.00  0.00    +0.000 A 
ATOM     12  O   UNL     1      47.638   4.805  14.466  0.00  0.00    +0.000 OA
ATOM     13  C   UNL     1      46.437   6.371  13.138  0.00  0.00    +0.000 A 
ATOM     14  H   UNL     1      45.724   3.308  14.091  0.00  0.00    +0.000 HD
ENDBRANCH   2   4
BRANCH   1  15
ATOM     15  C   UNL     1      50.814   8.032  14.411  0.00  0.00    +0.000 C 
BRANCH  15  17
ATOM     16  N   UNL     1      51.995  10.390  14.517  0.00  0.00    +0.000 NA
ATOM     17  C   UNL     1      51.475   9.345  14.463  0.00  0.00    +0.000 C 
ENDBRANCH  15  17
ENDBRANCH   1  15
BRANCH   1  18
ATOM     18  C   UNL     1      48.485   8.610  15.323  0.00  0.00    +0.000 C 
BRANCH  18  19
ATOM     19  C   UNL     1      48.578   8.237  16.790  0.00  0.00    +0.000 A 
ATOM     20  C   UNL     1      48.303   9.178  17.782  0.00  0.00    +0.000 A 
ATOM     21  C   UNL     1      48.017   8.750  19.075  0.00  0.00    +0.000 A 
ATOM     22  C   UNL     1      47.933   7.390  19.338  0.00  0.00    +0.000 A 
ATOM     23  C   UNL     1      48.163   6.499  18.294  0.00  0.00    +0.000 A 
ATOM     24  N   UNL     1      48.546   6.905  17.052  0.00  0.00    +0.000 NA
BRANCH  23  25
ATOM     25  C   UNL     1      47.691   5.062  18.425  0.00  0.00    +0.000 C 
BRANCH  25  26
ATOM     26  C   UNL     1      48.722   4.036  17.964  0.00  0.00    +0.000 A 
ATOM     27  C   UNL     1      50.080   4.131  18.320  0.00  0.00    +0.000 A 
ATOM     28  C   UNL     1      51.016   3.210  17.849  0.00  0.00    +0.000 A 
ATOM     29  C   UNL     1      50.606   2.156  17.044  0.00  0.00    +0.000 A 
ATOM     30  C   UNL     1      49.256   2.014  16.721  0.00  0.00    +0.000 A 
ATOM     31  C   UNL     1      48.318   2.944  17.183  0.00  0.00    +0.000 A 
ENDBRANCH  25  26
ENDBRANCH  23  25
ENDBRANCH  18  19
ENDBRANCH   1  18
TORSDOF 7
ENDMDL
MODEL 8
REMARK VINA RESULT:    -6.414      4.252      7.437
REMARK INTER + INTRA:         -10.062
REMARK INTER:                  -8.807
REMARK INTRA:                  -1.255
REMARK UNBOUND:                -1.023
REMARK  Name = 
REMARK  7 active torsions:
REMARK  status: ('A' for Active; 'I' for Inactive)
REMARK    1  A    between atoms: C_2  and  C_3
REMARK    2  A    between atoms: C_3  and  N_4
REMARK    3  A    between atoms: N_4  and  C_5
REMARK    4  A    between atoms: C_5  and  C_6
REMARK    5  A    between atoms: C_10  and  C_11
REMARK    6  A    between atoms: C_11  and  C_12
REMARK    7  A    between atoms: C_19  and  C_21
REMARK                            x       y       z     vdW  Elec       q    Type
REMARK                         _______ _______ _______ _____ _____    ______ ____
ROOT
ATOM      1  N   UNL     1      49.750   7.289  17.206  0.00  0.00    +0.000 N 
ATOM      2  C   UNL     1      49.158   6.443  18.172  0.00  0.00    +0.000 C 
ATOM      3  O   UNL     1      48.862   6.875  19.285  0.00  0.00    +0.000 OA
ENDROOT
BRANCH   2   4
ATOM      4  C   UNL     1      48.931   5.013  17.882  0.00  0.00    +0.000 A 
ATOM      5  C   UNL     1      47.730   4.469  17.449  0.00  0.00    +0.000 A 
ATOM      6  S   UNL     1      47.803   2.798  17.115  0.00  0.00    +0.000 S 
ATOM      7  C   UNL     1      49.481   2.769  17.378  0.00  0.00    +0.000 A 
ATOM      8  N   UNL     1      50.204   1.646  17.128  0.00  0.00    +0.000 NA
ATOM      9  C   UNL     1      51.476   1.786  17.302  0.00  0.00    +0.000 A 
ATOM     10  N   UNL     1      52.081   2.936  17.744  0.00  0.00    +0.000 N 
ATOM     11  C   UNL     1      51.373   4.055  18.137  0.00  0.00    +0.000 A 
ATOM     12  O   UNL     1      51.920   4.968  18.744  0.00  0.00    +0.000 OA
ATOM     13  C   UNL     1      49.954   3.988  17.831  0.00  0.00    +0.000 A 
ATOM     14  H   UNL     1      53.072   2.955  17.929  0.00  0.00    +0.000 HD
ENDBRANCH   2   4
BRANCH   1  15
ATOM     15  C   UNL     1      49.961   8.692  17.600  0.00  0.00    +0.000 C 
BRANCH  15  17
ATOM     16  N   UNL     1      47.810  10.215  17.463  0.00  0.00    +0.000 NA
ATOM     17  C   UNL     1      48.762   9.541  17.531  0.00  0.00    +0.000 C 
ENDBRANCH  15  17
ENDBRANCH   1  15
BRANCH   1  18
ATOM     18  C   UNL     1      49.976   6.836  15.827  0.00  0.00    +0.000 C 
BRANCH  18  19
ATOM     19  C   UNL     1      48.985   6.982  14.687  0.00  0.00    +0.000 A 
ATOM     20  C   UNL     1      49.282   7.784  13.585  0.00  0.00    +0.000 A 
ATOM     21  C   UNL     1      48.569   7.616  12.401  0.00  0.00    +0.000 A 
ATOM     22  C   UNL     1      47.627   6.601  12.314  0.00  0.00    +0.000 A 
ATOM     23  C   UNL     1      47.414   5.797  13.430  0.00  0.00    +0.000 A 
ATOM     24  N   UNL     1      48.030   6.019  14.623  0.00  0.00    +0.000 NA
BRANCH  23  25
ATOM     25  C   UNL     1      46.720   4.458  13.259  0.00  0.00    +0.000 C 
BRANCH  25  26
ATOM     26  C   UNL     1      45.357   4.558  12.583  0.00  0.00    +0.000 A 
ATOM     27  C   UNL     1      45.103   3.981  11.325  0.00  0.00    +0.000 A 
ATOM     28  C   UNL     1      43.864   4.125  10.701  0.00  0.00    +0.000 A 
ATOM     29  C   UNL     1      42.843   4.816  11.339  0.00  0.00    +0.000 A 
ATOM     30  C   UNL     1      43.057   5.352  12.609  0.00  0.00    +0.000 A 
ATOM     31  C   UNL     1      44.304   5.219  13.231  0.00  0.00    +0.000 A 
ENDBRANCH  25  26
ENDBRANCH  23  25
ENDBRANCH  18  19
ENDBRANCH   1  18
TORSDOF 7
ENDMDL
MODEL 9
REMARK VINA RESULT:    -6.316      4.832      9.099
REMARK INTER + INTRA:          -9.924
REMARK INTER:                  -9.254
REMARK INTRA:                  -0.670
REMARK UNBOUND:                -1.023
REMARK  Name = 
REMARK  7 active torsions:
REMARK  status: ('A' for Active; 'I' for Inactive)
REMARK    1  A    between atoms: C_2  and  C_3
REMARK    2  A    between atoms: C_3  and  N_4
REMARK    3  A    between atoms: N_4  and  C_5
REMARK    4  A    between atoms: C_5  and  C_6
REMARK    5  A    between atoms: C_10  and  C_11
REMARK    6  A    between atoms: C_11  and  C_12
REMARK    7  A    between atoms: C_19  and  C_21
REMARK                            x       y       z     vdW  Elec       q    Type
REMARK                         _______ _______ _______ _____ _____    ______ ____
ROOT
ATOM      1  N   UNL     1      47.597   3.952  16.155  0.00  0.00    +0.000 N 
ATOM      2  C   UNL     1      47.314   4.034  14.772  0.00  0.00    +0.000 C 
ATOM      3  O   UNL     1      47.311   3.023  14.072  0.00  0.00    +0.000 OA
ENDROOT
BRANCH   2   4
ATOM      4  C   UNL     1      47.066   5.342  14.131  0.00  0.00    +0.000 A 
ATOM      5  C   UNL     1      47.978   6.385  14.073  0.00  0.00    +0.000 A 
ATOM      6  S   UNL     1      47.432   7.739  13.190  0.00  0.00    +0.000 S 
ATOM      7  C   UNL     1      46.023   6.919  12.712  0.00  0.00    +0.000 A 
ATOM      8  N   UNL     1      45.163   7.478  11.820  0.00  0.00    +0.000 NA
ATOM      9  C   UNL     1      44.172   6.716  11.493  0.00  0.00    +0.000 A 
ATOM     10  N   UNL     1      43.944   5.466  12.011  0.00  0.00    +0.000 N 
ATOM     11  C   UNL     1      44.716   4.917  13.016  0.00  0.00    +0.000 A 
ATOM     12  O   UNL     1      44.351   3.913  13.617  0.00  0.00    +0.000 OA
ATOM     13  C   UNL     1      45.915   5.680  13.318  0.00  0.00    +0.000 A 
ATOM     14  H   UNL     1      43.111   4.954  11.767  0.00  0.00    +0.000 HD
ENDBRANCH   2   4
BRANCH   1  15
ATOM     15  C   UNL     1      47.858   2.606  16.693  0.00  0.00    +0.000 C 
BRANCH  15  17
ATOM     16  N   UNL     1      50.388   1.856  16.630  0.00  0.00    +0.000 NA
ATOM     17  C   UNL     1      49.269   2.191  16.664  0.00  0.00    +0.000 C 
ENDBRANCH  15  17
ENDBRANCH   1  15
BRANCH   1  18
ATOM     18  C   UNL     1      47.462   5.119  17.035  0.00  0.00    +0.000 C 
BRANCH  18  19
ATOM     19  C   UNL     1      48.389   5.455  18.187  0.00  0.00    +0.000 A 
ATOM     20  C   UNL     1      49.733   5.751  17.956  0.00  0.00    +0.000 A 
ATOM     21  C   UNL     1      50.469   6.417  18.931  0.00  0.00    +0.000 A 
ATOM     22  C   UNL     1      49.832   6.845  20.088  0.00  0.00    +0.000 A 
ATOM     23  C   UNL     1      48.476   6.570  20.238  0.00  0.00    +0.000 A 
ATOM     24  N   UNL     1      47.774   5.828  19.338  0.00  0.00    +0.000 NA
BRANCH  23  25
ATOM     25  C   UNL     1      47.667   7.352  21.257  0.00  0.00    +0.000 C 
BRANCH  25  26
ATOM     26  C   UNL     1      47.269   8.745  20.781  0.00  0.00    +0.000 A 
ATOM     27  C   UNL     1      46.533   9.629  21.591  0.00  0.00    +0.000 A 
ATOM     28  C   UNL     1      46.137  10.881  21.120  0.00  0.00    +0.000 A 
ATOM     29  C   UNL     1      46.501  11.287  19.844  0.00  0.00    +0.000 A 
ATOM     30  C   UNL     1      47.275  10.447  19.042  0.00  0.00    +0.000 A 
ATOM     31  C   UNL     1      47.661   9.186  19.510  0.00  0.00    +0.000 A 
ENDBRANCH  25  26
ENDBRANCH  23  25
ENDBRANCH  18  19
ENDBRANCH   1  18
TORSDOF 7
ENDMDL
