MODEL 1
REMARK VINA RESULT:    -7.502      0.000      0.000
REMARK INTER + INTRA:         -12.593
REMARK INTER:                 -11.010
REMARK INTRA:                  -1.583
REMARK UNBOUND:                -1.583
REMARK  Name = 
REMARK  10 active torsions:
REMARK  status: ('A' for Active; 'I' for Inactive)
REMARK    1  A    between atoms: C_1  and  C_2
REMARK    2  A    between atoms: C_2  and  C_3
REMARK    3  A    between atoms: C_2  and  C_13
REMARK    4  A    between atoms: C_3  and  N_4
REMARK    5  A    between atoms: N_4  and  C_5
REMARK    6  A    between atoms: N_4  and  C_6
REMARK    7  A    between atoms: C_6  and  C_7
REMARK    8  A    between atoms: C_16  and  C_17
REMARK    9  A    between atoms: C_17  and  N_18
REMARK   10  A    between atoms: C_19  and  C_21
REMARK                            x       y       z     vdW  Elec       q    Type
REMARK                         _______ _______ _______ _____ _____    ______ ____
ROOT
ATOM      1  C   UNL     1      47.056   5.088  13.556  0.00  0.00    +0.000 A 
ATOM      2  C   UNL     1      46.990   4.575  14.851  0.00  0.00    +0.000 A 
ATOM      3  C   UNL     1      47.786   5.122  15.855  0.00  0.00    +0.000 A 
ATOM      4  C   UNL     1      48.620   6.198  15.562  0.00  0.00    +0.000 A 
ATOM      5  C   UNL     1      48.640   6.642  14.249  0.00  0.00    +0.000 A 
ATOM      6  N   UNL     1      47.885   6.122  13.259  0.00  0.00    +0.000 NA
ENDROOT
BRANCH   1   8
ATOM      7  C   UNL     1      45.688   3.130  12.717  0.00  0.00    +0.000 C 
ATOM      8  C   UNL     1      46.138   4.584  12.448  0.00  0.00    +0.000 C 
BRANCH   8   9
ATOM      9  C   UNL     1      44.857   5.440  12.227  0.00  0.00    +0.000 C 
BRANCH   9  10
ATOM     10  N   UNL     1      43.733   4.817  11.488  0.00  0.00    +0.000 NA
ATOM     11  C   UNL     1      42.431   5.269  11.985  0.00  0.00    +0.000 C 
BRANCH  10  12
ATOM     12  C   UNL     1      43.818   5.081  10.035  0.00  0.00    +0.000 C 
BRANCH  12  13
ATOM     13  C   UNL     1      44.603   4.037   9.267  0.00  0.00    +0.000 A 
ATOM     14  C   UNL     1      44.416   2.670   9.521  0.00  0.00    +0.000 A 
ATOM     15  C   UNL     1      45.205   1.716   8.878  0.00  0.00    +0.000 A 
ATOM     16  C   UNL     1      46.177   2.117   7.963  0.00  0.00    +0.000 A 
ATOM     17  C   UNL     1      46.348   3.470   7.676  0.00  0.00    +0.000 A 
ATOM     18  C   UNL     1      45.563   4.425   8.321  0.00  0.00    +0.000 A 
ENDBRANCH  12  13
ENDBRANCH  10  12
ENDBRANCH   9  10
ENDBRANCH   8   9
ENDBRANCH   1   8
BRANCH   4  19
ATOM     19  C   UNL     1      49.522   6.807  16.586  0.00  0.00    +0.000 C 
BRANCH  19  20
ATOM     20  N   UNL     1      50.535   5.866  16.984  0.00  0.00    +0.000 N 
ATOM     21  C   UNL     1      50.636   5.430  18.276  0.00  0.00    +0.000 C 
ATOM     22  O   UNL     1      49.839   5.779  19.142  0.00  0.00    +0.000 OA
ATOM     23  H   UNL     1      51.314   5.728  16.346  0.00  0.00    +0.000 HD
BRANCH  21  24
ATOM     24  C   UNL     1      51.714   4.480  18.558  0.00  0.00    +0.000 A 
ATOM     25  C   UNL     1      52.797   4.885  19.327  0.00  0.00    +0.000 A 
ATOM     26  S   UNL     1      53.940   3.651  19.605  0.00  0.00    +0.000 S 
ATOM     27  C   UNL     1      53.050   2.541  18.671  0.00  0.00    +0.000 A 
ATOM     28  N   UNL     1      53.496   1.270  18.482  0.00  0.00    +0.000 NA
ATOM     29  C   UNL     1      52.736   0.543  17.732  0.00  0.00    +0.000 A 
ATOM     30  N   UNL     1      51.567   0.971  17.158  0.00  0.00    +0.000 N 
ATOM     31  C   UNL     1      51.068   2.239  17.337  0.00  0.00    +0.000 A 
ATOM     32  O   UNL     1      50.001   2.583  16.837  0.00  0.00    +0.000 OA
ATOM     33  C   UNL     1      51.890   3.099  18.167  0.00  0.00    +0.000 A 
ATOM     34  H   UNL     1      51.014   0.351  16.585  0.00  0.00    +0.000 HD
ENDBRANCH  21  24
ENDBRANCH  19  20
ENDBRANCH   4  19
TORSDOF 8
ENDMDL
MODEL 2
REMARK VINA RESULT:    -7.299      2.611      3.548
REMARK INTER + INTRA:         -12.296
REMARK INTER:                 -11.130
REMARK INTRA:                  -1.166
REMARK UNBOUND:                -1.583
REMARK  Name = 
REMARK  10 active torsions:
REMARK  status: ('A' for Active; 'I' for Inactive)
REMARK    1  A    between atoms: C_1  and  C_2
REMARK    2  A    between atoms: C_2  and  C_3
REMARK    3  A    between atoms: C_2  and  C_13
REMARK    4  A    between atoms: C_3  and  N_4
REMARK    5  A    between atoms: N_4  and  C_5
REMARK    6  A    between atoms: N_4  and  C_6
REMARK    7  A    between atoms: C_6  and  C_7
REMARK    8  A    between atoms: C_16  and  C_17
REMARK    9  A    between atoms: C_17  and  N_18
REMARK   10  A    between atoms: C_19  and  C_21
REMARK                            x       y       z     vdW  Elec       q    Type
REMARK                         _______ _______ _______ _____ _____    ______ ____
ROOT
ATOM      1  C   UNL     1      45.190   5.845  12.179  0.00  0.00    +0.000 A 
ATOM      2  C   UNL     1      45.945   6.784  11.476  0.00  0.00    +0.000 A 
ATOM      3  C   UNL     1      47.213   7.136  11.932  0.00  0.00    +0.000 A 
ATOM      4  C   UNL     1      47.729   6.524  13.072  0.00  0.00    +0.000 A 
ATOM      5  C   UNL     1      46.913   5.611  13.722  0.00  0.00    +0.000 A 
ATOM      6  N   UNL     1      45.678   5.262  13.303  0.00  0.00    +0.000 NA
ENDROOT
BRANCH   1   8
ATOM      7  C   UNL     1      42.893   6.551  11.381  0.00  0.00    +0.000 C 
ATOM      8  C   UNL     1      43.837   5.361  11.667  0.00  0.00    +0.000 C 
BRANCH   8   9
ATOM      9  C   UNL     1      43.906   4.493  10.377  0.00  0.00    +0.000 C 
BRANCH   9  10
ATOM     10  N   UNL     1      44.412   3.106  10.509  0.00  0.00    +0.000 NA
ATOM     11  C   UNL     1      43.738   2.375  11.584  0.00  0.00    +0.000 C 
BRANCH  10  12
ATOM     12  C   UNL     1      44.276   2.348   9.246  0.00  0.00    +0.000 C 
BRANCH  12  13
ATOM     13  C   UNL     1      45.508   2.398   8.365  0.00  0.00    +0.000 A 
ATOM     14  C   UNL     1      45.878   3.586   7.718  0.00  0.00    +0.000 A 
ATOM     15  C   UNL     1      46.960   3.605   6.837  0.00  0.00    +0.000 A 
ATOM     16  C   UNL     1      47.691   2.441   6.606  0.00  0.00    +0.000 A 
ATOM     17  C   UNL     1      47.355   1.263   7.270  0.00  0.00    +0.000 A 
ATOM     18  C   UNL     1      46.272   1.242   8.148  0.00  0.00    +0.000 A 
ENDBRANCH  12  13
ENDBRANCH  10  12
ENDBRANCH   9  10
ENDBRANCH   8   9
ENDBRANCH   1   8
BRANCH   4  19
ATOM     19  C   UNL     1      49.068   6.882  13.630  0.00  0.00    +0.000 C 
BRANCH  19  20
ATOM     20  N   UNL     1      49.040   6.831  15.068  0.00  0.00    +0.000 N 
ATOM     21  C   UNL     1      50.176   6.999  15.810  0.00  0.00    +0.000 C 
ATOM     22  O   UNL     1      51.259   7.252  15.290  0.00  0.00    +0.000 OA
ATOM     23  H   UNL     1      48.214   6.425  15.500  0.00  0.00    +0.000 HD
BRANCH  21  24
ATOM     24  C   UNL     1      50.019   6.916  17.264  0.00  0.00    +0.000 A 
ATOM     25  C   UNL     1      50.298   8.031  18.044  0.00  0.00    +0.000 A 
ATOM     26  S   UNL     1      50.020   7.789  19.708  0.00  0.00    +0.000 S 
ATOM     27  C   UNL     1      49.557   6.172  19.452  0.00  0.00    +0.000 A 
ATOM     28  N   UNL     1      49.204   5.372  20.494  0.00  0.00    +0.000 NA
ATOM     29  C   UNL     1      48.900   4.162  20.159  0.00  0.00    +0.000 A 
ATOM     30  N   UNL     1      48.911   3.681  18.876  0.00  0.00    +0.000 N 
ATOM     31  C   UNL     1      49.241   4.457  17.791  0.00  0.00    +0.000 A 
ATOM     32  O   UNL     1      49.210   4.007  16.649  0.00  0.00    +0.000 OA
ATOM     33  C   UNL     1      49.599   5.825  18.114  0.00  0.00    +0.000 A 
ATOM     34  H   UNL     1      48.657   2.724  18.678  0.00  0.00    +0.000 HD
ENDBRANCH  21  24
ENDBRANCH  19  20
ENDBRANCH   4  19
TORSDOF 8
ENDMDL
MODEL 3
REMARK VINA RESULT:    -7.264      3.578      9.959
REMARK INTER + INTRA:         -12.244
REMARK INTER:                  -9.763
REMARK INTRA:                  -2.481
REMARK UNBOUND:                -1.583
REMARK  Name = 
REMARK  10 active torsions:
REMARK  status: ('A' for Active; 'I' for Inactive)
REMARK    1  A    between atoms: C_1  and  C_2
REMARK    2  A    between atoms: C_2  and  C_3
REMARK    3  A    between atoms: C_2  and  C_13
REMARK    4  A    between atoms: C_3  and  N_4
REMARK    5  A    between atoms: N_4  and  C_5
REMARK    6  A    between atoms: N_4  and  C_6
REMARK    7  A    between atoms: C_6  and  C_7
REMARK    8  A    between atoms: C_16  and  C_17
REMARK    9  A    between atoms: C_17  and  N_18
REMARK   10  A    between atoms: C_19  and  C_21
REMARK                            x       y       z     vdW  Elec       q    Type
REMARK                         _______ _______ _______ _____ _____    ______ ____
ROOT
ATOM      1  C   UNL     1      51.412   4.334  17.666  0.00  0.00    +0.000 A 
ATOM      2  C   UNL     1      50.584   5.413  17.361  0.00  0.00    +0.000 A 
ATOM      3  C   UNL     1      49.240   5.194  17.066  0.00  0.00    +0.000 A 
ATOM      4  C   UNL     1      48.729   3.899  17.107  0.00  0.00    +0.000 A 
ATOM      5  C   UNL     1      49.618   2.879  17.405  0.00  0.00    +0.000 A 
ATOM      6  N   UNL     1      50.925   3.067  17.685  0.00  0.00    +0.000 NA
ENDROOT
BRANCH   1   8
ATOM      7  C   UNL     1      53.631   5.387  17.048  0.00  0.00    +0.000 C 
ATOM      8  C   UNL     1      52.865   4.534  18.085  0.00  0.00    +0.000 C 
BRANCH   8   9
ATOM      9  C   UNL     1      53.051   5.205  19.477  0.00  0.00    +0.000 C 
BRANCH   9  10
ATOM     10  N   UNL     1      52.499   4.501  20.659  0.00  0.00    +0.000 NA
ATOM     11  C   UNL     1      53.545   3.842  21.444  0.00  0.00    +0.000 C 
BRANCH  10  12
ATOM     12  C   UNL     1      51.734   5.414  21.536  0.00  0.00    +0.000 C 
BRANCH  12  13
ATOM     13  C   UNL     1      50.338   5.722  21.033  0.00  0.00    +0.000 A 
ATOM     14  C   UNL     1      49.980   7.027  20.665  0.00  0.00    +0.000 A 
ATOM     15  C   UNL     1      48.670   7.323  20.290  0.00  0.00    +0.000 A 
ATOM     16  C   UNL     1      47.707   6.315  20.264  0.00  0.00    +0.000 A 
ATOM     17  C   UNL     1      48.059   5.007  20.593  0.00  0.00    +0.000 A 
ATOM     18  C   UNL     1      49.368   4.710  20.971  0.00  0.00    +0.000 A 
ENDBRANCH  12  13
ENDBRANCH  10  12
ENDBRANCH   9  10
ENDBRANCH   8   9
ENDBRANCH   1   8
BRANCH   4  19
ATOM     19  C   UNL     1      47.306   3.595  16.768  0.00  0.00    +0.000 C 
BRANCH  19  20
ATOM     20  N   UNL     1      46.815   4.525  15.787  0.00  0.00    +0.000 N 
ATOM     21  C   UNL     1      46.845   4.236  14.451  0.00  0.00    +0.000 C 
ATOM     22  O   UNL     1      47.241   3.152  14.031  0.00  0.00    +0.000 OA
ATOM     23  H   UNL     1      46.679   5.486  16.089  0.00  0.00    +0.000 HD
BRANCH  21  24
ATOM     24  C   UNL     1      46.323   5.268  13.552  0.00  0.00    +0.000 A 
ATOM     25  C   UNL     1      47.121   6.358  13.232  0.00  0.00    +0.000 A 
ATOM     26  S   UNL     1      46.391   7.443  12.138  0.00  0.00    +0.000 S 
ATOM     27  C   UNL     1      44.965   6.516  12.086  0.00  0.00    +0.000 A 
ATOM     28  N   UNL     1      43.903   6.908  11.331  0.00  0.00    +0.000 NA
ATOM     29  C   UNL     1      42.878   6.125  11.404  0.00  0.00    +0.000 A 
ATOM     30  N   UNL     1      42.821   4.983  12.159  0.00  0.00    +0.000 N 
ATOM     31  C   UNL     1      43.875   4.537  12.920  0.00  0.00    +0.000 A 
ATOM     32  O   UNL     1      43.805   3.492  13.560  0.00  0.00    +0.000 OA
ATOM     33  C   UNL     1      45.050   5.387  12.879  0.00  0.00    +0.000 A 
ATOM     34  H   UNL     1      41.990   4.409  12.169  0.00  0.00    +0.000 HD
ENDBRANCH  21  24
ENDBRANCH  19  20
ENDBRANCH   4  19
TORSDOF 8
ENDMDL
MODEL 4
REMARK VINA RESULT:    -7.150      2.041      3.390
REMARK INTER + INTRA:         -12.077
REMARK INTER:                 -10.509
REMARK INTRA:                  -1.569
REMARK UNBOUND:                -1.583
REMARK  Name = 
REMARK  10 active torsions:
REMARK  status: ('A' for Active; 'I' for Inactive)
REMARK    1  A    between atoms: C_1  and  C_2
REMARK    2  A    between atoms: C_2  and  C_3
REMARK    3  A    between atoms: C_2  and  C_13
REMARK    4  A    between atoms: C_3  and  N_4
REMARK    5  A    between atoms: N_4  and  C_5
REMARK    6  A    between atoms: N_4  and  C_6
REMARK    7  A    between atoms: C_6  and  C_7
REMARK    8  A    between atoms: C_16  and  C_17
REMARK    9  A    between atoms: C_17  and  N_18
REMARK   10  A    between atoms: C_19  and  C_21
REMARK                            x       y       z     vdW  Elec       q    Type
REMARK                         _______ _______ _______ _____ _____    ______ ____
ROOT
ATOM      1  C   UNL     1      47.719   6.112  14.043  0.00  0.00    +0.000 A 
ATOM      2  C   UNL     1      46.972   4.941  13.919  0.00  0.00    +0.000 A 
ATOM      3  C   UNL     1      46.977   4.003  14.949  0.00  0.00    +0.000 A 
ATOM      4  C   UNL     1      47.707   4.258  16.107  0.00  0.00    +0.000 A 
ATOM      5  C   UNL     1      48.434   5.437  16.150  0.00  0.00    +0.000 A 
ATOM      6  N   UNL     1      48.451   6.356  15.161  0.00  0.00    +0.000 NA
ENDROOT
BRANCH   1   8
ATOM      7  C   UNL     1      48.998   7.279  12.196  0.00  0.00    +0.000 C 
ATOM      8  C   UNL     1      47.670   7.208  12.983  0.00  0.00    +0.000 C 
BRANCH   8   9
ATOM      9  C   UNL     1      46.516   7.059  11.950  0.00  0.00    +0.000 C 
BRANCH   9  10
ATOM     10  N   UNL     1      45.213   7.683  12.281  0.00  0.00    +0.000 NA
ATOM     11  C   UNL     1      45.259   9.143  12.173  0.00  0.00    +0.000 C 
BRANCH  10  12
ATOM     12  C   UNL     1      44.123   7.166  11.424  0.00  0.00    +0.000 C 
BRANCH  12  13
ATOM     13  C   UNL     1      43.859   5.684  11.596  0.00  0.00    +0.000 A 
ATOM     14  C   UNL     1      43.489   5.162  12.845  0.00  0.00    +0.000 A 
ATOM     15  C   UNL     1      43.336   3.787  13.020  0.00  0.00    +0.000 A 
ATOM     16  C   UNL     1      43.536   2.920  11.946  0.00  0.00    +0.000 A 
ATOM     17  C   UNL     1      43.868   3.429  10.692  0.00  0.00    +0.000 A 
ATOM     18  C   UNL     1      44.025   4.805  10.516  0.00  0.00    +0.000 A 
ENDBRANCH  12  13
ENDBRANCH  10  12
ENDBRANCH   9  10
ENDBRANCH   8   9
ENDBRANCH   1   8
BRANCH   4  19
ATOM     19  C   UNL     1      47.781   3.278  17.233  0.00  0.00    +0.000 C 
BRANCH  19  20
ATOM     20  N   UNL     1      49.149   3.061  17.619  0.00  0.00    +0.000 N 
ATOM     21  C   UNL     1      49.964   2.214  16.920  0.00  0.00    +0.000 C 
ATOM     22  O   UNL     1      49.583   1.641  15.903  0.00  0.00    +0.000 OA
ATOM     23  H   UNL     1      49.418   3.355  18.555  0.00  0.00    +0.000 HD
BRANCH  21  24
ATOM     24  C   UNL     1      51.333   2.071  17.418  0.00  0.00    +0.000 A 
ATOM     25  C   UNL     1      51.859   0.801  17.611  0.00  0.00    +0.000 A 
ATOM     26  S   UNL     1      53.478   0.804  18.147  0.00  0.00    +0.000 S 
ATOM     27  C   UNL     1      53.521   2.505  18.181  0.00  0.00    +0.000 A 
ATOM     28  N   UNL     1      54.639   3.169  18.579  0.00  0.00    +0.000 NA
ATOM     29  C   UNL     1      54.525   4.455  18.580  0.00  0.00    +0.000 A 
ATOM     30  N   UNL     1      53.395   5.138  18.215  0.00  0.00    +0.000 N 
ATOM     31  C   UNL     1      52.249   4.512  17.788  0.00  0.00    +0.000 A 
ATOM     32  O   UNL     1      51.262   5.152  17.435  0.00  0.00    +0.000 OA
ATOM     33  C   UNL     1      52.323   3.063  17.775  0.00  0.00    +0.000 A 
ATOM     34  H   UNL     1      53.370   6.147  18.233  0.00  0.00    +0.000 HD
ENDBRANCH  21  24
ENDBRANCH  19  20
ENDBRANCH   4  19
TORSDOF 8
ENDMDL
MODEL 5
REMARK VINA RESULT:    -6.878      3.929      9.165
REMARK INTER + INTRA:         -11.677
REMARK INTER:                 -10.037
REMARK INTRA:                  -1.640
REMARK UNBOUND:                -1.583
REMARK  Name = 
REMARK  10 active torsions:
REMARK  status: ('A' for Active; 'I' for Inactive)
REMARK    1  A    between atoms: C_1  and  C_2
REMARK    2  A    between atoms: C_2  and  C_3
REMARK    3  A    between atoms: C_2  and  C_13
REMARK    4  A    between atoms: C_3  and  N_4
REMARK    5  A    between atoms: N_4  and  C_5
REMARK    6  A    between atoms: N_4  and  C_6
REMARK    7  A    between atoms: C_6  and  C_7
REMARK    8  A    between atoms: C_16  and  C_17
REMARK    9  A    between atoms: C_17  and  N_18
REMARK   10  A    between atoms: C_19  and  C_21
REMARK                            x       y       z     vdW  Elec       q    Type
REMARK                         _______ _______ _______ _____ _____    ______ ____
ROOT
ATOM      1  C   UNL     1      50.418   7.267  15.208  0.00  0.00    +0.000 A 
ATOM      2  C   UNL     1      50.788   8.111  14.161  0.00  0.00    +0.000 A 
ATOM      3  C   UNL     1      49.924   8.301  13.085  0.00  0.00    +0.000 A 
ATOM      4  C   UNL     1      48.684   7.669  13.079  0.00  0.00    +0.000 A 
ATOM      5  C   UNL     1      48.394   6.836  14.148  0.00  0.00    +0.000 A 
ATOM      6  N   UNL     1      49.219   6.630  15.197  0.00  0.00    +0.000 NA
ENDROOT
BRANCH   1   8
ATOM      7  C   UNL     1      52.591   7.925  16.327  0.00  0.00    +0.000 C 
ATOM      8  C   UNL     1      51.290   7.101  16.448  0.00  0.00    +0.000 C 
BRANCH   8   9
ATOM      9  C   UNL     1      50.599   7.504  17.784  0.00  0.00    +0.000 C 
BRANCH   9  10
ATOM     10  N   UNL     1      50.620   6.520  18.892  0.00  0.00    +0.000 NA
ATOM     11  C   UNL     1      51.035   7.128  20.159  0.00  0.00    +0.000 C 
BRANCH  10  12
ATOM     12  C   UNL     1      49.306   5.867  19.073  0.00  0.00    +0.000 C 
BRANCH  12  13
ATOM     13  C   UNL     1      49.103   4.645  18.199  0.00  0.00    +0.000 A 
ATOM     14  C   UNL     1      47.839   4.342  17.673  0.00  0.00    +0.000 A 
ATOM     15  C   UNL     1      47.637   3.169  16.945  0.00  0.00    +0.000 A 
ATOM     16  C   UNL     1      48.699   2.294  16.725  0.00  0.00    +0.000 A 
ATOM     17  C   UNL     1      49.968   2.601  17.212  0.00  0.00    +0.000 A 
ATOM     18  C   UNL     1      50.171   3.772  17.942  0.00  0.00    +0.000 A 
ENDBRANCH  12  13
ENDBRANCH  10  12
ENDBRANCH   9  10
ENDBRANCH   8   9
ENDBRANCH   1   8
BRANCH   4  19
ATOM     19  C   UNL     1      47.727   7.805  11.939  0.00  0.00    +0.000 C 
BRANCH  19  20
ATOM     20  N   UNL     1      47.007   6.576  11.740  0.00  0.00    +0.000 N 
ATOM     21  C   UNL     1      45.640   6.547  11.707  0.00  0.00    +0.000 C 
ATOM     22  O   UNL     1      44.967   7.570  11.791  0.00  0.00    +0.000 OA
ATOM     23  H   UNL     1      47.523   5.710  11.874  0.00  0.00    +0.000 HD
BRANCH  21  24
ATOM     24  C   UNL     1      45.024   5.233  11.506  0.00  0.00    +0.000 A 
ATOM     25  C   UNL     1      44.338   4.636  12.555  0.00  0.00    +0.000 A 
ATOM     26  S   UNL     1      43.638   3.135  12.149  0.00  0.00    +0.000 S 
ATOM     27  C   UNL     1      44.264   3.209  10.568  0.00  0.00    +0.000 A 
ATOM     28  N   UNL     1      44.044   2.202   9.681  0.00  0.00    +0.000 NA
ATOM     29  C   UNL     1      44.597   2.376   8.527  0.00  0.00    +0.000 A 
ATOM     30  N   UNL     1      45.345   3.470   8.178  0.00  0.00    +0.000 N 
ATOM     31  C   UNL     1      45.577   4.521   9.034  0.00  0.00    +0.000 A 
ATOM     32  O   UNL     1      46.224   5.503   8.682  0.00  0.00    +0.000 OA
ATOM     33  C   UNL     1      44.983   4.369  10.348  0.00  0.00    +0.000 A 
ATOM     34  H   UNL     1      45.748   3.551   7.255  0.00  0.00    +0.000 HD
ENDBRANCH  21  24
ENDBRANCH  19  20
ENDBRANCH   4  19
TORSDOF 8
ENDMDL
MODEL 6
REMARK VINA RESULT:    -6.655      4.135      8.585
REMARK INTER + INTRA:         -11.351
REMARK INTER:                  -9.967
REMARK INTRA:                  -1.383
REMARK UNBOUND:                -1.583
REMARK  Name = 
REMARK  10 active torsions:
REMARK  status: ('A' for Active; 'I' for Inactive)
REMARK    1  A    between atoms: C_1  and  C_2
REMARK    2  A    between atoms: C_2  and  C_3
REMARK    3  A    between atoms: C_2  and  C_13
REMARK    4  A    between atoms: C_3  and  N_4
REMARK    5  A    between atoms: N_4  and  C_5
REMARK    6  A    between atoms: N_4  and  C_6
REMARK    7  A    between atoms: C_6  and  C_7
REMARK    8  A    between atoms: C_16  and  C_17
REMARK    9  A    between atoms: C_17  and  N_18
REMARK   10  A    between atoms: C_19  and  C_21
REMARK                            x       y       z     vdW  Elec       q    Type
REMARK                         _______ _______ _______ _____ _____    ______ ____
ROOT
ATOM      1  C   UNL     1      48.998   8.488  17.277  0.00  0.00    +0.000 A 
ATOM      2  C   UNL     1      49.898   7.495  16.893  0.00  0.00    +0.000 A 
ATOM      3  C   UNL     1      50.024   7.156  15.547  0.00  0.00    +0.000 A 
ATOM      4  C   UNL     1      49.268   7.834  14.594  0.00  0.00    +0.000 A 
ATOM      5  C   UNL     1      48.387   8.799  15.055  0.00  0.00    +0.000 A 
ATOM      6  N   UNL     1      48.242   9.138  16.354  0.00  0.00    +0.000 NA
ENDROOT
BRANCH   1   8
ATOM      7  C   UNL     1      48.702  10.489  18.800  0.00  0.00    +0.000 C 
ATOM      8  C   UNL     1      48.894   8.957  18.725  0.00  0.00    +0.000 C 
BRANCH   8   9
ATOM      9  C   UNL     1      47.743   8.297  19.538  0.00  0.00    +0.000 C 
BRANCH   9  10
ATOM     10  N   UNL     1      47.907   6.878  19.934  0.00  0.00    +0.000 NA
ATOM     11  C   UNL     1      47.671   6.676  21.365  0.00  0.00    +0.000 C 
BRANCH  10  12
ATOM     12  C   UNL     1      47.017   5.985  19.162  0.00  0.00    +0.000 C 
BRANCH  12  13
ATOM     13  C   UNL     1      47.750   4.914  18.379  0.00  0.00    +0.000 A 
ATOM     14  C   UNL     1      47.135   4.273  17.294  0.00  0.00    +0.000 A 
ATOM     15  C   UNL     1      47.779   3.226  16.633  0.00  0.00    +0.000 A 
ATOM     16  C   UNL     1      49.048   2.820  17.041  0.00  0.00    +0.000 A 
ATOM     17  C   UNL     1      49.684   3.473  18.095  0.00  0.00    +0.000 A 
ATOM     18  C   UNL     1      49.041   4.518  18.758  0.00  0.00    +0.000 A 
ENDBRANCH  12  13
ENDBRANCH  10  12
ENDBRANCH   9  10
ENDBRANCH   8   9
ENDBRANCH   1   8
BRANCH   4  19
ATOM     19  C   UNL     1      49.332   7.495  13.140  0.00  0.00    +0.000 C 
BRANCH  19  20
ATOM     20  N   UNL     1      48.016   7.214  12.633  0.00  0.00    +0.000 N 
ATOM     21  C   UNL     1      47.376   6.039  12.918  0.00  0.00    +0.000 C 
ATOM     22  O   UNL     1      47.871   5.195  13.660  0.00  0.00    +0.000 OA
ATOM     23  H   UNL     1      47.682   7.793  11.867  0.00  0.00    +0.000 HD
BRANCH  21  24
ATOM     24  C   UNL     1      46.043   5.869  12.336  0.00  0.00    +0.000 A 
ATOM     25  C   UNL     1      45.392   6.967  11.790  0.00  0.00    +0.000 A 
ATOM     26  S   UNL     1      43.874   6.595  11.110  0.00  0.00    +0.000 S 
ATOM     27  C   UNL     1      44.012   4.959  11.559  0.00  0.00    +0.000 A 
ATOM     28  N   UNL     1      43.018   4.072  11.286  0.00  0.00    +0.000 NA
ATOM     29  C   UNL     1      43.243   2.872  11.705  0.00  0.00    +0.000 A 
ATOM     30  N   UNL     1      44.375   2.476  12.369  0.00  0.00    +0.000 N 
ATOM     31  C   UNL     1      45.413   3.332  12.649  0.00  0.00    +0.000 A 
ATOM     32  O   UNL     1      46.430   2.941  13.216  0.00  0.00    +0.000 OA
ATOM     33  C   UNL     1      45.206   4.697  12.205  0.00  0.00    +0.000 A 
ATOM     34  H   UNL     1      44.494   1.519  12.666  0.00  0.00    +0.000 HD
ENDBRANCH  21  24
ENDBRANCH  19  20
ENDBRANCH   4  19
TORSDOF 8
ENDMDL
MODEL 7
REMARK VINA RESULT:    -6.437      1.789      2.764
REMARK INTER + INTRA:         -11.031
REMARK INTER:                  -9.540
REMARK INTRA:                  -1.491
REMARK UNBOUND:                -1.583
REMARK  Name = 
REMARK  10 active torsions:
REMARK  status: ('A' for Active; 'I' for Inactive)
REMARK    1  A    between atoms: C_1  and  C_2
REMARK    2  A    between atoms: C_2  and  C_3
REMARK    3  A    between atoms: C_2  and  C_13
REMARK    4  A    between atoms: C_3  and  N_4
REMARK    5  A    between atoms: N_4  and  C_5
REMARK    6  A    between atoms: N_4  and  C_6
REMARK    7  A    between atoms: C_6  and  C_7
REMARK    8  A    between atoms: C_16  and  C_17
REMARK    9  A    between atoms: C_17  and  N_18
REMARK   10  A    between atoms: C_19  and  C_21
REMARK                            x       y       z     vdW  Elec       q    Type
REMARK                         _______ _______ _______ _____ _____    ______ ____
ROOT
ATOM      1  C   UNL     1      47.899   6.642  13.834  0.00  0.00    +0.000 A 
ATOM      2  C   UNL     1      47.167   5.461  13.951  0.00  0.00    +0.000 A 
ATOM      3  C   UNL     1      47.322   4.657  15.078  0.00  0.00    +0.000 A 
ATOM      4  C   UNL     1      48.187   5.057  16.093  0.00  0.00    +0.000 A 
ATOM      5  C   UNL     1      48.889   6.236  15.898  0.00  0.00    +0.000 A 
ATOM      6  N   UNL     1      48.761   7.025  14.810  0.00  0.00    +0.000 NA
ENDROOT
BRANCH   1   8
ATOM      7  C   UNL     1      48.951   7.658  11.768  0.00  0.00    +0.000 C 
ATOM      8  C   UNL     1      47.693   7.598  12.664  0.00  0.00    +0.000 C 
BRANCH   8   9
ATOM      9  C   UNL     1      46.481   7.254  11.751  0.00  0.00    +0.000 C 
BRANCH   9  10
ATOM     10  N   UNL     1      45.157   7.803  12.131  0.00  0.00    +0.000 NA
ATOM     11  C   UNL     1      45.095   9.256  11.960  0.00  0.00    +0.000 C 
BRANCH  10  12
ATOM     12  C   UNL     1      44.060   7.175  11.362  0.00  0.00    +0.000 C 
BRANCH  12  13
ATOM     13  C   UNL     1      43.932   5.681  11.585  0.00  0.00    +0.000 A 
ATOM     14  C   UNL     1      44.034   4.786  10.510  0.00  0.00    +0.000 A 
ATOM     15  C   UNL     1      43.825   3.420  10.704  0.00  0.00    +0.000 A 
ATOM     16  C   UNL     1      43.527   2.934  11.976  0.00  0.00    +0.000 A 
ATOM     17  C   UNL     1      43.458   3.809  13.058  0.00  0.00    +0.000 A 
ATOM     18  C   UNL     1      43.664   5.176  12.865  0.00  0.00    +0.000 A 
ENDBRANCH  12  13
ENDBRANCH  10  12
ENDBRANCH   9  10
ENDBRANCH   8   9
ENDBRANCH   1   8
BRANCH   4  19
ATOM     19  C   UNL     1      48.423   4.224  17.311  0.00  0.00    +0.000 C 
BRANCH  19  20
ATOM     20  N   UNL     1      49.809   3.847  17.399  0.00  0.00    +0.000 N 
ATOM     21  C   UNL     1      50.562   4.148  18.500  0.00  0.00    +0.000 C 
ATOM     22  O   UNL     1      50.081   4.704  19.483  0.00  0.00    +0.000 OA
ATOM     23  H   UNL     1      50.271   3.578  16.534  0.00  0.00    +0.000 HD
BRANCH  21  24
ATOM     24  C   UNL     1      51.962   3.718  18.466  0.00  0.00    +0.000 A 
ATOM     25  C   UNL     1      52.954   4.593  18.890  0.00  0.00    +0.000 A 
ATOM     26  S   UNL     1      54.522   3.927  18.835  0.00  0.00    +0.000 S 
ATOM     27  C   UNL     1      53.937   2.460  18.202  0.00  0.00    +0.000 A 
ATOM     28  N   UNL     1      54.785   1.440  17.900  0.00  0.00    +0.000 NA
ATOM     29  C   UNL     1      54.211   0.396  17.404  0.00  0.00    +0.000 A 
ATOM     30  N   UNL     1      52.863   0.276  17.188  0.00  0.00    +0.000 N 
ATOM     31  C   UNL     1      51.966   1.271  17.495  0.00  0.00    +0.000 A 
ATOM     32  O   UNL     1      50.759   1.122  17.320  0.00  0.00    +0.000 OA
ATOM     33  C   UNL     1      52.563   2.471  18.049  0.00  0.00    +0.000 A 
ATOM     34  H   UNL     1      52.473  -0.571  16.801  0.00  0.00    +0.000 HD
ENDBRANCH  21  24
ENDBRANCH  19  20
ENDBRANCH   4  19
TORSDOF 8
ENDMDL
MODEL 8
REMARK VINA RESULT:    -6.130      3.713      5.724
REMARK INTER + INTRA:         -10.580
REMARK INTER:                  -9.416
REMARK INTRA:                  -1.164
REMARK UNBOUND:                -1.583
REMARK  Name = 
REMARK  10 active torsions:
REMARK  status: ('A' for Active; 'I' for Inactive)
REMARK    1  A    between atoms: C_1  and  C_2
REMARK    2  A    between atoms: C_2  and  C_3
REMARK    3  A    between atoms: C_2  and  C_13
REMARK    4  A    between atoms: C_3  and  N_4
REMARK    5  A    between atoms: N_4  and  C_5
REMARK    6  A    between atoms: N_4  and  C_6
REMARK    7  A    between atoms: C_6  and  C_7
REMARK    8  A    between atoms: C_16  and  C_17
REMARK    9  A    between atoms: C_17  and  N_18
REMARK   10  A    between atoms: C_19  and  C_21
REMARK                            x       y       z     vdW  Elec       q    Type
REMARK                         _______ _______ _______ _____ _____    ______ ____
ROOT
ATOM      1  C   UNL     1      47.229   4.980  14.696  0.00  0.00    +0.000 A 
ATOM      2  C   UNL     1      48.102   6.060  14.817  0.00  0.00    +0.000 A 
ATOM      3  C   UNL     1      48.774   6.278  16.018  0.00  0.00    +0.000 A 
ATOM      4  C   UNL     1      48.589   5.395  17.079  0.00  0.00    +0.000 A 
ATOM      5  C   UNL     1      47.696   4.353  16.885  0.00  0.00    +0.000 A 
ATOM      6  N   UNL     1      47.028   4.128  15.734  0.00  0.00    +0.000 NA
ENDROOT
BRANCH   1   8
ATOM      7  C   UNL     1      46.409   3.121  13.185  0.00  0.00    +0.000 C 
ATOM      8  C   UNL     1      46.544   4.649  13.374  0.00  0.00    +0.000 C 
BRANCH   8   9
ATOM      9  C   UNL     1      45.127   5.271  13.205  0.00  0.00    +0.000 C 
BRANCH   9  10
ATOM     10  N   UNL     1      44.962   6.337  12.188  0.00  0.00    +0.000 NA
ATOM     11  C   UNL     1      46.238   6.716  11.577  0.00  0.00    +0.000 C 
BRANCH  10  12
ATOM     12  C   UNL     1      44.012   5.940  11.125  0.00  0.00    +0.000 C 
BRANCH  12  13
ATOM     13  C   UNL     1      44.462   4.739  10.318  0.00  0.00    +0.000 A 
ATOM     14  C   UNL     1      45.330   4.895   9.226  0.00  0.00    +0.000 A 
ATOM     15  C   UNL     1      45.669   3.800   8.431  0.00  0.00    +0.000 A 
ATOM     16  C   UNL     1      45.156   2.538   8.726  0.00  0.00    +0.000 A 
ATOM     17  C   UNL     1      44.322   2.365   9.828  0.00  0.00    +0.000 A 
ATOM     18  C   UNL     1      43.979   3.459  10.623  0.00  0.00    +0.000 A 
ENDBRANCH  12  13
ENDBRANCH  10  12
ENDBRANCH   9  10
ENDBRANCH   8   9
ENDBRANCH   1   8
BRANCH   4  19
ATOM     19  C   UNL     1      49.254   5.592  18.402  0.00  0.00    +0.000 C 
BRANCH  19  20
ATOM     20  N   UNL     1      48.911   6.877  18.949  0.00  0.00    +0.000 N 
ATOM     21  C   UNL     1      47.774   7.059  19.687  0.00  0.00    +0.000 C 
ATOM     22  O   UNL     1      47.024   6.127  19.962  0.00  0.00    +0.000 OA
ATOM     23  H   UNL     1      49.396   7.686  18.568  0.00  0.00    +0.000 HD
BRANCH  21  24
ATOM     24  C   UNL     1      47.532   8.416  20.180  0.00  0.00    +0.000 A 
ATOM     25  C   UNL     1      47.288   8.616  21.533  0.00  0.00    +0.000 A 
ATOM     26  S   UNL     1      47.074  10.254  21.956  0.00  0.00    +0.000 S 
ATOM     27  C   UNL     1      47.257  10.752  20.339  0.00  0.00    +0.000 A 
ATOM     28  N   UNL     1      47.162  12.065  19.996  0.00  0.00    +0.000 NA
ATOM     29  C   UNL     1      47.296  12.298  18.733  0.00  0.00    +0.000 A 
ATOM     30  N   UNL     1      47.521  11.338  17.782  0.00  0.00    +0.000 N 
ATOM     31  C   UNL     1      47.643  10.003  18.083  0.00  0.00    +0.000 A 
ATOM     32  O   UNL     1      47.878   9.169  17.213  0.00  0.00    +0.000 OA
ATOM     33  C   UNL     1      47.493   9.686  19.490  0.00  0.00    +0.000 A 
ATOM     34  H   UNL     1      47.622  11.586  16.808  0.00  0.00    +0.000 HD
ENDBRANCH  21  24
ENDBRANCH  19  20
ENDBRANCH   4  19
TORSDOF 8
ENDMDL
MODEL 9
REMARK VINA RESULT:    -6.032      3.797      6.199
REMARK INTER + INTRA:         -10.436
REMARK INTER:                  -8.786
REMARK INTRA:                  -1.650
REMARK UNBOUND:                -1.583
REMARK  Name = 
REMARK  10 active torsions:
REMARK  status: ('A' for Active; 'I' for Inactive)
REMARK    1  A    between atoms: C_1  and  C_2
REMARK    2  A    between atoms: C_2  and  C_3
REMARK    3  A    between atoms: C_2  and  C_13
REMARK    4  A    between atoms: C_3  and  N_4
REMARK    5  A    between atoms: N_4  and  C_5
REMARK    6  A    between atoms: N_4  and  C_6
REMARK    7  A    between atoms: C_6  and  C_7
REMARK    8  A    between atoms: C_16  and  C_17
REMARK    9  A    between atoms: C_17  and  N_18
REMARK   10  A    between atoms: C_19  and  C_21
REMARK                            x       y       z     vdW  Elec       q    Type
REMARK                         _______ _______ _______ _____ _____    ______ ____
ROOT
ATOM      1  C   UNL     1      44.944   8.436  11.703  0.00  0.00    +0.000 A 
ATOM      2  C   UNL     1      45.932   8.426  12.686  0.00  0.00    +0.000 A 
ATOM      3  C   UNL     1      46.265   7.232  13.322  0.00  0.00    +0.000 A 
ATOM      4  C   UNL     1      45.627   6.053  12.949  0.00  0.00    +0.000 A 
ATOM      5  C   UNL     1      44.647   6.146  11.973  0.00  0.00    +0.000 A 
ATOM      6  N   UNL     1      44.302   7.293  11.350  0.00  0.00    +0.000 NA
ENDROOT
BRANCH   1   8
ATOM      7  C   UNL     1      43.094   9.991  10.948  0.00  0.00    +0.000 C 
ATOM      8  C   UNL     1      44.611   9.699  10.915  0.00  0.00    +0.000 C 
BRANCH   8   9
ATOM      9  C   UNL     1      45.349  10.980  11.403  0.00  0.00    +0.000 C 
BRANCH   9  10
ATOM     10  N   UNL     1      46.592  11.368  10.696  0.00  0.00    +0.000 NA
ATOM     11  C   UNL     1      46.415  12.586   9.901  0.00  0.00    +0.000 C 
BRANCH  10  12
ATOM     12  C   UNL     1      47.721  11.559  11.633  0.00  0.00    +0.000 C 
BRANCH  12  13
ATOM     13  C   UNL     1      48.906  10.655  11.356  0.00  0.00    +0.000 A 
ATOM     14  C   UNL     1      48.888   9.309  11.749  0.00  0.00    +0.000 A 
ATOM     15  C   UNL     1      50.014   8.505  11.574  0.00  0.00    +0.000 A 
ATOM     16  C   UNL     1      51.165   9.034  10.992  0.00  0.00    +0.000 A 
ATOM     17  C   UNL     1      51.184  10.360  10.565  0.00  0.00    +0.000 A 
ATOM     18  C   UNL     1      50.059  11.166  10.742  0.00  0.00    +0.000 A 
ENDBRANCH  12  13
ENDBRANCH  10  12
ENDBRANCH   9  10
ENDBRANCH   8   9
ENDBRANCH   1   8
BRANCH   4  19
ATOM     19  C   UNL     1      45.915   4.747  13.615  0.00  0.00    +0.000 C 
BRANCH  19  20
ATOM     20  N   UNL     1      46.618   4.961  14.852  0.00  0.00    +0.000 N 
ATOM     21  C   UNL     1      47.428   3.998  15.389  0.00  0.00    +0.000 C 
ATOM     22  O   UNL     1      47.635   2.932  14.817  0.00  0.00    +0.000 OA
ATOM     23  H   UNL     1      46.306   5.735  15.434  0.00  0.00    +0.000 HD
BRANCH  21  24
ATOM     24  C   UNL     1      48.081   4.333  16.657  0.00  0.00    +0.000 A 
ATOM     25  C   UNL     1      47.808   3.572  17.786  0.00  0.00    +0.000 A 
ATOM     26  S   UNL     1      48.682   4.058  19.166  0.00  0.00    +0.000 S 
ATOM     27  C   UNL     1      49.427   5.329  18.315  0.00  0.00    +0.000 A 
ATOM     28  N   UNL     1      50.301   6.168  18.934  0.00  0.00    +0.000 NA
ATOM     29  C   UNL     1      50.771   7.103  18.178  0.00  0.00    +0.000 A 
ATOM     30  N   UNL     1      50.451   7.272  16.856  0.00  0.00    +0.000 N 
ATOM     31  C   UNL     1      49.589   6.438  16.184  0.00  0.00    +0.000 A 
ATOM     32  O   UNL     1      49.347   6.595  14.990  0.00  0.00    +0.000 OA
ATOM     33  C   UNL     1      49.026   5.374  16.993  0.00  0.00    +0.000 A 
ATOM     34  H   UNL     1      50.858   8.021  16.315  0.00  0.00    +0.000 HD
ENDBRANCH  21  24
ENDBRANCH  19  20
ENDBRANCH   4  19
TORSDOF 8
ENDMDL
