MODEL 1
REMARK VINA RESULT:    -7.508      0.000      0.000
REMARK INTER + INTRA:         -10.023
REMARK INTER:                  -9.263
REMARK INTRA:                  -0.760
REMARK UNBOUND:                -0.760
REMARK  Name = 
REMARK  4 active torsions:
REMARK  status: ('A' for Active; 'I' for Inactive)
REMARK    1  A    between atoms: C_4  and  C_5
REMARK    2  A    between atoms: C_7  and  O_8
REMARK    3  A    between atoms: O_8  and  C_9
REMARK    4  A    between atoms: C_9  and  C_10
REMARK                            x       y       z     vdW  Elec       q    Type
REMARK                         _______ _______ _______ _____ _____    ______ ____
ROOT
ATOM      1  C   UNL     1      45.048   3.297   9.346  0.00  0.00    +0.000 A 
ATOM      2  C   UNL     1      45.089   4.626   9.764  0.00  0.00    +0.000 A 
ATOM      3  C   UNL     1      44.324   5.016  10.863  0.00  0.00    +0.000 A 
ATOM      4  C   UNL     1      43.586   4.061  11.552  0.00  0.00    +0.000 A 
ATOM      5  C   UNL     1      43.581   2.770  11.065  0.00  0.00    +0.000 A 
ATOM      6  N   UNL     1      44.278   2.377   9.983  0.00  0.00    +0.000 NA
ENDROOT
BRANCH   1  10
ATOM      7  C   UNL     1      47.352   1.758   6.046  0.00  0.00    +0.000 A 
ATOM      8  C   UNL     1      46.885   3.070   6.014  0.00  0.00    +0.000 A 
ATOM      9  C   UNL     1      46.125   3.575   7.076  0.00  0.00    +0.000 A 
ATOM     10  C   UNL     1      45.817   2.779   8.193  0.00  0.00    +0.000 A 
ATOM     11  C   UNL     1      46.300   1.455   8.196  0.00  0.00    +0.000 A 
ATOM     12  C   UNL     1      47.056   0.949   7.137  0.00  0.00    +0.000 A 
ENDBRANCH   1  10
BRANCH   3  13
ATOM     13  O   UNL     1      44.365   6.351  11.179  0.00  0.00    +0.000 OA
BRANCH  13  14
ATOM     14  C   UNL     1      44.813   6.637  12.506  0.00  0.00    +0.000 C 
BRANCH  14  15
ATOM     15  C   UNL     1      46.311   6.726  12.545  0.00  0.00    +0.000 A 
ATOM     16  C   UNL     1      46.992   7.757  11.891  0.00  0.00    +0.000 A 
ATOM     17  C   UNL     1      48.375   7.845  11.993  0.00  0.00    +0.000 A 
ATOM     18  C   UNL     1      49.037   6.891  12.746  0.00  0.00    +0.000 A 
ATOM     19  N   UNL     1      48.417   5.873  13.382  0.00  0.00    +0.000 NA
ATOM     20  C   UNL     1      47.070   5.810  13.262  0.00  0.00    +0.000 A 
ENDBRANCH  14  15
ENDBRANCH  13  14
ENDBRANCH   3  13
TORSDOF 4
ENDMDL
MODEL 2
REMARK VINA RESULT:    -7.491      1.703      6.231
REMARK INTER + INTRA:         -10.003
REMARK INTER:                  -9.382
REMARK INTRA:                  -0.620
REMARK UNBOUND:                -0.760
REMARK  Name = 
REMARK  4 active torsions:
REMARK  status: ('A' for Active; 'I' for Inactive)
REMARK    1  A    between atoms: C_4  and  C_5
REMARK    2  A    between atoms: C_7  and  O_8
REMARK    3  A    between atoms: O_8  and  C_9
REMARK    4  A    between atoms: C_9  and  C_10
REMARK                            x       y       z     vdW  Elec       q    Type
REMARK                         _______ _______ _______ _____ _____    ______ ____
ROOT
ATOM      1  C   UNL     1      45.105   5.988  11.879  0.00  0.00    +0.000 A 
ATOM      2  C   UNL     1      44.992   5.197  10.738  0.00  0.00    +0.000 A 
ATOM      3  C   UNL     1      44.059   4.160  10.720  0.00  0.00    +0.000 A 
ATOM      4  C   UNL     1      43.225   3.976  11.816  0.00  0.00    +0.000 A 
ATOM      5  C   UNL     1      43.411   4.787  12.915  0.00  0.00    +0.000 A 
ATOM      6  N   UNL     1      44.331   5.768  12.974  0.00  0.00    +0.000 NA
ENDROOT
BRANCH   1  10
ATOM      7  C   UNL     1      47.942   9.203  12.297  0.00  0.00    +0.000 A 
ATOM      8  C   UNL     1      46.594   9.429  12.564  0.00  0.00    +0.000 A 
ATOM      9  C   UNL     1      45.663   8.393  12.419  0.00  0.00    +0.000 A 
ATOM     10  C   UNL     1      46.061   7.110  12.005  0.00  0.00    +0.000 A 
ATOM     11  C   UNL     1      47.430   6.912  11.740  0.00  0.00    +0.000 A 
ATOM     12  C   UNL     1      48.361   7.945  11.882  0.00  0.00    +0.000 A 
ENDBRANCH   1  10
BRANCH   3  13
ATOM     13  O   UNL     1      44.046   3.384   9.588  0.00  0.00    +0.000 OA
BRANCH  13  14
ATOM     14  C   UNL     1      44.726   3.953   8.467  0.00  0.00    +0.000 C 
BRANCH  14  15
ATOM     15  C   UNL     1      45.676   2.957   7.869  0.00  0.00    +0.000 A 
ATOM     16  C   UNL     1      46.486   3.292   6.779  0.00  0.00    +0.000 A 
ATOM     17  C   UNL     1      47.397   2.366   6.284  0.00  0.00    +0.000 A 
ATOM     18  C   UNL     1      47.465   1.126   6.894  0.00  0.00    +0.000 A 
ATOM     19  N   UNL     1      46.692   0.760   7.940  0.00  0.00    +0.000 NA
ATOM     20  C   UNL     1      45.812   1.680   8.399  0.00  0.00    +0.000 A 
ENDBRANCH  14  15
ENDBRANCH  13  14
ENDBRANCH   3  13
TORSDOF 4
ENDMDL
MODEL 3
REMARK VINA RESULT:    -6.800      1.595      6.269
REMARK INTER + INTRA:          -9.151
REMARK INTER:                  -8.603
REMARK INTRA:                  -0.548
REMARK UNBOUND:                -0.760
REMARK  Name = 
REMARK  4 active torsions:
REMARK  status: ('A' for Active; 'I' for Inactive)
REMARK    1  A    between atoms: C_4  and  C_5
REMARK    2  A    between atoms: C_7  and  O_8
REMARK    3  A    between atoms: O_8  and  C_9
REMARK    4  A    between atoms: C_9  and  C_10
REMARK                            x       y       z     vdW  Elec       q    Type
REMARK                         _______ _______ _______ _____ _____    ______ ____
ROOT
ATOM      1  C   UNL     1      46.789   6.347  12.212  0.00  0.00    +0.000 A 
ATOM      2  C   UNL     1      45.754   5.997  11.346  0.00  0.00    +0.000 A 
ATOM      3  C   UNL     1      45.027   4.833  11.591  0.00  0.00    +0.000 A 
ATOM      4  C   UNL     1      45.309   4.079  12.724  0.00  0.00    +0.000 A 
ATOM      5  C   UNL     1      46.360   4.479  13.523  0.00  0.00    +0.000 A 
ATOM      6  N   UNL     1      47.105   5.575  13.286  0.00  0.00    +0.000 NA
ENDROOT
BRANCH   1  10
ATOM      7  C   UNL     1      49.278   9.836  11.783  0.00  0.00    +0.000 A 
ATOM      8  C   UNL     1      47.916   9.983  12.034  0.00  0.00    +0.000 A 
ATOM      9  C   UNL     1      47.097   8.854  12.162  0.00  0.00    +0.000 A 
ATOM     10  C   UNL     1      47.623   7.556  12.044  0.00  0.00    +0.000 A 
ATOM     11  C   UNL     1      49.003   7.439  11.787  0.00  0.00    +0.000 A 
ATOM     12  C   UNL     1      49.822   8.564  11.656  0.00  0.00    +0.000 A 
ENDBRANCH   1  10
BRANCH   3  13
ATOM     13  O   UNL     1      44.066   4.519  10.663  0.00  0.00    +0.000 OA
BRANCH  13  14
ATOM     14  C   UNL     1      44.117   3.174  10.181  0.00  0.00    +0.000 C 
BRANCH  14  15
ATOM     15  C   UNL     1      45.112   3.056   9.063  0.00  0.00    +0.000 A 
ATOM     16  C   UNL     1      45.701   1.828   8.745  0.00  0.00    +0.000 A 
ATOM     17  C   UNL     1      46.576   1.739   7.669  0.00  0.00    +0.000 A 
ATOM     18  C   UNL     1      46.839   2.888   6.944  0.00  0.00    +0.000 A 
ATOM     19  N   UNL     1      46.300   4.095   7.226  0.00  0.00    +0.000 NA
ATOM     20  C   UNL     1      45.454   4.153   8.282  0.00  0.00    +0.000 A 
ENDBRANCH  14  15
ENDBRANCH  13  14
ENDBRANCH   3  13
TORSDOF 4
ENDMDL
MODEL 4
REMARK VINA RESULT:    -6.723      1.824      2.389
REMARK INTER + INTRA:          -9.055
REMARK INTER:                  -8.512
REMARK INTRA:                  -0.543
REMARK UNBOUND:                -0.760
REMARK  Name = 
REMARK  4 active torsions:
REMARK  status: ('A' for Active; 'I' for Inactive)
REMARK    1  A    between atoms: C_4  and  C_5
REMARK    2  A    between atoms: C_7  and  O_8
REMARK    3  A    between atoms: O_8  and  C_9
REMARK    4  A    between atoms: C_9  and  C_10
REMARK                            x       y       z     vdW  Elec       q    Type
REMARK                         _______ _______ _______ _____ _____    ______ ____
ROOT
ATOM      1  C   UNL     1      44.783   4.275  10.230  0.00  0.00    +0.000 A 
ATOM      2  C   UNL     1      45.483   5.096  11.112  0.00  0.00    +0.000 A 
ATOM      3  C   UNL     1      44.794   5.717  12.154  0.00  0.00    +0.000 A 
ATOM      4  C   UNL     1      43.440   5.457  12.324  0.00  0.00    +0.000 A 
ATOM      5  C   UNL     1      42.813   4.649  11.399  0.00  0.00    +0.000 A 
ATOM      6  N   UNL     1      43.446   4.071  10.361  0.00  0.00    +0.000 NA
ENDROOT
BRANCH   1  10
ATOM      7  C   UNL     1      46.675   2.182   6.974  0.00  0.00    +0.000 A 
ATOM      8  C   UNL     1      46.576   3.571   6.941  0.00  0.00    +0.000 A 
ATOM      9  C   UNL     1      45.952   4.259   7.989  0.00  0.00    +0.000 A 
ATOM     10  C   UNL     1      45.414   3.572   9.092  0.00  0.00    +0.000 A 
ATOM     11  C   UNL     1      45.527   2.168   9.096  0.00  0.00    +0.000 A 
ATOM     12  C   UNL     1      46.146   1.479   8.050  0.00  0.00    +0.000 A 
ENDBRANCH   1  10
BRANCH   3  13
ATOM     13  O   UNL     1      45.534   6.559  12.945  0.00  0.00    +0.000 OA
BRANCH  13  14
ATOM     14  C   UNL     1      46.941   6.306  12.933  0.00  0.00    +0.000 C 
BRANCH  14  15
ATOM     15  C   UNL     1      47.376   5.700  14.236  0.00  0.00    +0.000 A 
ATOM     16  C   UNL     1      48.270   6.366  15.081  0.00  0.00    +0.000 A 
ATOM     17  C   UNL     1      48.609   5.805  16.307  0.00  0.00    +0.000 A 
ATOM     18  C   UNL     1      48.044   4.589  16.648  0.00  0.00    +0.000 A 
ATOM     19  N   UNL     1      47.186   3.910  15.855  0.00  0.00    +0.000 NA
ATOM     20  C   UNL     1      46.876   4.477  14.666  0.00  0.00    +0.000 A 
ENDBRANCH  14  15
ENDBRANCH  13  14
ENDBRANCH   3  13
TORSDOF 4
ENDMDL
MODEL 5
REMARK VINA RESULT:    -6.434      2.069      6.562
REMARK INTER + INTRA:          -8.699
REMARK INTER:                  -8.077
REMARK INTRA:                  -0.622
REMARK UNBOUND:                -0.760
REMARK  Name = 
REMARK  4 active torsions:
REMARK  status: ('A' for Active; 'I' for Inactive)
REMARK    1  A    between atoms: C_4  and  C_5
REMARK    2  A    between atoms: C_7  and  O_8
REMARK    3  A    between atoms: O_8  and  C_9
REMARK    4  A    between atoms: C_9  and  C_10
REMARK                            x       y       z     vdW  Elec       q    Type
REMARK                         _______ _______ _______ _____ _____    ______ ____
ROOT
ATOM      1  C   UNL     1      45.867   5.376  12.786  0.00  0.00    +0.000 A 
ATOM      2  C   UNL     1      46.143   5.409  11.420  0.00  0.00    +0.000 A 
ATOM      3  C   UNL     1      45.111   5.173  10.512  0.00  0.00    +0.000 A 
ATOM      4  C   UNL     1      43.821   4.968  10.987  0.00  0.00    +0.000 A 
ATOM      5  C   UNL     1      43.631   4.930  12.352  0.00  0.00    +0.000 A 
ATOM      6  N   UNL     1      44.617   5.114  13.250  0.00  0.00    +0.000 NA
ENDROOT
BRANCH   1  10
ATOM      7  C   UNL     1      48.769   6.056  15.897  0.00  0.00    +0.000 A 
ATOM      8  C   UNL     1      48.734   6.895  14.786  0.00  0.00    +0.000 A 
ATOM      9  C   UNL     1      47.802   6.674  13.764  0.00  0.00    +0.000 A 
ATOM     10  C   UNL     1      46.885   5.610  13.832  0.00  0.00    +0.000 A 
ATOM     11  C   UNL     1      46.947   4.777  14.967  0.00  0.00    +0.000 A 
ATOM     12  C   UNL     1      47.877   4.994  15.986  0.00  0.00    +0.000 A 
ENDBRANCH   1  10
BRANCH   3  13
ATOM     13  O   UNL     1      45.469   5.160   9.188  0.00  0.00    +0.000 OA
BRANCH  13  14
ATOM     14  C   UNL     1      44.833   4.145   8.407  0.00  0.00    +0.000 C 
BRANCH  14  15
ATOM     15  C   UNL     1      45.841   3.136   7.939  0.00  0.00    +0.000 A 
ATOM     16  C   UNL     1      45.763   1.797   8.336  0.00  0.00    +0.000 A 
ATOM     17  C   UNL     1      46.677   0.875   7.840  0.00  0.00    +0.000 A 
ATOM     18  C   UNL     1      47.648   1.325   6.962  0.00  0.00    +0.000 A 
ATOM     19  N   UNL     1      47.764   2.611   6.564  0.00  0.00    +0.000 NA
ATOM     20  C   UNL     1      46.863   3.487   7.065  0.00  0.00    +0.000 A 
ENDBRANCH  14  15
ENDBRANCH  13  14
ENDBRANCH   3  13
TORSDOF 4
ENDMDL
MODEL 6
REMARK VINA RESULT:    -6.390      2.476      3.260
REMARK INTER + INTRA:          -8.644
REMARK INTER:                  -8.087
REMARK INTRA:                  -0.557
REMARK UNBOUND:                -0.760
REMARK  Name = 
REMARK  4 active torsions:
REMARK  status: ('A' for Active; 'I' for Inactive)
REMARK    1  A    between atoms: C_4  and  C_5
REMARK    2  A    between atoms: C_7  and  O_8
REMARK    3  A    between atoms: O_8  and  C_9
REMARK    4  A    between atoms: C_9  and  C_10
REMARK                            x       y       z     vdW  Elec       q    Type
REMARK                         _______ _______ _______ _____ _____    ______ ____
ROOT
ATOM      1  C   UNL     1      45.411   3.614   8.958  0.00  0.00    +0.000 A 
ATOM      2  C   UNL     1      45.800   4.886   9.376  0.00  0.00    +0.000 A 
ATOM      3  C   UNL     1      45.098   5.506  10.409  0.00  0.00    +0.000 A 
ATOM      4  C   UNL     1      44.065   4.821  11.038  0.00  0.00    +0.000 A 
ATOM      5  C   UNL     1      43.726   3.574  10.555  0.00  0.00    +0.000 A 
ATOM      6  N   UNL     1      44.361   2.970   9.532  0.00  0.00    +0.000 NA
ENDROOT
BRANCH   1  10
ATOM      7  C   UNL     1      47.304   1.467   5.739  0.00  0.00    +0.000 A 
ATOM      8  C   UNL     1      47.072   0.830   6.955  0.00  0.00    +0.000 A 
ATOM      9  C   UNL     1      46.468   1.524   8.011  0.00  0.00    +0.000 A 
ATOM     10  C   UNL     1      46.083   2.869   7.873  0.00  0.00    +0.000 A 
ATOM     11  C   UNL     1      46.333   3.487   6.632  0.00  0.00    +0.000 A 
ATOM     12  C   UNL     1      46.937   2.798   5.578  0.00  0.00    +0.000 A 
ENDBRANCH   1  10
BRANCH   3  13
ATOM     13  O   UNL     1      45.497   6.780  10.725  0.00  0.00    +0.000 OA
BRANCH  13  14
ATOM     14  C   UNL     1      44.828   7.355  11.850  0.00  0.00    +0.000 C 
BRANCH  14  15
ATOM     15  C   UNL     1      44.402   8.761  11.544  0.00  0.00    +0.000 A 
ATOM     16  C   UNL     1      43.316   9.021  10.702  0.00  0.00    +0.000 A 
ATOM     17  C   UNL     1      42.910  10.332  10.483  0.00  0.00    +0.000 A 
ATOM     18  C   UNL     1      43.609  11.347  11.112  0.00  0.00    +0.000 A 
ATOM     19  N   UNL     1      44.670  11.138  11.923  0.00  0.00    +0.000 NA
ATOM     20  C   UNL     1      45.045   9.852  12.116  0.00  0.00    +0.000 A 
ENDBRANCH  14  15
ENDBRANCH  13  14
ENDBRANCH   3  13
TORSDOF 4
ENDMDL
MODEL 7
REMARK VINA RESULT:    -6.211      1.583      2.259
REMARK INTER + INTRA:          -8.423
REMARK INTER:                  -7.796
REMARK INTRA:                  -0.627
REMARK UNBOUND:                -0.760
REMARK  Name = 
REMARK  4 active torsions:
REMARK  status: ('A' for Active; 'I' for Inactive)
REMARK    1  A    between atoms: C_4  and  C_5
REMARK    2  A    between atoms: C_7  and  O_8
REMARK    3  A    between atoms: O_8  and  C_9
REMARK    4  A    between atoms: C_9  and  C_10
REMARK                            x       y       z     vdW  Elec       q    Type
REMARK                         _______ _______ _______ _____ _____    ______ ____
ROOT
ATOM      1  C   UNL     1      44.803   4.368  10.321  0.00  0.00    +0.000 A 
ATOM      2  C   UNL     1      45.499   5.047  11.320  0.00  0.00    +0.000 A 
ATOM      3  C   UNL     1      44.783   5.714  12.314  0.00  0.00    +0.000 A 
ATOM      4  C   UNL     1      43.396   5.638  12.320  0.00  0.00    +0.000 A 
ATOM      5  C   UNL     1      42.779   4.964  11.287  0.00  0.00    +0.000 A 
ATOM      6  N   UNL     1      43.445   4.346  10.294  0.00  0.00    +0.000 NA
ENDROOT
BRANCH   1  10
ATOM      7  C   UNL     1      46.673   2.267   7.058  0.00  0.00    +0.000 A 
ATOM      8  C   UNL     1      46.133   1.552   8.124  0.00  0.00    +0.000 A 
ATOM      9  C   UNL     1      45.534   2.227   9.195  0.00  0.00    +0.000 A 
ATOM     10  C   UNL     1      45.462   3.631   9.222  0.00  0.00    +0.000 A 
ATOM     11  C   UNL     1      46.020   4.327   8.131  0.00  0.00    +0.000 A 
ATOM     12  C   UNL     1      46.621   3.656   7.063  0.00  0.00    +0.000 A 
ENDBRANCH   1  10
BRANCH   3  13
ATOM     13  O   UNL     1      45.533   6.412  13.227  0.00  0.00    +0.000 OA
BRANCH  13  14
ATOM     14  C   UNL     1      46.937   6.151  13.170  0.00  0.00    +0.000 C 
BRANCH  14  15
ATOM     15  C   UNL     1      47.699   7.429  12.968  0.00  0.00    +0.000 A 
ATOM     16  C   UNL     1      48.396   7.676  11.782  0.00  0.00    +0.000 A 
ATOM     17  C   UNL     1      49.045   8.893  11.602  0.00  0.00    +0.000 A 
ATOM     18  C   UNL     1      48.978   9.826  12.621  0.00  0.00    +0.000 A 
ATOM     19  N   UNL     1      48.325   9.621  13.786  0.00  0.00    +0.000 NA
ATOM     20  C   UNL     1      47.706   8.426  13.936  0.00  0.00    +0.000 A 
ENDBRANCH  14  15
ENDBRANCH  13  14
ENDBRANCH   3  13
TORSDOF 4
ENDMDL
MODEL 8
REMARK VINA RESULT:    -6.186      1.615      6.418
REMARK INTER + INTRA:          -8.392
REMARK INTER:                  -7.811
REMARK INTRA:                  -0.581
REMARK UNBOUND:                -0.760
REMARK  Name = 
REMARK  4 active torsions:
REMARK  status: ('A' for Active; 'I' for Inactive)
REMARK    1  A    between atoms: C_4  and  C_5
REMARK    2  A    between atoms: C_7  and  O_8
REMARK    3  A    between atoms: O_8  and  C_9
REMARK    4  A    between atoms: C_9  and  C_10
REMARK                            x       y       z     vdW  Elec       q    Type
REMARK                         _______ _______ _______ _____ _____    ______ ____
ROOT
ATOM      1  C   UNL     1      46.498   6.738  12.165  0.00  0.00    +0.000 A 
ATOM      2  C   UNL     1      46.250   5.663  11.313  0.00  0.00    +0.000 A 
ATOM      3  C   UNL     1      44.930   5.315  11.026  0.00  0.00    +0.000 A 
ATOM      4  C   UNL     1      43.895   6.082  11.547  0.00  0.00    +0.000 A 
ATOM      5  C   UNL     1      44.220   7.118  12.397  0.00  0.00    +0.000 A 
ATOM      6  N   UNL     1      45.484   7.449  12.723  0.00  0.00    +0.000 NA
ENDROOT
BRANCH   1  10
ATOM      7  C   UNL     1      50.420   8.097  13.319  0.00  0.00    +0.000 A 
ATOM      8  C   UNL     1      49.976   8.290  12.014  0.00  0.00    +0.000 A 
ATOM      9  C   UNL     1      48.707   7.841  11.626  0.00  0.00    +0.000 A 
ATOM     10  C   UNL     1      47.856   7.189  12.536  0.00  0.00    +0.000 A 
ATOM     11  C   UNL     1      48.334   7.006  13.849  0.00  0.00    +0.000 A 
ATOM     12  C   UNL     1      49.600   7.451  14.237  0.00  0.00    +0.000 A 
ENDBRANCH   1  10
BRANCH   3  13
ATOM     13  O   UNL     1      44.761   4.209  10.230  0.00  0.00    +0.000 OA
BRANCH  13  14
ATOM     14  C   UNL     1      44.913   4.453   8.830  0.00  0.00    +0.000 C 
BRANCH  14  15
ATOM     15  C   UNL     1      45.739   3.370   8.197  0.00  0.00    +0.000 A 
ATOM     16  C   UNL     1      46.666   3.662   7.191  0.00  0.00    +0.000 A 
ATOM     17  C   UNL     1      47.456   2.647   6.665  0.00  0.00    +0.000 A 
ATOM     18  C   UNL     1      47.290   1.366   7.160  0.00  0.00    +0.000 A 
ATOM     19  N   UNL     1      46.398   1.042   8.122  0.00  0.00    +0.000 NA
ATOM     20  C   UNL     1      45.639   2.049   8.614  0.00  0.00    +0.000 A 
ENDBRANCH  14  15
ENDBRANCH  13  14
ENDBRANCH   3  13
TORSDOF 4
ENDMDL
MODEL 9
REMARK VINA RESULT:    -5.989      2.105      6.863
REMARK INTER + INTRA:          -8.149
REMARK INTER:                  -7.473
REMARK INTRA:                  -0.677
REMARK UNBOUND:                -0.760
REMARK  Name = 
REMARK  4 active torsions:
REMARK  status: ('A' for Active; 'I' for Inactive)
REMARK    1  A    between atoms: C_4  and  C_5
REMARK    2  A    between atoms: C_7  and  O_8
REMARK    3  A    between atoms: O_8  and  C_9
REMARK    4  A    between atoms: C_9  and  C_10
REMARK                            x       y       z     vdW  Elec       q    Type
REMARK                         _______ _______ _______ _____ _____    ______ ____
ROOT
ATOM      1  C   UNL     1      46.386   7.672  12.700  0.00  0.00    +0.000 A 
ATOM      2  C   UNL     1      45.477   6.662  12.390  0.00  0.00    +0.000 A 
ATOM      3  C   UNL     1      45.736   5.360  12.816  0.00  0.00    +0.000 A 
ATOM      4  C   UNL     1      46.864   5.109  13.589  0.00  0.00    +0.000 A 
ATOM      5  C   UNL     1      47.726   6.156  13.837  0.00  0.00    +0.000 A 
ATOM      6  N   UNL     1      47.520   7.414  13.403  0.00  0.00    +0.000 NA
ENDROOT
BRANCH   1  10
ATOM      7  C   UNL     1      45.919  11.811  11.597  0.00  0.00    +0.000 A 
ATOM      8  C   UNL     1      44.801  10.984  11.679  0.00  0.00    +0.000 A 
ATOM      9  C   UNL     1      44.945   9.635  12.025  0.00  0.00    +0.000 A 
ATOM     10  C   UNL     1      46.209   9.084  12.297  0.00  0.00    +0.000 A 
ATOM     11  C   UNL     1      47.321   9.943  12.203  0.00  0.00    +0.000 A 
ATOM     12  C   UNL     1      47.181  11.289  11.856  0.00  0.00    +0.000 A 
ENDBRANCH   1  10
BRANCH   3  13
ATOM     13  O   UNL     1      44.830   4.408  12.422  0.00  0.00    +0.000 OA
BRANCH  13  14
ATOM     14  C   UNL     1      44.127   4.716  11.216  0.00  0.00    +0.000 C 
BRANCH  14  15
ATOM     15  C   UNL     1      44.801   4.074  10.038  0.00  0.00    +0.000 A 
ATOM     16  C   UNL     1      44.753   2.690   9.843  0.00  0.00    +0.000 A 
ATOM     17  C   UNL     1      45.338   2.131   8.713  0.00  0.00    +0.000 A 
ATOM     18  C   UNL     1      45.958   2.977   7.812  0.00  0.00    +0.000 A 
ATOM     19  N   UNL     1      46.036   4.317   7.970  0.00  0.00    +0.000 NA
ATOM     20  C   UNL     1      45.461   4.834   9.081  0.00  0.00    +0.000 A 
ENDBRANCH  14  15
ENDBRANCH  13  14
ENDBRANCH   3  13
TORSDOF 4
ENDMDL
