MODEL 1
REMARK VINA RESULT:    -8.531      0.000      0.000
REMARK INTER + INTRA:         -12.626
REMARK INTER:                 -11.523
REMARK INTRA:                  -1.103
REMARK UNBOUND:                -1.103
REMARK  Name = 
REMARK  8 active torsions:
REMARK  status: ('A' for Active; 'I' for Inactive)
REMARK    1  A    between atoms: C_1  and  C_2
REMARK    2  A    between atoms: C_4  and  C_5
REMARK    3  A    between atoms: C_5  and  C_6
REMARK    4  A    between atoms: C_5  and  C_7
REMARK    5  A    between atoms: C_7  and  O_8
REMARK    6  A    between atoms: O_8  and  C_9
REMARK    7  A    between atoms: C_12  and  C_13
REMARK    8  A    between atoms: C_19  and  C_20
REMARK                            x       y       z     vdW  Elec       q    Type
REMARK                         _______ _______ _______ _____ _____    ______ ____
ROOT
ATOM      1  C   UNL     1      43.732   4.329  12.500  0.00  0.00    +0.000 C 
ATOM      2  C   UNL     1      42.852   5.441  11.922  0.00  0.00    +0.000 C 
ENDROOT
BRANCH   1   6
ATOM      3  C   UNL     1      47.811   7.219  11.643  0.00  0.00    +0.000 C 
ATOM      4  C   UNL     1      47.050   6.229  12.472  0.00  0.00    +0.000 A 
ATOM      5  C   UNL     1      45.802   5.765  12.066  0.00  0.00    +0.000 A 
ATOM      6  C   UNL     1      45.110   4.857  12.873  0.00  0.00    +0.000 A 
ATOM      7  C   UNL     1      45.723   4.439  14.060  0.00  0.00    +0.000 A 
ATOM      8  C   UNL     1      46.981   4.934  14.410  0.00  0.00    +0.000 A 
ATOM      9  N   UNL     1      47.635   5.827  13.625  0.00  0.00    +0.000 NA
BRANCH   8  10
ATOM     10  C   UNL     1      47.674   4.541  15.655  0.00  0.00    +0.000 A 
ATOM     11  C   UNL     1      47.657   3.214  16.127  0.00  0.00    +0.000 A 
ATOM     12  C   UNL     1      48.290   2.852  17.320  0.00  0.00    +0.000 A 
ATOM     13  C   UNL     1      48.964   3.814  18.067  0.00  0.00    +0.000 A 
ATOM     14  C   UNL     1      49.009   5.128  17.611  0.00  0.00    +0.000 A 
ATOM     15 CL   UNL     1      49.844   6.317  18.534  0.00  0.00    +0.000 Cl
ATOM     16  C   UNL     1      48.377   5.491  16.420  0.00  0.00    +0.000 A 
ENDBRANCH   8  10
ENDBRANCH   1   6
BRANCH   1  17
ATOM     17  C   UNL     1      43.847   3.126  11.547  0.00  0.00    +0.000 C 
BRANCH  17  18
ATOM     18  O   UNL     1      43.598   3.526  10.192  0.00  0.00    +0.000 OA
BRANCH  18  19
ATOM     19  C   UNL     1      44.593   3.238   9.297  0.00  0.00    +0.000 A 
ATOM     20  C   UNL     1      45.264   4.165   8.501  0.00  0.00    +0.000 A 
ATOM     21  C   UNL     1      46.275   3.739   7.644  0.00  0.00    +0.000 A 
ATOM     22  C   UNL     1      46.585   2.388   7.604  0.00  0.00    +0.000 A 
ATOM     23  N   UNL     1      45.948   1.443   8.354  0.00  0.00    +0.000 NA
ATOM     24  C   UNL     1      44.969   1.901   9.176  0.00  0.00    +0.000 A 
BRANCH  22  25
ATOM     25  C   UNL     1      47.688   1.921   6.705  0.00  0.00    +0.000 C 
ATOM     26  N   UNL     1      48.679   2.832   6.463  0.00  0.00    +0.000 N 
ATOM     27  O   UNL     1      47.705   0.804   6.210  0.00  0.00    +0.000 OA
ATOM     28  H   UNL     1      48.621   3.757   6.876  0.00  0.00    +0.000 HD
ATOM     29  H   UNL     1      49.438   2.589   5.848  0.00  0.00    +0.000 HD
ENDBRANCH  22  25
ENDBRANCH  18  19
ENDBRANCH  17  18
ENDBRANCH   1  17
TORSDOF 6
ENDMDL
MODEL 2
REMARK VINA RESULT:    -8.233      2.070      3.934
REMARK INTER + INTRA:         -12.224
REMARK INTER:                 -11.093
REMARK INTRA:                  -1.131
REMARK UNBOUND:                -1.103
REMARK  Name = 
REMARK  8 active torsions:
REMARK  status: ('A' for Active; 'I' for Inactive)
REMARK    1  A    between atoms: C_1  and  C_2
REMARK    2  A    between atoms: C_4  and  C_5
REMARK    3  A    between atoms: C_5  and  C_6
REMARK    4  A    between atoms: C_5  and  C_7
REMARK    5  A    between atoms: C_7  and  O_8
REMARK    6  A    between atoms: O_8  and  C_9
REMARK    7  A    between atoms: C_12  and  C_13
REMARK    8  A    between atoms: C_19  and  C_20
REMARK                            x       y       z     vdW  Elec       q    Type
REMARK                         _______ _______ _______ _____ _____    ______ ____
ROOT
ATOM      1  C   UNL     1      43.838   4.949  12.251  0.00  0.00    +0.000 C 
ATOM      2  C   UNL     1      43.401   6.114  11.358  0.00  0.00    +0.000 C 
ENDROOT
BRANCH   1   6
ATOM      3  C   UNL     1      47.505   3.982  15.620  0.00  0.00    +0.000 C 
ATOM      4  C   UNL     1      46.954   4.753  14.457  0.00  0.00    +0.000 A 
ATOM      5  C   UNL     1      45.683   4.484  13.958  0.00  0.00    +0.000 A 
ATOM      6  C   UNL     1      45.208   5.209  12.861  0.00  0.00    +0.000 A 
ATOM      7  C   UNL     1      46.039   6.195  12.320  0.00  0.00    +0.000 A 
ATOM      8  C   UNL     1      47.303   6.425  12.870  0.00  0.00    +0.000 A 
ATOM      9  N   UNL     1      47.758   5.705  13.925  0.00  0.00    +0.000 NA
BRANCH   8  10
ATOM     10  C   UNL     1      48.232   7.444  12.336  0.00  0.00    +0.000 A 
ATOM     11  C   UNL     1      49.591   7.157  12.098  0.00  0.00    +0.000 A 
ATOM     12  C   UNL     1      50.472   8.131  11.619  0.00  0.00    +0.000 A 
ATOM     13  C   UNL     1      50.009   9.416  11.358  0.00  0.00    +0.000 A 
ATOM     14  C   UNL     1      48.666   9.718  11.569  0.00  0.00    +0.000 A 
ATOM     15 CL   UNL     1      48.094  11.309  11.244  0.00  0.00    +0.000 Cl
ATOM     16  C   UNL     1      47.786   8.747  12.047  0.00  0.00    +0.000 A 
ENDBRANCH   8  10
ENDBRANCH   1   6
BRANCH   1  17
ATOM     17  C   UNL     1      43.819   3.605  11.501  0.00  0.00    +0.000 C 
BRANCH  17  18
ATOM     18  O   UNL     1      43.567   3.807  10.103  0.00  0.00    +0.000 OA
BRANCH  18  19
ATOM     19  C   UNL     1      44.580   3.441   9.259  0.00  0.00    +0.000 A 
ATOM     20  C   UNL     1      45.354   4.310   8.492  0.00  0.00    +0.000 A 
ATOM     21  C   UNL     1      46.371   3.805   7.687  0.00  0.00    +0.000 A 
ATOM     22  C   UNL     1      46.585   2.435   7.670  0.00  0.00    +0.000 A 
ATOM     23  N   UNL     1      45.847   1.545   8.393  0.00  0.00    +0.000 NA
ATOM     24  C   UNL     1      44.865   2.079   9.164  0.00  0.00    +0.000 A 
BRANCH  22  25
ATOM     25  C   UNL     1      47.694   1.883   6.827  0.00  0.00    +0.000 C 
ATOM     26  N   UNL     1      48.647   2.785   6.439  0.00  0.00    +0.000 N 
ATOM     27  O   UNL     1      47.748   0.707   6.498  0.00  0.00    +0.000 OA
ATOM     28  H   UNL     1      48.559   3.756   6.715  0.00  0.00    +0.000 HD
ATOM     29  H   UNL     1      49.406   2.482   5.852  0.00  0.00    +0.000 HD
ENDBRANCH  22  25
ENDBRANCH  18  19
ENDBRANCH  17  18
ENDBRANCH   1  17
TORSDOF 6
ENDMDL
MODEL 3
REMARK VINA RESULT:    -7.633      3.794      5.734
REMARK INTER + INTRA:         -11.413
REMARK INTER:                 -10.630
REMARK INTRA:                  -0.784
REMARK UNBOUND:                -1.103
REMARK  Name = 
REMARK  8 active torsions:
REMARK  status: ('A' for Active; 'I' for Inactive)
REMARK    1  A    between atoms: C_1  and  C_2
REMARK    2  A    between atoms: C_4  and  C_5
REMARK    3  A    between atoms: C_5  and  C_6
REMARK    4  A    between atoms: C_5  and  C_7
REMARK    5  A    between atoms: C_7  and  O_8
REMARK    6  A    between atoms: O_8  and  C_9
REMARK    7  A    between atoms: C_12  and  C_13
REMARK    8  A    between atoms: C_19  and  C_20
REMARK                            x       y       z     vdW  Elec       q    Type
REMARK                         _______ _______ _______ _____ _____    ______ ____
ROOT
ATOM      1  C   UNL     1      45.354   4.831  11.669  0.00  0.00    +0.000 C 
ATOM      2  C   UNL     1      45.728   3.773  12.713  0.00  0.00    +0.000 C 
ENDROOT
BRANCH   1   6
ATOM      3  C   UNL     1      48.338   7.986  14.292  0.00  0.00    +0.000 C 
ATOM      4  C   UNL     1      47.186   7.726  13.367  0.00  0.00    +0.000 A 
ATOM      5  C   UNL     1      46.838   6.427  13.005  0.00  0.00    +0.000 A 
ATOM      6  C   UNL     1      45.772   6.222  12.125  0.00  0.00    +0.000 A 
ATOM      7  C   UNL     1      45.085   7.348  11.656  0.00  0.00    +0.000 A 
ATOM      8  C   UNL     1      45.476   8.626  12.063  0.00  0.00    +0.000 A 
ATOM      9  N   UNL     1      46.522   8.812  12.905  0.00  0.00    +0.000 NA
BRANCH   8  10
ATOM     10  C   UNL     1      44.799   9.853  11.593  0.00  0.00    +0.000 A 
ATOM     11  C   UNL     1      45.391  11.125  11.727  0.00  0.00    +0.000 A 
ATOM     12  C   UNL     1      44.736  12.286  11.307  0.00  0.00    +0.000 A 
ATOM     13  C   UNL     1      43.471  12.199  10.734  0.00  0.00    +0.000 A 
ATOM     14  C   UNL     1      42.873  10.952  10.576  0.00  0.00    +0.000 A 
ATOM     15 CL   UNL     1      41.309  10.845   9.865  0.00  0.00    +0.000 Cl
ATOM     16  C   UNL     1      43.527   9.792  10.995  0.00  0.00    +0.000 A 
ENDBRANCH   8  10
ENDBRANCH   1   6
BRANCH   1  17
ATOM     17  C   UNL     1      43.857   4.796  11.320  0.00  0.00    +0.000 C 
BRANCH  17  18
ATOM     18  O   UNL     1      43.668   4.705   9.901  0.00  0.00    +0.000 OA
BRANCH  18  19
ATOM     19  C   UNL     1      44.518   3.859   9.242  0.00  0.00    +0.000 A 
ATOM     20  C   UNL     1      45.474   4.236   8.300  0.00  0.00    +0.000 A 
ATOM     21  C   UNL     1      46.292   3.271   7.719  0.00  0.00    +0.000 A 
ATOM     22  C   UNL     1      46.127   1.947   8.096  0.00  0.00    +0.000 A 
ATOM     23  N   UNL     1      45.199   1.529   9.003  0.00  0.00    +0.000 NA
ATOM     24  C   UNL     1      44.421   2.501   9.546  0.00  0.00    +0.000 A 
BRANCH  22  25
ATOM     25  C   UNL     1      47.019   0.904   7.496  0.00  0.00    +0.000 C 
ATOM     26  N   UNL     1      48.007   1.372   6.674  0.00  0.00    +0.000 N 
ATOM     27  O   UNL     1      46.876  -0.290   7.715  0.00  0.00    +0.000 OA
ATOM     28  H   UNL     1      48.083   2.368   6.501  0.00  0.00    +0.000 HD
ATOM     29  H   UNL     1      48.626   0.720   6.221  0.00  0.00    +0.000 HD
ENDBRANCH  22  25
ENDBRANCH  18  19
ENDBRANCH  17  18
ENDBRANCH   1  17
TORSDOF 6
ENDMDL
MODEL 4
REMARK VINA RESULT:    -7.618      3.138      4.305
REMARK INTER + INTRA:         -11.394
REMARK INTER:                 -10.468
REMARK INTRA:                  -0.925
REMARK UNBOUND:                -1.103
REMARK  Name = 
REMARK  8 active torsions:
REMARK  status: ('A' for Active; 'I' for Inactive)
REMARK    1  A    between atoms: C_1  and  C_2
REMARK    2  A    between atoms: C_4  and  C_5
REMARK    3  A    between atoms: C_5  and  C_6
REMARK    4  A    between atoms: C_5  and  C_7
REMARK    5  A    between atoms: C_7  and  O_8
REMARK    6  A    between atoms: O_8  and  C_9
REMARK    7  A    between atoms: C_12  and  C_13
REMARK    8  A    between atoms: C_19  and  C_20
REMARK                            x       y       z     vdW  Elec       q    Type
REMARK                         _______ _______ _______ _____ _____    ______ ____
ROOT
ATOM      1  C   UNL     1      45.415   5.074  11.707  0.00  0.00    +0.000 C 
ATOM      2  C   UNL     1      45.219   4.470  13.102  0.00  0.00    +0.000 C 
ENDROOT
BRANCH   1   6
ATOM      3  C   UNL     1      44.719  10.084  12.076  0.00  0.00    +0.000 C 
ATOM      4  C   UNL     1      45.610   8.882  11.972  0.00  0.00    +0.000 A 
ATOM      5  C   UNL     1      45.074   7.602  11.871  0.00  0.00    +0.000 A 
ATOM      6  C   UNL     1      45.934   6.502  11.796  0.00  0.00    +0.000 A 
ATOM      7  C   UNL     1      47.311   6.746  11.810  0.00  0.00    +0.000 A 
ATOM      8  C   UNL     1      47.789   8.056  11.905  0.00  0.00    +0.000 A 
ATOM      9  N   UNL     1      46.944   9.113  11.993  0.00  0.00    +0.000 NA
BRANCH   8  10
ATOM     10  C   UNL     1      49.231   8.377  11.938  0.00  0.00    +0.000 A 
ATOM     11  C   UNL     1      49.741   9.421  12.737  0.00  0.00    +0.000 A 
ATOM     12  C   UNL     1      51.102   9.740  12.744  0.00  0.00    +0.000 A 
ATOM     13  C   UNL     1      51.989   9.013  11.954  0.00  0.00    +0.000 A 
ATOM     14  C   UNL     1      51.510   7.967  11.169  0.00  0.00    +0.000 A 
ATOM     15 CL   UNL     1      52.607   7.068  10.194  0.00  0.00    +0.000 Cl
ATOM     16  C   UNL     1      50.151   7.648  11.162  0.00  0.00    +0.000 A 
ENDBRANCH   8  10
ENDBRANCH   1   6
BRANCH   1  17
ATOM     17  C   UNL     1      44.130   5.010  10.863  0.00  0.00    +0.000 C 
BRANCH  17  18
ATOM     18  O   UNL     1      43.947   3.697  10.313  0.00  0.00    +0.000 OA
BRANCH  18  19
ATOM     19  C   UNL     1      44.824   3.342   9.324  0.00  0.00    +0.000 A 
ATOM     20  C   UNL     1      45.386   4.205   8.386  0.00  0.00    +0.000 A 
ATOM     21  C   UNL     1      46.284   3.714   7.442  0.00  0.00    +0.000 A 
ATOM     22  C   UNL     1      46.594   2.363   7.463  0.00  0.00    +0.000 A 
ATOM     23  N   UNL     1      46.062   1.478   8.353  0.00  0.00    +0.000 NA
ATOM     24  C   UNL     1      45.190   1.998   9.256  0.00  0.00    +0.000 A 
BRANCH  22  25
ATOM     25  C   UNL     1      47.579   1.828   6.469  0.00  0.00    +0.000 C 
ATOM     26  N   UNL     1      48.750   2.527   6.361  0.00  0.00    +0.000 N 
ATOM     27  O   UNL     1      47.356   0.836   5.790  0.00  0.00    +0.000 OA
ATOM     28  H   UNL     1      48.891   3.356   6.928  0.00  0.00    +0.000 HD
ATOM     29  H   UNL     1      49.444   2.232   5.694  0.00  0.00    +0.000 HD
ENDBRANCH  22  25
ENDBRANCH  18  19
ENDBRANCH  17  18
ENDBRANCH   1  17
TORSDOF 6
ENDMDL
MODEL 5
REMARK VINA RESULT:    -7.358      2.124      3.049
REMARK INTER + INTRA:         -11.043
REMARK INTER:                 -10.265
REMARK INTRA:                  -0.777
REMARK UNBOUND:                -1.103
REMARK  Name = 
REMARK  8 active torsions:
REMARK  status: ('A' for Active; 'I' for Inactive)
REMARK    1  A    between atoms: C_1  and  C_2
REMARK    2  A    between atoms: C_4  and  C_5
REMARK    3  A    between atoms: C_5  and  C_6
REMARK    4  A    between atoms: C_5  and  C_7
REMARK    5  A    between atoms: C_7  and  O_8
REMARK    6  A    between atoms: O_8  and  C_9
REMARK    7  A    between atoms: C_12  and  C_13
REMARK    8  A    between atoms: C_19  and  C_20
REMARK                            x       y       z     vdW  Elec       q    Type
REMARK                         _______ _______ _______ _____ _____    ______ ____
ROOT
ATOM      1  C   UNL     1      45.362   4.504  11.708  0.00  0.00    +0.000 C 
ATOM      2  C   UNL     1      45.831   3.558  12.818  0.00  0.00    +0.000 C 
ENDROOT
BRANCH   1   6
ATOM      3  C   UNL     1      44.453   9.483  11.383  0.00  0.00    +0.000 C 
ATOM      4  C   UNL     1      45.240   8.320  11.908  0.00  0.00    +0.000 A 
ATOM      5  C   UNL     1      44.926   7.016  11.533  0.00  0.00    +0.000 A 
ATOM      6  C   UNL     1      45.668   5.953  12.057  0.00  0.00    +0.000 A 
ATOM      7  C   UNL     1      46.716   6.257  12.933  0.00  0.00    +0.000 A 
ATOM      8  C   UNL     1      46.988   7.586  13.265  0.00  0.00    +0.000 A 
ATOM      9  N   UNL     1      46.251   8.607  12.762  0.00  0.00    +0.000 NA
BRANCH   8  10
ATOM     10  C   UNL     1      48.072   7.970  14.194  0.00  0.00    +0.000 A 
ATOM     11  C   UNL     1      48.409   9.318  14.425  0.00  0.00    +0.000 A 
ATOM     12  C   UNL     1      49.453   9.676  15.284  0.00  0.00    +0.000 A 
ATOM     13  C   UNL     1      50.182   8.687  15.938  0.00  0.00    +0.000 A 
ATOM     14  C   UNL     1      49.856   7.349  15.738  0.00  0.00    +0.000 A 
ATOM     15 CL   UNL     1      50.756   6.127  16.550  0.00  0.00    +0.000 Cl
ATOM     16  C   UNL     1      48.813   6.991  14.882  0.00  0.00    +0.000 A 
ENDBRANCH   8  10
ENDBRANCH   1   6
BRANCH   1  17
ATOM     17  C   UNL     1      43.869   4.322  11.384  0.00  0.00    +0.000 C 
BRANCH  17  18
ATOM     18  O   UNL     1      43.655   4.309   9.966  0.00  0.00    +0.000 OA
BRANCH  18  19
ATOM     19  C   UNL     1      44.584   3.623   9.231  0.00  0.00    +0.000 A 
ATOM     20  C   UNL     1      44.803   2.247   9.278  0.00  0.00    +0.000 A 
ATOM     21  C   UNL     1      45.771   1.672   8.459  0.00  0.00    +0.000 A 
ATOM     22  C   UNL     1      46.499   2.494   7.613  0.00  0.00    +0.000 A 
ATOM     23  N   UNL     1      46.328   3.846   7.541  0.00  0.00    +0.000 NA
ATOM     24  C   UNL     1      45.375   4.367   8.357  0.00  0.00    +0.000 A 
BRANCH  22  25
ATOM     25  C   UNL     1      47.524   1.883   6.709  0.00  0.00    +0.000 C 
ATOM     26  N   UNL     1      48.604   2.672   6.420  0.00  0.00    +0.000 N 
ATOM     27  O   UNL     1      47.409   0.756   6.250  0.00  0.00    +0.000 OA
ATOM     28  H   UNL     1      48.656   3.609   6.805  0.00  0.00    +0.000 HD
ATOM     29  H   UNL     1      49.318   2.328   5.799  0.00  0.00    +0.000 HD
ENDBRANCH  22  25
ENDBRANCH  18  19
ENDBRANCH  17  18
ENDBRANCH   1  17
TORSDOF 6
ENDMDL
MODEL 6
REMARK VINA RESULT:    -7.232      4.081      8.122
REMARK INTER + INTRA:         -10.872
REMARK INTER:                  -9.877
REMARK INTRA:                  -0.995
REMARK UNBOUND:                -1.103
REMARK  Name = 
REMARK  8 active torsions:
REMARK  status: ('A' for Active; 'I' for Inactive)
REMARK    1  A    between atoms: C_1  and  C_2
REMARK    2  A    between atoms: C_4  and  C_5
REMARK    3  A    between atoms: C_5  and  C_6
REMARK    4  A    between atoms: C_5  and  C_7
REMARK    5  A    between atoms: C_7  and  O_8
REMARK    6  A    between atoms: O_8  and  C_9
REMARK    7  A    between atoms: C_12  and  C_13
REMARK    8  A    between atoms: C_19  and  C_20
REMARK                            x       y       z     vdW  Elec       q    Type
REMARK                         _______ _______ _______ _____ _____    ______ ____
ROOT
ATOM      1  C   UNL     1      46.798   7.697  11.888  0.00  0.00    +0.000 C 
ATOM      2  C   UNL     1      46.211   8.613  12.967  0.00  0.00    +0.000 C 
ENDROOT
BRANCH   1   6
ATOM      3  C   UNL     1      42.118   5.741  11.825  0.00  0.00    +0.000 C 
ATOM      4  C   UNL     1      43.552   5.741  11.386  0.00  0.00    +0.000 A 
ATOM      5  C   UNL     1      44.448   6.691  11.867  0.00  0.00    +0.000 A 
ATOM      6  C   UNL     1      45.773   6.673  11.421  0.00  0.00    +0.000 A 
ATOM      7  C   UNL     1      46.144   5.676  10.512  0.00  0.00    +0.000 A 
ATOM      8  C   UNL     1      45.200   4.744  10.073  0.00  0.00    +0.000 A 
ATOM      9  N   UNL     1      43.914   4.782  10.501  0.00  0.00    +0.000 NA
BRANCH   8  10
ATOM     10  C   UNL     1      45.527   3.675   9.105  0.00  0.00    +0.000 A 
ATOM     11  C   UNL     1      45.315   2.314   9.402  0.00  0.00    +0.000 A 
ATOM     12  C   UNL     1      45.652   1.305   8.495  0.00  0.00    +0.000 A 
ATOM     13  C   UNL     1      46.202   1.638   7.261  0.00  0.00    +0.000 A 
ATOM     14  C   UNL     1      46.405   2.977   6.938  0.00  0.00    +0.000 A 
ATOM     15 CL   UNL     1      47.084   3.388   5.411  0.00  0.00    +0.000 Cl
ATOM     16  C   UNL     1      46.069   3.985   7.844  0.00  0.00    +0.000 A 
ENDBRANCH   8  10
ENDBRANCH   1   6
BRANCH   1  17
ATOM     17  C   UNL     1      48.090   7.005  12.355  0.00  0.00    +0.000 C 
BRANCH  17  18
ATOM     18  O   UNL     1      48.372   7.325  13.724  0.00  0.00    +0.000 OA
BRANCH  18  19
ATOM     19  C   UNL     1      48.088   6.342  14.633  0.00  0.00    +0.000 A 
ATOM     20  C   UNL     1      47.227   5.266  14.425  0.00  0.00    +0.000 A 
ATOM     21  C   UNL     1      47.042   4.322  15.432  0.00  0.00    +0.000 A 
ATOM     22  C   UNL     1      47.726   4.484  16.627  0.00  0.00    +0.000 A 
ATOM     23  N   UNL     1      48.569   5.526  16.880  0.00  0.00    +0.000 NA
ATOM     24  C   UNL     1      48.720   6.424  15.873  0.00  0.00    +0.000 A 
BRANCH  22  25
ATOM     25  C   UNL     1      47.555   3.460  17.707  0.00  0.00    +0.000 C 
ATOM     26  N   UNL     1      48.290   3.670  18.842  0.00  0.00    +0.000 N 
ATOM     27  O   UNL     1      46.816   2.495  17.588  0.00  0.00    +0.000 OA
ATOM     28  H   UNL     1      48.907   4.473  18.897  0.00  0.00    +0.000 HD
ATOM     29  H   UNL     1      48.238   3.006  19.596  0.00  0.00    +0.000 HD
ENDBRANCH  22  25
ENDBRANCH  18  19
ENDBRANCH  17  18
ENDBRANCH   1  17
TORSDOF 6
ENDMDL
MODEL 7
REMARK VINA RESULT:    -7.034      4.450      7.786
REMARK INTER + INTRA:         -10.604
REMARK INTER:                  -9.364
REMARK INTRA:                  -1.240
REMARK UNBOUND:                -1.103
REMARK  Name = 
REMARK  8 active torsions:
REMARK  status: ('A' for Active; 'I' for Inactive)
REMARK    1  A    between atoms: C_1  and  C_2
REMARK    2  A    between atoms: C_4  and  C_5
REMARK    3  A    between atoms: C_5  and  C_6
REMARK    4  A    between atoms: C_5  and  C_7
REMARK    5  A    between atoms: C_7  and  O_8
REMARK    6  A    between atoms: O_8  and  C_9
REMARK    7  A    between atoms: C_12  and  C_13
REMARK    8  A    between atoms: C_19  and  C_20
REMARK                            x       y       z     vdW  Elec       q    Type
REMARK                         _______ _______ _______ _____ _____    ______ ____
ROOT
ATOM      1  C   UNL     1      48.947   8.401  12.101  0.00  0.00    +0.000 C 
ATOM      2  C   UNL     1      49.319   9.788  12.633  0.00  0.00    +0.000 C 
ENDROOT
BRANCH   1   6
ATOM      3  C   UNL     1      44.260  10.311  11.759  0.00  0.00    +0.000 C 
ATOM      4  C   UNL     1      45.210   9.151  11.808  0.00  0.00    +0.000 A 
ATOM      5  C   UNL     1      46.580   9.353  11.951  0.00  0.00    +0.000 A 
ATOM      6  C   UNL     1      47.438   8.250  11.973  0.00  0.00    +0.000 A 
ATOM      7  C   UNL     1      46.869   6.976  11.866  0.00  0.00    +0.000 A 
ATOM      8  C   UNL     1      45.485   6.837  11.733  0.00  0.00    +0.000 A 
ATOM      9  N   UNL     1      44.664   7.916  11.698  0.00  0.00    +0.000 NA
BRANCH   8  10
ATOM     10  C   UNL     1      44.825   5.520  11.603  0.00  0.00    +0.000 A 
ATOM     11  C   UNL     1      44.068   4.962  12.653  0.00  0.00    +0.000 A 
ATOM     12  C   UNL     1      43.469   3.704  12.536  0.00  0.00    +0.000 A 
ATOM     13  C   UNL     1      43.608   2.977  11.357  0.00  0.00    +0.000 A 
ATOM     14  C   UNL     1      44.337   3.516  10.301  0.00  0.00    +0.000 A 
ATOM     15 CL   UNL     1      44.508   2.617   8.843  0.00  0.00    +0.000 Cl
ATOM     16  C   UNL     1      44.936   4.772  10.417  0.00  0.00    +0.000 A 
ENDBRANCH   8  10
ENDBRANCH   1   6
BRANCH   1  17
ATOM     17  C   UNL     1      49.539   7.272  12.963  0.00  0.00    +0.000 C 
BRANCH  17  18
ATOM     18  O   UNL     1      49.365   7.553  14.359  0.00  0.00    +0.000 OA
BRANCH  18  19
ATOM     19  C   UNL     1      48.815   6.545  15.103  0.00  0.00    +0.000 A 
ATOM     20  C   UNL     1      47.768   5.716  14.703  0.00  0.00    +0.000 A 
ATOM     21  C   UNL     1      47.316   4.711  15.553  0.00  0.00    +0.000 A 
ATOM     22  C   UNL     1      47.925   4.565  16.790  0.00  0.00    +0.000 A 
ATOM     23  N   UNL     1      48.944   5.358  17.230  0.00  0.00    +0.000 NA
ATOM     24  C   UNL     1      49.354   6.326  16.370  0.00  0.00    +0.000 A 
BRANCH  22  25
ATOM     25  C   UNL     1      47.464   3.471  17.703  0.00  0.00    +0.000 C 
ATOM     26  N   UNL     1      48.141   3.364  18.887  0.00  0.00    +0.000 N 
ATOM     27  O   UNL     1      46.550   2.713  17.414  0.00  0.00    +0.000 OA
ATOM     28  H   UNL     1      48.907   3.998  19.085  0.00  0.00    +0.000 HD
ATOM     29  H   UNL     1      47.895   2.634  19.535  0.00  0.00    +0.000 HD
ENDBRANCH  22  25
ENDBRANCH  18  19
ENDBRANCH  17  18
ENDBRANCH   1  17
TORSDOF 6
ENDMDL
MODEL 8
REMARK VINA RESULT:    -6.444      4.729      8.374
REMARK INTER + INTRA:          -9.808
REMARK INTER:                  -8.924
REMARK INTRA:                  -0.884
REMARK UNBOUND:                -1.103
REMARK  Name = 
REMARK  8 active torsions:
REMARK  status: ('A' for Active; 'I' for Inactive)
REMARK    1  A    between atoms: C_1  and  C_2
REMARK    2  A    between atoms: C_4  and  C_5
REMARK    3  A    between atoms: C_5  and  C_6
REMARK    4  A    between atoms: C_5  and  C_7
REMARK    5  A    between atoms: C_7  and  O_8
REMARK    6  A    between atoms: O_8  and  C_9
REMARK    7  A    between atoms: C_12  and  C_13
REMARK    8  A    between atoms: C_19  and  C_20
REMARK                            x       y       z     vdW  Elec       q    Type
REMARK                         _______ _______ _______ _____ _____    ______ ____
ROOT
ATOM      1  C   UNL     1      48.932   6.214  15.710  0.00  0.00    +0.000 C 
ATOM      2  C   UNL     1      49.198   7.449  16.578  0.00  0.00    +0.000 C 
ENDROOT
BRANCH   1   6
ATOM      3  C   UNL     1      47.830   9.352  11.881  0.00  0.00    +0.000 C 
ATOM      4  C   UNL     1      47.631   8.069  12.631  0.00  0.00    +0.000 A 
ATOM      5  C   UNL     1      48.354   7.798  13.790  0.00  0.00    +0.000 A 
ATOM      6  C   UNL     1      48.157   6.584  14.453  0.00  0.00    +0.000 A 
ATOM      7  C   UNL     1      47.218   5.693  13.922  0.00  0.00    +0.000 A 
ATOM      8  C   UNL     1      46.517   6.025  12.760  0.00  0.00    +0.000 A 
ATOM      9  N   UNL     1      46.728   7.200  12.117  0.00  0.00    +0.000 NA
BRANCH   8  10
ATOM     10  C   UNL     1      45.522   5.122  12.144  0.00  0.00    +0.000 A 
ATOM     11  C   UNL     1      44.652   4.334  12.923  0.00  0.00    +0.000 A 
ATOM     12  C   UNL     1      43.732   3.460  12.337  0.00  0.00    +0.000 A 
ATOM     13  C   UNL     1      43.656   3.361  10.951  0.00  0.00    +0.000 A 
ATOM     14  C   UNL     1      44.494   4.143  10.160  0.00  0.00    +0.000 A 
ATOM     15 CL   UNL     1      44.398   4.022   8.446  0.00  0.00    +0.000 Cl
ATOM     16  C   UNL     1      45.413   5.016  10.745  0.00  0.00    +0.000 A 
ENDBRANCH   8  10
ENDBRANCH   1   6
BRANCH   1  17
ATOM     17  C   UNL     1      48.209   5.103  16.491  0.00  0.00    +0.000 C 
BRANCH  17  18
ATOM     18  O   UNL     1      48.873   4.842  17.736  0.00  0.00    +0.000 OA
BRANCH  18  19
ATOM     19  C   UNL     1      49.837   3.872  17.702  0.00  0.00    +0.000 A 
ATOM     20  C   UNL     1      49.651   2.553  17.291  0.00  0.00    +0.000 A 
ATOM     21  C   UNL     1      50.727   1.670  17.285  0.00  0.00    +0.000 A 
ATOM     22  C   UNL     1      51.967   2.134  17.697  0.00  0.00    +0.000 A 
ATOM     23  N   UNL     1      52.196   3.410  18.119  0.00  0.00    +0.000 NA
ATOM     24  C   UNL     1      51.120   4.239  18.109  0.00  0.00    +0.000 A 
BRANCH  22  25
ATOM     25  C   UNL     1      53.138   1.200  17.671  0.00  0.00    +0.000 C 
ATOM     26  N   UNL     1      52.898  -0.062  18.142  0.00  0.00    +0.000 N 
ATOM     27  O   UNL     1      54.240   1.537  17.264  0.00  0.00    +0.000 OA
ATOM     28  H   UNL     1      51.976  -0.300  18.490  0.00  0.00    +0.000 HD
ATOM     29  H   UNL     1      53.650  -0.731  18.173  0.00  0.00    +0.000 HD
ENDBRANCH  22  25
ENDBRANCH  18  19
ENDBRANCH  17  18
ENDBRANCH   1  17
TORSDOF 6
ENDMDL
MODEL 9
REMARK VINA RESULT:    -6.436      3.145      5.254
REMARK INTER + INTRA:          -9.796
REMARK INTER:                  -8.601
REMARK INTRA:                  -1.195
REMARK UNBOUND:                -1.103
REMARK  Name = 
REMARK  8 active torsions:
REMARK  status: ('A' for Active; 'I' for Inactive)
REMARK    1  A    between atoms: C_1  and  C_2
REMARK    2  A    between atoms: C_4  and  C_5
REMARK    3  A    between atoms: C_5  and  C_6
REMARK    4  A    between atoms: C_5  and  C_7
REMARK    5  A    between atoms: C_7  and  O_8
REMARK    6  A    between atoms: O_8  and  C_9
REMARK    7  A    between atoms: C_12  and  C_13
REMARK    8  A    between atoms: C_19  and  C_20
REMARK                            x       y       z     vdW  Elec       q    Type
REMARK                         _______ _______ _______ _____ _____    ______ ____
ROOT
ATOM      1  C   UNL     1      48.439   9.130  13.940  0.00  0.00    +0.000 C 
ATOM      2  C   UNL     1      49.754   9.843  13.609  0.00  0.00    +0.000 C 
ENDROOT
BRANCH   1   6
ATOM      3  C   UNL     1      47.933   9.327  18.983  0.00  0.00    +0.000 C 
ATOM      4  C   UNL     1      48.250   8.585  17.719  0.00  0.00    +0.000 A 
ATOM      5  C   UNL     1      48.208   9.225  16.484  0.00  0.00    +0.000 A 
ATOM      6  C   UNL     1      48.491   8.498  15.324  0.00  0.00    +0.000 A 
ATOM      7  C   UNL     1      48.824   7.146  15.464  0.00  0.00    +0.000 A 
ATOM      8  C   UNL     1      48.858   6.562  16.733  0.00  0.00    +0.000 A 
ATOM      9  N   UNL     1      48.566   7.275  17.849  0.00  0.00    +0.000 NA
BRANCH   8  10
ATOM     10  C   UNL     1      49.190   5.137  16.945  0.00  0.00    +0.000 A 
ATOM     11  C   UNL     1      48.250   4.113  16.710  0.00  0.00    +0.000 A 
ATOM     12  C   UNL     1      48.559   2.769  16.938  0.00  0.00    +0.000 A 
ATOM     13  C   UNL     1      49.823   2.417  17.402  0.00  0.00    +0.000 A 
ATOM     14  C   UNL     1      50.773   3.410  17.626  0.00  0.00    +0.000 A 
ATOM     15 CL   UNL     1      52.337   2.974  18.198  0.00  0.00    +0.000 Cl
ATOM     16  C   UNL     1      50.465   4.753  17.398  0.00  0.00    +0.000 A 
ENDBRANCH   8  10
ENDBRANCH   1   6
BRANCH   1  17
ATOM     17  C   UNL     1      48.063   8.085  12.875  0.00  0.00    +0.000 C 
BRANCH  17  18
ATOM     18  O   UNL     1      46.650   8.096  12.629  0.00  0.00    +0.000 OA
BRANCH  18  19
ATOM     19  C   UNL     1      46.072   6.871  12.433  0.00  0.00    +0.000 A 
ATOM     20  C   UNL     1      46.193   5.770  13.279  0.00  0.00    +0.000 A 
ATOM     21  C   UNL     1      45.533   4.584  12.971  0.00  0.00    +0.000 A 
ATOM     22  C   UNL     1      44.768   4.530  11.816  0.00  0.00    +0.000 A 
ATOM     23  N   UNL     1      44.630   5.577  10.952  0.00  0.00    +0.000 NA
ATOM     24  C   UNL     1      45.290   6.714  11.289  0.00  0.00    +0.000 A 
BRANCH  22  25
ATOM     25  C   UNL     1      44.033   3.267  11.488  0.00  0.00    +0.000 C 
ATOM     26  N   UNL     1      43.816   2.419  12.539  0.00  0.00    +0.000 N 
ATOM     27  O   UNL     1      43.654   3.001  10.357  0.00  0.00    +0.000 OA
ATOM     28  H   UNL     1      44.162   2.665  13.460  0.00  0.00    +0.000 HD
ATOM     29  H   UNL     1      43.348   1.542  12.380  0.00  0.00    +0.000 HD
ENDBRANCH  22  25
ENDBRANCH  18  19
ENDBRANCH  17  18
ENDBRANCH   1  17
TORSDOF 6
ENDMDL
