MODEL 1
REMARK VINA RESULT:    -7.931      0.000      0.000
REMARK INTER + INTRA:         -12.139
REMARK INTER:                 -11.176
REMARK INTRA:                  -0.962
REMARK UNBOUND:                -0.962
REMARK  Name = 
REMARK  8 active torsions:
REMARK  status: ('A' for Active; 'I' for Inactive)
REMARK    1  A    between atoms: C_1  and  C_2
REMARK    2  A    between atoms: C_4  and  C_5
REMARK    3  A    between atoms: C_5  and  O_6
REMARK    4  A    between atoms: O_6  and  C_7
REMARK    5  A    between atoms: C_7  and  C_8
REMARK    6  A    between atoms: C_16  and  C_17
REMARK    7  A    between atoms: C_17  and  N_18
REMARK    8  A    between atoms: C_19  and  C_21
REMARK                            x       y       z     vdW  Elec       q    Type
REMARK                         _______ _______ _______ _____ _____    ______ ____
ROOT
ATOM      1  C   UNL     1      45.434   9.059  12.269  0.00  0.00    +0.000 C 
ATOM      2  C   UNL     1      46.197   7.845  12.707  0.00  0.00    +0.000 A 
ATOM      3  N   UNL     1      47.248   8.088  13.527  0.00  0.00    +0.000 NA
ATOM      4  C   UNL     1      47.971   7.039  13.989  0.00  0.00    +0.000 A 
ATOM      5  C   UNL     1      47.670   5.725  13.654  0.00  0.00    +0.000 A 
ATOM      6  C   UNL     1      46.594   5.483  12.809  0.00  0.00    +0.000 A 
ATOM      7  C   UNL     1      45.829   6.551  12.322  0.00  0.00    +0.000 A 
ENDROOT
BRANCH   4   8
ATOM      8  C   UNL     1      49.129   7.353  14.902  0.00  0.00    +0.000 C 
BRANCH   8   9
ATOM      9  O   UNL     1      48.692   7.282  16.259  0.00  0.00    +0.000 OA
BRANCH   9  10
ATOM     10  C   UNL     1      49.578   6.481  17.045  0.00  0.00    +0.000 C 
BRANCH  10  11
ATOM     11  C   UNL     1      49.071   5.064  17.152  0.00  0.00    +0.000 A 
ATOM     12  C   UNL     1      47.702   4.791  17.229  0.00  0.00    +0.000 A 
ATOM     13  C   UNL     1      47.277   3.474  17.300  0.00  0.00    +0.000 A 
ATOM     14  C   UNL     1      48.221   2.450  17.280  0.00  0.00    +0.000 A 
ATOM     15  C   UNL     1      49.559   2.802  17.184  0.00  0.00    +0.000 A 
ATOM     16  N   UNL     1      50.003   4.074  17.117  0.00  0.00    +0.000 NA
ENDBRANCH  10  11
ENDBRANCH   9  10
ENDBRANCH   8   9
ENDBRANCH   4   8
BRANCH   7  17
ATOM     17  C   UNL     1      44.643   6.276  11.450  0.00  0.00    +0.000 C 
BRANCH  17  18
ATOM     18  N   UNL     1      44.642   4.958  10.858  0.00  0.00    +0.000 N 
ATOM     19  C   UNL     1      45.283   4.822   9.645  0.00  0.00    +0.000 C 
ATOM     20  O   UNL     1      45.806   5.789   9.095  0.00  0.00    +0.000 OA
ATOM     21  H   UNL     1      44.476   4.138  11.425  0.00  0.00    +0.000 HD
BRANCH  19  22
ATOM     22  C   UNL     1      45.319   3.507   9.019  0.00  0.00    +0.000 A 
ATOM     23  C   UNL     1      44.531   2.473   9.499  0.00  0.00    +0.000 A 
ATOM     24  N   UNL     1      45.008   1.296   9.009  0.00  0.00    +0.000 N 
ATOM     25  C   UNL     1      46.044   1.539   8.145  0.00  0.00    +0.000 A 
ATOM     26  C   UNL     1      46.886   0.644   7.497  0.00  0.00    +0.000 A 
ATOM     27  N   UNL     1      47.788   1.113   6.612  0.00  0.00    +0.000 NA
ATOM     28  C   UNL     1      47.851   2.445   6.393  0.00  0.00    +0.000 A 
ATOM     29  C   UNL     1      47.096   3.400   7.065  0.00  0.00    +0.000 A 
ATOM     30  C   UNL     1      46.165   2.929   8.007  0.00  0.00    +0.000 A 
ATOM     31  H   UNL     1      44.678   0.377   9.277  0.00  0.00    +0.000 HD
ENDBRANCH  19  22
ENDBRANCH  17  18
ENDBRANCH   7  17
TORSDOF 7
ENDMDL
MODEL 2
REMARK VINA RESULT:    -7.764      2.227      9.417
REMARK INTER + INTRA:         -11.904
REMARK INTER:                 -11.217
REMARK INTRA:                  -0.687
REMARK UNBOUND:                -0.962
REMARK  Name = 
REMARK  8 active torsions:
REMARK  status: ('A' for Active; 'I' for Inactive)
REMARK    1  A    between atoms: C_1  and  C_2
REMARK    2  A    between atoms: C_4  and  C_5
REMARK    3  A    between atoms: C_5  and  O_6
REMARK    4  A    between atoms: O_6  and  C_7
REMARK    5  A    between atoms: C_7  and  C_8
REMARK    6  A    between atoms: C_16  and  C_17
REMARK    7  A    between atoms: C_17  and  N_18
REMARK    8  A    between atoms: C_19  and  C_21
REMARK                            x       y       z     vdW  Elec       q    Type
REMARK                         _______ _______ _______ _____ _____    ______ ____
ROOT
ATOM      1  C   UNL     1      46.762   7.893  12.192  0.00  0.00    +0.000 C 
ATOM      2  C   UNL     1      46.259   6.494  12.384  0.00  0.00    +0.000 A 
ATOM      3  N   UNL     1      45.238   6.131  11.571  0.00  0.00    +0.000 NA
ATOM      4  C   UNL     1      44.746   4.871  11.666  0.00  0.00    +0.000 A 
ATOM      5  C   UNL     1      45.255   3.941  12.564  0.00  0.00    +0.000 A 
ATOM      6  C   UNL     1      46.298   4.323  13.398  0.00  0.00    +0.000 A 
ATOM      7  C   UNL     1      46.826   5.617  13.316  0.00  0.00    +0.000 A 
ENDROOT
BRANCH   4   8
ATOM      8  C   UNL     1      43.614   4.505  10.740  0.00  0.00    +0.000 C 
BRANCH   8   9
ATOM      9  O   UNL     1      44.146   4.136   9.467  0.00  0.00    +0.000 OA
BRANCH   9  10
ATOM     10  C   UNL     1      44.385   2.728   9.397  0.00  0.00    +0.000 C 
BRANCH  10  11
ATOM     11  C   UNL     1      45.506   2.420   8.435  0.00  0.00    +0.000 A 
ATOM     12  C   UNL     1      46.075   3.423   7.644  0.00  0.00    +0.000 A 
ATOM     13  C   UNL     1      47.119   3.102   6.792  0.00  0.00    +0.000 A 
ATOM     14  C   UNL     1      47.590   1.792   6.752  0.00  0.00    +0.000 A 
ATOM     15  C   UNL     1      46.984   0.858   7.579  0.00  0.00    +0.000 A 
ATOM     16  N   UNL     1      45.964   1.140   8.416  0.00  0.00    +0.000 NA
ENDBRANCH  10  11
ENDBRANCH   9  10
ENDBRANCH   8   9
ENDBRANCH   4   8
BRANCH   7  17
ATOM     17  C   UNL     1      47.982   6.004  14.187  0.00  0.00    +0.000 C 
BRANCH  17  18
ATOM     18  N   UNL     1      47.780   5.720  15.590  0.00  0.00    +0.000 N 
ATOM     19  C   UNL     1      48.874   5.863  16.415  0.00  0.00    +0.000 C 
ATOM     20  O   UNL     1      49.968   6.194  15.962  0.00  0.00    +0.000 OA
ATOM     21  H   UNL     1      46.852   5.735  15.990  0.00  0.00    +0.000 HD
BRANCH  19  22
ATOM     22  C   UNL     1      48.713   5.600  17.839  0.00  0.00    +0.000 A 
ATOM     23  C   UNL     1      48.646   4.301  18.316  0.00  0.00    +0.000 A 
ATOM     24  N   UNL     1      48.132   4.323  19.576  0.00  0.00    +0.000 N 
ATOM     25  C   UNL     1      47.937   5.620  19.975  0.00  0.00    +0.000 A 
ATOM     26  C   UNL     1      47.344   6.112  21.131  0.00  0.00    +0.000 A 
ATOM     27  N   UNL     1      47.345   7.441  21.355  0.00  0.00    +0.000 NA
ATOM     28  C   UNL     1      47.912   8.254  20.437  0.00  0.00    +0.000 A 
ATOM     29  C   UNL     1      48.449   7.836  19.224  0.00  0.00    +0.000 A 
ATOM     30  C   UNL     1      48.438   6.454  18.966  0.00  0.00    +0.000 A 
ATOM     31  H   UNL     1      47.887   3.505  20.120  0.00  0.00    +0.000 HD
ENDBRANCH  19  22
ENDBRANCH  17  18
ENDBRANCH   7  17
TORSDOF 7
ENDMDL
MODEL 3
REMARK VINA RESULT:    -7.624      1.539      8.494
REMARK INTER + INTRA:         -11.706
REMARK INTER:                 -10.831
REMARK INTRA:                  -0.875
REMARK UNBOUND:                -0.962
REMARK  Name = 
REMARK  8 active torsions:
REMARK  status: ('A' for Active; 'I' for Inactive)
REMARK    1  A    between atoms: C_1  and  C_2
REMARK    2  A    between atoms: C_4  and  C_5
REMARK    3  A    between atoms: C_5  and  O_6
REMARK    4  A    between atoms: O_6  and  C_7
REMARK    5  A    between atoms: C_7  and  C_8
REMARK    6  A    between atoms: C_16  and  C_17
REMARK    7  A    between atoms: C_17  and  N_18
REMARK    8  A    between atoms: C_19  and  C_21
REMARK                            x       y       z     vdW  Elec       q    Type
REMARK                         _______ _______ _______ _____ _____    ______ ____
ROOT
ATOM      1  C   UNL     1      44.493   8.271  11.359  0.00  0.00    +0.000 C 
ATOM      2  C   UNL     1      44.827   6.905  11.879  0.00  0.00    +0.000 A 
ATOM      3  N   UNL     1      44.063   5.898  11.391  0.00  0.00    +0.000 NA
ATOM      4  C   UNL     1      44.322   4.630  11.793  0.00  0.00    +0.000 A 
ATOM      5  C   UNL     1      45.346   4.327  12.682  0.00  0.00    +0.000 A 
ATOM      6  C   UNL     1      46.123   5.366  13.182  0.00  0.00    +0.000 A 
ATOM      7  C   UNL     1      45.876   6.684  12.778  0.00  0.00    +0.000 A 
ENDROOT
BRANCH   4   8
ATOM      8  C   UNL     1      43.452   3.538  11.224  0.00  0.00    +0.000 C 
BRANCH   8   9
ATOM      9  O   UNL     1      43.775   3.347   9.846  0.00  0.00    +0.000 OA
BRANCH   9  10
ATOM     10  C   UNL     1      44.485   2.122   9.648  0.00  0.00    +0.000 C 
BRANCH  10  11
ATOM     11  C   UNL     1      45.506   2.264   8.547  0.00  0.00    +0.000 A 
ATOM     12  C   UNL     1      45.699   3.485   7.893  0.00  0.00    +0.000 A 
ATOM     13  C   UNL     1      46.665   3.579   6.904  0.00  0.00    +0.000 A 
ATOM     14  C   UNL     1      47.433   2.460   6.592  0.00  0.00    +0.000 A 
ATOM     15  C   UNL     1      47.193   1.290   7.297  0.00  0.00    +0.000 A 
ATOM     16  N   UNL     1      46.258   1.167   8.261  0.00  0.00    +0.000 NA
ENDBRANCH  10  11
ENDBRANCH   9  10
ENDBRANCH   8   9
ENDBRANCH   4   8
BRANCH   7  17
ATOM     17  C   UNL     1      46.750   7.790  13.287  0.00  0.00    +0.000 C 
BRANCH  17  18
ATOM     18  N   UNL     1      47.500   7.447  14.473  0.00  0.00    +0.000 N 
ATOM     19  C   UNL     1      48.844   7.191  14.303  0.00  0.00    +0.000 C 
ATOM     20  O   UNL     1      49.360   7.234  13.189  0.00  0.00    +0.000 OA
ATOM     21  H   UNL     1      47.154   7.691  15.390  0.00  0.00    +0.000 HD
BRANCH  19  22
ATOM     22  C   UNL     1      49.643   6.855  15.475  0.00  0.00    +0.000 A 
ATOM     23  C   UNL     1      50.964   7.260  15.570  0.00  0.00    +0.000 A 
ATOM     24  N   UNL     1      51.578   6.527  16.539  0.00  0.00    +0.000 N 
ATOM     25  C   UNL     1      50.665   5.704  17.146  0.00  0.00    +0.000 A 
ATOM     26  C   UNL     1      50.862   4.721  18.107  0.00  0.00    +0.000 A 
ATOM     27  N   UNL     1      49.790   4.092  18.632  0.00  0.00    +0.000 NA
ATOM     28  C   UNL     1      48.559   4.432  18.193  0.00  0.00    +0.000 A 
ATOM     29  C   UNL     1      48.297   5.347  17.179  0.00  0.00    +0.000 A 
ATOM     30  C   UNL     1      49.405   5.996  16.607  0.00  0.00    +0.000 A 
ATOM     31  H   UNL     1      52.568   6.553  16.750  0.00  0.00    +0.000 HD
ENDBRANCH  19  22
ENDBRANCH  17  18
ENDBRANCH   7  17
TORSDOF 7
ENDMDL
MODEL 4
REMARK VINA RESULT:    -7.609      2.325      9.547
REMARK INTER + INTRA:         -11.685
REMARK INTER:                 -10.751
REMARK INTRA:                  -0.935
REMARK UNBOUND:                -0.962
REMARK  Name = 
REMARK  8 active torsions:
REMARK  status: ('A' for Active; 'I' for Inactive)
REMARK    1  A    between atoms: C_1  and  C_2
REMARK    2  A    between atoms: C_4  and  C_5
REMARK    3  A    between atoms: C_5  and  O_6
REMARK    4  A    between atoms: O_6  and  C_7
REMARK    5  A    between atoms: C_7  and  C_8
REMARK    6  A    between atoms: C_16  and  C_17
REMARK    7  A    between atoms: C_17  and  N_18
REMARK    8  A    between atoms: C_19  and  C_21
REMARK                            x       y       z     vdW  Elec       q    Type
REMARK                         _______ _______ _______ _____ _____    ______ ____
ROOT
ATOM      1  C   UNL     1      46.983   4.037  14.650  0.00  0.00    +0.000 C 
ATOM      2  C   UNL     1      46.500   4.754  13.424  0.00  0.00    +0.000 A 
ATOM      3  N   UNL     1      45.385   4.236  12.854  0.00  0.00    +0.000 NA
ATOM      4  C   UNL     1      44.871   4.845  11.758  0.00  0.00    +0.000 A 
ATOM      5  C   UNL     1      45.444   5.983  11.203  0.00  0.00    +0.000 A 
ATOM      6  C   UNL     1      46.590   6.506  11.791  0.00  0.00    +0.000 A 
ATOM      7  C   UNL     1      47.138   5.896  12.926  0.00  0.00    +0.000 A 
ENDROOT
BRANCH   4   8
ATOM      8  C   UNL     1      43.628   4.241  11.157  0.00  0.00    +0.000 C 
BRANCH   8   9
ATOM      9  O   UNL     1      43.895   3.859   9.807  0.00  0.00    +0.000 OA
BRANCH   9  10
ATOM     10  C   UNL     1      44.515   2.572   9.749  0.00  0.00    +0.000 C 
BRANCH  10  11
ATOM     11  C   UNL     1      45.478   2.491   8.590  0.00  0.00    +0.000 A 
ATOM     12  C   UNL     1      45.726   3.602   7.778  0.00  0.00    +0.000 A 
ATOM     13  C   UNL     1      46.637   3.493   6.740  0.00  0.00    +0.000 A 
ATOM     14  C   UNL     1      47.296   2.283   6.535  0.00  0.00    +0.000 A 
ATOM     15  C   UNL     1      47.008   1.232   7.394  0.00  0.00    +0.000 A 
ATOM     16  N   UNL     1      46.125   1.308   8.410  0.00  0.00    +0.000 NA
ENDBRANCH  10  11
ENDBRANCH   9  10
ENDBRANCH   8   9
ENDBRANCH   4   8
BRANCH   7  17
ATOM     17  C   UNL     1      48.346   6.495  13.580  0.00  0.00    +0.000 C 
BRANCH  17  18
ATOM     18  N   UNL     1      48.055   7.230  14.789  0.00  0.00    +0.000 N 
ATOM     19  C   UNL     1      48.859   6.973  15.879  0.00  0.00    +0.000 C 
ATOM     20  O   UNL     1      49.761   6.140  15.817  0.00  0.00    +0.000 OA
ATOM     21  H   UNL     1      47.527   8.090  14.755  0.00  0.00    +0.000 HD
BRANCH  19  22
ATOM     22  C   UNL     1      48.610   7.701  17.116  0.00  0.00    +0.000 A 
ATOM     23  C   UNL     1      49.006   9.023  17.250  0.00  0.00    +0.000 A 
ATOM     24  N   UNL     1      49.006   9.348  18.572  0.00  0.00    +0.000 N 
ATOM     25  C   UNL     1      48.535   8.292  19.309  0.00  0.00    +0.000 A 
ATOM     26  C   UNL     1      48.457   8.139  20.687  0.00  0.00    +0.000 A 
ATOM     27  N   UNL     1      47.867   7.037  21.194  0.00  0.00    +0.000 NA
ATOM     28  C   UNL     1      47.382   6.110  20.340  0.00  0.00    +0.000 A 
ATOM     29  C   UNL     1      47.499   6.162  18.955  0.00  0.00    +0.000 A 
ATOM     30  C   UNL     1      48.131   7.294  18.411  0.00  0.00    +0.000 A 
ATOM     31  H   UNL     1      49.344  10.221  18.958  0.00  0.00    +0.000 HD
ENDBRANCH  19  22
ENDBRANCH  17  18
ENDBRANCH   7  17
TORSDOF 7
ENDMDL
MODEL 5
REMARK VINA RESULT:    -7.150      3.744      9.510
REMARK INTER + INTRA:         -11.039
REMARK INTER:                 -10.274
REMARK INTRA:                  -0.765
REMARK UNBOUND:                -0.962
REMARK  Name = 
REMARK  8 active torsions:
REMARK  status: ('A' for Active; 'I' for Inactive)
REMARK    1  A    between atoms: C_1  and  C_2
REMARK    2  A    between atoms: C_4  and  C_5
REMARK    3  A    between atoms: C_5  and  O_6
REMARK    4  A    between atoms: O_6  and  C_7
REMARK    5  A    between atoms: C_7  and  C_8
REMARK    6  A    between atoms: C_16  and  C_17
REMARK    7  A    between atoms: C_17  and  N_18
REMARK    8  A    between atoms: C_19  and  C_21
REMARK                            x       y       z     vdW  Elec       q    Type
REMARK                         _______ _______ _______ _____ _____    ______ ____
ROOT
ATOM      1  C   UNL     1      43.591   2.412  11.338  0.00  0.00    +0.000 C 
ATOM      2  C   UNL     1      44.427   2.977  10.229  0.00  0.00    +0.000 A 
ATOM      3  N   UNL     1      45.095   2.063   9.485  0.00  0.00    +0.000 NA
ATOM      4  C   UNL     1      45.850   2.495   8.446  0.00  0.00    +0.000 A 
ATOM      5  C   UNL     1      45.959   3.840   8.116  0.00  0.00    +0.000 A 
ATOM      6  C   UNL     1      45.275   4.772   8.886  0.00  0.00    +0.000 A 
ATOM      7  C   UNL     1      44.485   4.350   9.962  0.00  0.00    +0.000 A 
ENDROOT
BRANCH   4   8
ATOM      8  C   UNL     1      46.573   1.446   7.641  0.00  0.00    +0.000 C 
BRANCH   8   9
ATOM      9  O   UNL     1      46.577   1.827   6.265  0.00  0.00    +0.000 OA
BRANCH   9  10
ATOM     10  C   UNL     1      47.523   1.056   5.519  0.00  0.00    +0.000 C 
BRANCH  10  11
ATOM     11  C   UNL     1      46.866   0.406   4.326  0.00  0.00    +0.000 A 
ATOM     12  C   UNL     1      46.237   1.173   3.341  0.00  0.00    +0.000 A 
ATOM     13  C   UNL     1      45.668   0.538   2.249  0.00  0.00    +0.000 A 
ATOM     14  C   UNL     1      45.747  -0.849   2.149  0.00  0.00    +0.000 A 
ATOM     15  C   UNL     1      46.402  -1.538   3.158  0.00  0.00    +0.000 A 
ATOM     16  N   UNL     1      46.962  -0.948   4.234  0.00  0.00    +0.000 NA
ENDBRANCH  10  11
ENDBRANCH   9  10
ENDBRANCH   8   9
ENDBRANCH   4   8
BRANCH   7  17
ATOM     17  C   UNL     1      43.714   5.359  10.758  0.00  0.00    +0.000 C 
BRANCH  17  18
ATOM     18  N   UNL     1      44.418   6.604  10.965  0.00  0.00    +0.000 N 
ATOM     19  C   UNL     1      45.256   6.668  12.058  0.00  0.00    +0.000 C 
ATOM     20  O   UNL     1      45.372   5.713  12.822  0.00  0.00    +0.000 OA
ATOM     21  H   UNL     1      44.544   7.258  10.205  0.00  0.00    +0.000 HD
BRANCH  19  22
ATOM     22  C   UNL     1      45.996   7.900  12.298  0.00  0.00    +0.000 A 
ATOM     23  C   UNL     1      45.332   9.074  12.618  0.00  0.00    +0.000 A 
ATOM     24  N   UNL     1      46.178  10.122  12.425  0.00  0.00    +0.000 N 
ATOM     25  C   UNL     1      47.417   9.658  12.066  0.00  0.00    +0.000 A 
ATOM     26  C   UNL     1      48.548  10.364  11.676  0.00  0.00    +0.000 A 
ATOM     27  N   UNL     1      49.696   9.693  11.453  0.00  0.00    +0.000 NA
ATOM     28  C   UNL     1      49.704   8.351  11.605  0.00  0.00    +0.000 A 
ATOM     29  C   UNL     1      48.590   7.576  11.912  0.00  0.00    +0.000 A 
ATOM     30  C   UNL     1      47.380   8.258  12.127  0.00  0.00    +0.000 A 
ATOM     31  H   UNL     1      45.920  11.099  12.493  0.00  0.00    +0.000 HD
ENDBRANCH  19  22
ENDBRANCH  17  18
ENDBRANCH   7  17
TORSDOF 7
ENDMDL
MODEL 6
REMARK VINA RESULT:    -6.898      1.686      2.117
REMARK INTER + INTRA:         -10.683
REMARK INTER:                 -10.101
REMARK INTRA:                  -0.583
REMARK UNBOUND:                -0.962
REMARK  Name = 
REMARK  8 active torsions:
REMARK  status: ('A' for Active; 'I' for Inactive)
REMARK    1  A    between atoms: C_1  and  C_2
REMARK    2  A    between atoms: C_4  and  C_5
REMARK    3  A    between atoms: C_5  and  O_6
REMARK    4  A    between atoms: O_6  and  C_7
REMARK    5  A    between atoms: C_7  and  C_8
REMARK    6  A    between atoms: C_16  and  C_17
REMARK    7  A    between atoms: C_17  and  N_18
REMARK    8  A    between atoms: C_19  and  C_21
REMARK                            x       y       z     vdW  Elec       q    Type
REMARK                         _______ _______ _______ _____ _____    ______ ____
ROOT
ATOM      1  C   UNL     1      45.660   9.057  12.277  0.00  0.00    +0.000 C 
ATOM      2  C   UNL     1      46.318   7.800  12.761  0.00  0.00    +0.000 A 
ATOM      3  N   UNL     1      47.348   7.982  13.623  0.00  0.00    +0.000 NA
ATOM      4  C   UNL     1      47.976   6.892  14.127  0.00  0.00    +0.000 A 
ATOM      5  C   UNL     1      47.598   5.597  13.794  0.00  0.00    +0.000 A 
ATOM      6  C   UNL     1      46.544   5.418  12.905  0.00  0.00    +0.000 A 
ATOM      7  C   UNL     1      45.877   6.529  12.375  0.00  0.00    +0.000 A 
ENDROOT
BRANCH   4   8
ATOM      8  C   UNL     1      49.112   7.136  15.086  0.00  0.00    +0.000 C 
BRANCH   8   9
ATOM      9  O   UNL     1      48.584   7.512  16.358  0.00  0.00    +0.000 OA
BRANCH   9  10
ATOM     10  C   UNL     1      49.464   7.125  17.416  0.00  0.00    +0.000 C 
BRANCH  10  11
ATOM     11  C   UNL     1      48.747   7.137  18.744  0.00  0.00    +0.000 A 
ATOM     12  C   UNL     1      48.296   8.332  19.311  0.00  0.00    +0.000 A 
ATOM     13  C   UNL     1      47.619   8.296  20.519  0.00  0.00    +0.000 A 
ATOM     14  C   UNL     1      47.391   7.069  21.137  0.00  0.00    +0.000 A 
ATOM     15  C   UNL     1      47.855   5.926  20.504  0.00  0.00    +0.000 A 
ATOM     16  N   UNL     1      48.520   5.930  19.330  0.00  0.00    +0.000 NA
ENDBRANCH  10  11
ENDBRANCH   9  10
ENDBRANCH   8   9
ENDBRANCH   4   8
BRANCH   7  17
ATOM     17  C   UNL     1      44.712   6.325  11.455  0.00  0.00    +0.000 C 
BRANCH  17  18
ATOM     18  N   UNL     1      44.663   5.012  10.853  0.00  0.00    +0.000 N 
ATOM     19  C   UNL     1      45.361   4.842   9.677  0.00  0.00    +0.000 C 
ATOM     20  O   UNL     1      45.974   5.777   9.165  0.00  0.00    +0.000 OA
ATOM     21  H   UNL     1      44.414   4.202  11.404  0.00  0.00    +0.000 HD
BRANCH  19  22
ATOM     22  C   UNL     1      45.350   3.530   9.043  0.00  0.00    +0.000 A 
ATOM     23  C   UNL     1      44.529   2.521   9.520  0.00  0.00    +0.000 A 
ATOM     24  N   UNL     1      44.963   1.331   9.022  0.00  0.00    +0.000 N 
ATOM     25  C   UNL     1      46.004   1.543   8.156  0.00  0.00    +0.000 A 
ATOM     26  C   UNL     1      46.813   0.624   7.501  0.00  0.00    +0.000 A 
ATOM     27  N   UNL     1      47.728   1.067   6.615  0.00  0.00    +0.000 NA
ATOM     28  C   UNL     1      47.836   2.396   6.404  0.00  0.00    +0.000 A 
ATOM     29  C   UNL     1      47.117   3.374   7.083  0.00  0.00    +0.000 A 
ATOM     30  C   UNL     1      46.173   2.929   8.026  0.00  0.00    +0.000 A 
ATOM     31  H   UNL     1      44.602   0.423   9.285  0.00  0.00    +0.000 HD
ENDBRANCH  19  22
ENDBRANCH  17  18
ENDBRANCH   7  17
TORSDOF 7
ENDMDL
MODEL 7
REMARK VINA RESULT:    -6.628      2.047      3.300
REMARK INTER + INTRA:         -10.303
REMARK INTER:                  -9.349
REMARK INTRA:                  -0.954
REMARK UNBOUND:                -0.962
REMARK  Name = 
REMARK  8 active torsions:
REMARK  status: ('A' for Active; 'I' for Inactive)
REMARK    1  A    between atoms: C_1  and  C_2
REMARK    2  A    between atoms: C_4  and  C_5
REMARK    3  A    between atoms: C_5  and  O_6
REMARK    4  A    between atoms: O_6  and  C_7
REMARK    5  A    between atoms: C_7  and  C_8
REMARK    6  A    between atoms: C_16  and  C_17
REMARK    7  A    between atoms: C_17  and  N_18
REMARK    8  A    between atoms: C_19  and  C_21
REMARK                            x       y       z     vdW  Elec       q    Type
REMARK                         _______ _______ _______ _____ _____    ______ ____
ROOT
ATOM      1  C   UNL     1      43.396   4.237  12.619  0.00  0.00    +0.000 C 
ATOM      2  C   UNL     1      44.792   4.732  12.847  0.00  0.00    +0.000 A 
ATOM      3  N   UNL     1      45.325   4.424  14.054  0.00  0.00    +0.000 NA
ATOM      4  C   UNL     1      46.594   4.814  14.325  0.00  0.00    +0.000 A 
ATOM      5  C   UNL     1      47.368   5.513  13.407  0.00  0.00    +0.000 A 
ATOM      6  C   UNL     1      46.814   5.830  12.172  0.00  0.00    +0.000 A 
ATOM      7  C   UNL     1      45.505   5.435  11.868  0.00  0.00    +0.000 A 
ENDROOT
BRANCH   4   8
ATOM      8  C   UNL     1      47.151   4.448  15.676  0.00  0.00    +0.000 C 
BRANCH   8   9
ATOM      9  O   UNL     1      48.448   5.027  15.826  0.00  0.00    +0.000 OA
BRANCH   9  10
ATOM     10  C   UNL     1      48.703   5.373  17.189  0.00  0.00    +0.000 C 
BRANCH  10  11
ATOM     11  C   UNL     1      48.440   6.839  17.431  0.00  0.00    +0.000 A 
ATOM     12  C   UNL     1      48.001   7.298  18.676  0.00  0.00    +0.000 A 
ATOM     13  C   UNL     1      47.796   8.656  18.864  0.00  0.00    +0.000 A 
ATOM     14  C   UNL     1      48.044   9.535  17.813  0.00  0.00    +0.000 A 
ATOM     15  C   UNL     1      48.494   9.004  16.613  0.00  0.00    +0.000 A 
ATOM     16  N   UNL     1      48.700   7.688  16.400  0.00  0.00    +0.000 NA
ENDBRANCH  10  11
ENDBRANCH   9  10
ENDBRANCH   8   9
ENDBRANCH   4   8
BRANCH   7  17
ATOM     17  C   UNL     1      44.934   5.740  10.517  0.00  0.00    +0.000 C 
BRANCH  17  18
ATOM     18  N   UNL     1      45.747   5.276   9.417  0.00  0.00    +0.000 N 
ATOM     19  C   UNL     1      45.461   4.022   8.920  0.00  0.00    +0.000 C 
ATOM     20  O   UNL     1      44.569   3.335   9.414  0.00  0.00    +0.000 OA
ATOM     21  H   UNL     1      46.262   5.930   8.844  0.00  0.00    +0.000 HD
BRANCH  19  22
ATOM     22  C   UNL     1      46.248   3.520   7.802  0.00  0.00    +0.000 A 
ATOM     23  C   UNL     1      46.662   4.370   6.789  0.00  0.00    +0.000 A 
ATOM     24  N   UNL     1      47.035   3.623   5.715  0.00  0.00    +0.000 N 
ATOM     25  C   UNL     1      46.959   2.290   6.028  0.00  0.00    +0.000 A 
ATOM     26  C   UNL     1      47.145   1.178   5.217  0.00  0.00    +0.000 A 
ATOM     27  N   UNL     1      47.108  -0.051   5.770  0.00  0.00    +0.000 NA
ATOM     28  C   UNL     1      46.875  -0.160   7.096  0.00  0.00    +0.000 A 
ATOM     29  C   UNL     1      46.600   0.904   7.948  0.00  0.00    +0.000 A 
ATOM     30  C   UNL     1      46.615   2.191   7.383  0.00  0.00    +0.000 A 
ATOM     31  H   UNL     1      47.289   3.993   4.807  0.00  0.00    +0.000 HD
ENDBRANCH  19  22
ENDBRANCH  17  18
ENDBRANCH   7  17
TORSDOF 7
ENDMDL
MODEL 8
REMARK VINA RESULT:    -6.387      3.618      6.431
REMARK INTER + INTRA:          -9.964
REMARK INTER:                  -9.257
REMARK INTRA:                  -0.707
REMARK UNBOUND:                -0.962
REMARK  Name = 
REMARK  8 active torsions:
REMARK  status: ('A' for Active; 'I' for Inactive)
REMARK    1  A    between atoms: C_1  and  C_2
REMARK    2  A    between atoms: C_4  and  C_5
REMARK    3  A    between atoms: C_5  and  O_6
REMARK    4  A    between atoms: O_6  and  C_7
REMARK    5  A    between atoms: C_7  and  C_8
REMARK    6  A    between atoms: C_16  and  C_17
REMARK    7  A    between atoms: C_17  and  N_18
REMARK    8  A    between atoms: C_19  and  C_21
REMARK                            x       y       z     vdW  Elec       q    Type
REMARK                         _______ _______ _______ _____ _____    ______ ____
ROOT
ATOM      1  C   UNL     1      47.461   5.757  19.037  0.00  0.00    +0.000 C 
ATOM      2  C   UNL     1      48.632   4.943  18.576  0.00  0.00    +0.000 A 
ATOM      3  N   UNL     1      49.824   5.285  19.122  0.00  0.00    +0.000 NA
ATOM      4  C   UNL     1      50.927   4.577  18.775  0.00  0.00    +0.000 A 
ATOM      5  C   UNL     1      50.875   3.511  17.885  0.00  0.00    +0.000 A 
ATOM      6  C   UNL     1      49.650   3.169  17.326  0.00  0.00    +0.000 A 
ATOM      7  C   UNL     1      48.497   3.884  17.671  0.00  0.00    +0.000 A 
ENDROOT
BRANCH   4   8
ATOM      8  C   UNL     1      52.232   4.986  19.408  0.00  0.00    +0.000 C 
BRANCH   8   9
ATOM      9  O   UNL     1      53.301   4.269  18.790  0.00  0.00    +0.000 OA
BRANCH   9  10
ATOM     10  C   UNL     1      53.756   3.201  19.625  0.00  0.00    +0.000 C 
BRANCH  10  11
ATOM     11  C   UNL     1      54.177   2.013  18.796  0.00  0.00    +0.000 A 
ATOM     12  C   UNL     1      54.462   2.147  17.434  0.00  0.00    +0.000 A 
ATOM     13  C   UNL     1      54.871   1.035  16.715  0.00  0.00    +0.000 A 
ATOM     14  C   UNL     1      55.001  -0.189  17.366  0.00  0.00    +0.000 A 
ATOM     15  C   UNL     1      54.715  -0.237  18.723  0.00  0.00    +0.000 A 
ATOM     16  N   UNL     1      54.313   0.827  19.448  0.00  0.00    +0.000 NA
ENDBRANCH  10  11
ENDBRANCH   9  10
ENDBRANCH   8   9
ENDBRANCH   4   8
BRANCH   7  17
ATOM     17  C   UNL     1      47.173   3.477  17.098  0.00  0.00    +0.000 C 
BRANCH  17  18
ATOM     18  N   UNL     1      46.698   4.345  16.045  0.00  0.00    +0.000 N 
ATOM     19  C   UNL     1      46.953   3.945  14.751  0.00  0.00    +0.000 C 
ATOM     20  O   UNL     1      47.575   2.910  14.519  0.00  0.00    +0.000 OA
ATOM     21  H   UNL     1      45.962   5.014  16.221  0.00  0.00    +0.000 HD
BRANCH  19  22
ATOM     22  C   UNL     1      46.480   4.783  13.657  0.00  0.00    +0.000 A 
ATOM     23  C   UNL     1      46.987   6.060  13.474  0.00  0.00    +0.000 A 
ATOM     24  N   UNL     1      46.147   6.751  12.655  0.00  0.00    +0.000 N 
ATOM     25  C   UNL     1      45.139   5.928  12.223  0.00  0.00    +0.000 A 
ATOM     26  C   UNL     1      44.015   6.227  11.464  0.00  0.00    +0.000 A 
ATOM     27  N   UNL     1      43.197   5.227  11.079  0.00  0.00    +0.000 NA
ATOM     28  C   UNL     1      43.493   3.964  11.457  0.00  0.00    +0.000 A 
ATOM     29  C   UNL     1      44.553   3.606  12.282  0.00  0.00    +0.000 A 
ATOM     30  C   UNL     1      45.404   4.640  12.710  0.00  0.00    +0.000 A 
ATOM     31  H   UNL     1      46.228   7.736  12.433  0.00  0.00    +0.000 HD
ENDBRANCH  19  22
ENDBRANCH  17  18
ENDBRANCH   7  17
TORSDOF 7
ENDMDL
MODEL 9
REMARK VINA RESULT:    -6.294      4.274      6.095
REMARK INTER + INTRA:          -9.833
REMARK INTER:                  -8.938
REMARK INTRA:                  -0.895
REMARK UNBOUND:                -0.962
REMARK  Name = 
REMARK  8 active torsions:
REMARK  status: ('A' for Active; 'I' for Inactive)
REMARK    1  A    between atoms: C_1  and  C_2
REMARK    2  A    between atoms: C_4  and  C_5
REMARK    3  A    between atoms: C_5  and  O_6
REMARK    4  A    between atoms: O_6  and  C_7
REMARK    5  A    between atoms: C_7  and  C_8
REMARK    6  A    between atoms: C_16  and  C_17
REMARK    7  A    between atoms: C_17  and  N_18
REMARK    8  A    between atoms: C_19  and  C_21
REMARK                            x       y       z     vdW  Elec       q    Type
REMARK                         _______ _______ _______ _____ _____    ______ ____
ROOT
ATOM      1  C   UNL     1      46.111  10.705  11.790  0.00  0.00    +0.000 C 
ATOM      2  C   UNL     1      47.253   9.737  11.883  0.00  0.00    +0.000 A 
ATOM      3  N   UNL     1      48.459  10.228  11.508  0.00  0.00    +0.000 NA
ATOM      4  C   UNL     1      49.544   9.421  11.590  0.00  0.00    +0.000 A 
ATOM      5  C   UNL     1      49.464   8.112  12.049  0.00  0.00    +0.000 A 
ATOM      6  C   UNL     1      48.223   7.614  12.428  0.00  0.00    +0.000 A 
ATOM      7  C   UNL     1      47.087   8.430  12.355  0.00  0.00    +0.000 A 
ENDROOT
BRANCH   4   8
ATOM      8  C   UNL     1      50.868  10.006  11.168  0.00  0.00    +0.000 C 
BRANCH   8   9
ATOM      9  O   UNL     1      51.830   8.958  11.045  0.00  0.00    +0.000 OA
BRANCH   9  10
ATOM     10  C   UNL     1      52.945   9.373  10.253  0.00  0.00    +0.000 C 
BRANCH  10  11
ATOM     11  C   UNL     1      53.009   8.594   8.963  0.00  0.00    +0.000 A 
ATOM     12  C   UNL     1      52.556   7.273   8.894  0.00  0.00    +0.000 A 
ATOM     13  C   UNL     1      52.608   6.601   7.683  0.00  0.00    +0.000 A 
ATOM     14  C   UNL     1      53.098   7.260   6.558  0.00  0.00    +0.000 A 
ATOM     15  C   UNL     1      53.513   8.575   6.704  0.00  0.00    +0.000 A 
ATOM     16  N   UNL     1      53.477   9.253   7.870  0.00  0.00    +0.000 NA
ENDBRANCH  10  11
ENDBRANCH   9  10
ENDBRANCH   8   9
ENDBRANCH   4   8
BRANCH   7  17
ATOM     17  C   UNL     1      45.762   7.898  12.810  0.00  0.00    +0.000 C 
BRANCH  17  18
ATOM     18  N   UNL     1      45.220   6.866  11.956  0.00  0.00    +0.000 N 
ATOM     19  C   UNL     1      45.167   5.592  12.479  0.00  0.00    +0.000 C 
ATOM     20  O   UNL     1      45.585   5.357  13.611  0.00  0.00    +0.000 OA
ATOM     21  H   UNL     1      44.630   7.104  11.170  0.00  0.00    +0.000 HD
BRANCH  19  22
ATOM     22  C   UNL     1      44.615   4.523  11.658  0.00  0.00    +0.000 A 
ATOM     23  C   UNL     1      43.804   3.548  12.217  0.00  0.00    +0.000 A 
ATOM     24  N   UNL     1      43.732   2.494  11.359  0.00  0.00    +0.000 N 
ATOM     25  C   UNL     1      44.411   2.788  10.205  0.00  0.00    +0.000 A 
ATOM     26  C   UNL     1      44.684   1.981   9.108  0.00  0.00    +0.000 A 
ATOM     27  N   UNL     1      45.297   2.518   8.034  0.00  0.00    +0.000 NA
ATOM     28  C   UNL     1      45.637   3.825   8.066  0.00  0.00    +0.000 A 
ATOM     29  C   UNL     1      45.466   4.667   9.160  0.00  0.00    +0.000 A 
ATOM     30  C   UNL     1      44.847   4.117  10.296  0.00  0.00    +0.000 A 
ATOM     31  H   UNL     1      43.284   1.608  11.561  0.00  0.00    +0.000 HD
ENDBRANCH  19  22
ENDBRANCH  17  18
ENDBRANCH   7  17
TORSDOF 7
ENDMDL
