MODEL 1
REMARK VINA RESULT:    -8.100      0.000      0.000
REMARK INTER + INTRA:         -13.340
REMARK INTER:                 -11.888
REMARK INTRA:                  -1.452
REMARK UNBOUND:                -1.452
REMARK  Name = 
REMARK  9 active torsions:
REMARK  status: ('A' for Active; 'I' for Inactive)
REMARK    1  A    between atoms: C_1  and  O_2
REMARK    2  A    between atoms: O_2  and  C_3
REMARK    3  A    between atoms: C_5  and  C_6
REMARK    4  A    between atoms: C_6  and  O_7
REMARK    5  A    between atoms: O_7  and  C_8
REMARK    6  A    between atoms: C_8  and  C_9
REMARK    7  A    between atoms: C_17  and  C_18
REMARK    8  A    between atoms: C_18  and  N_19
REMARK    9  A    between atoms: C_20  and  C_22
REMARK                            x       y       z     vdW  Elec       q    Type
REMARK                         _______ _______ _______ _____ _____    ______ ____
ROOT
ATOM      1  C   UNL     1      46.603   5.233  12.922  0.00  0.00    +0.000 A 
ATOM      2  C   UNL     1      45.535   4.612  12.263  0.00  0.00    +0.000 A 
ATOM      3  C   UNL     1      44.633   5.360  11.491  0.00  0.00    +0.000 A 
ATOM      4  C   UNL     1      44.784   6.747  11.414  0.00  0.00    +0.000 A 
ATOM      5  C   UNL     1      45.838   7.372  12.072  0.00  0.00    +0.000 A 
ATOM      6  C   UNL     1      46.759   6.628  12.831  0.00  0.00    +0.000 A 
ENDROOT
BRANCH   1   8
ATOM      7  C   UNL     1      47.013   3.798  14.777  0.00  0.00    +0.000 C 
ATOM      8  O   UNL     1      47.523   4.559  13.686  0.00  0.00    +0.000 OA
ENDBRANCH   1   8
BRANCH   3   9
ATOM      9  C   UNL     1      43.562   4.671  10.685  0.00  0.00    +0.000 C 
BRANCH   9  10
ATOM     10  O   UNL     1      44.115   3.640   9.868  0.00  0.00    +0.000 OA
BRANCH  10  11
ATOM     11  C   UNL     1      44.616   4.120   8.621  0.00  0.00    +0.000 C 
BRANCH  11  12
ATOM     12  C   UNL     1      45.612   3.133   8.092  0.00  0.00    +0.000 A 
ATOM     13  C   UNL     1      46.603   3.517   7.184  0.00  0.00    +0.000 A 
ATOM     14  C   UNL     1      47.519   2.579   6.725  0.00  0.00    +0.000 A 
ATOM     15  C   UNL     1      47.417   1.280   7.197  0.00  0.00    +0.000 A 
ATOM     16  N   UNL     1      46.483   0.873   8.083  0.00  0.00    +0.000 NA
ATOM     17  C   UNL     1      45.603   1.807   8.508  0.00  0.00    +0.000 A 
ENDBRANCH  11  12
ENDBRANCH  10  11
ENDBRANCH   9  10
ENDBRANCH   3   9
BRANCH   6  18
ATOM     18  C   UNL     1      47.909   7.355  13.480  0.00  0.00    +0.000 C 
BRANCH  18  19
ATOM     19  N   UNL     1      47.876   7.260  14.921  0.00  0.00    +0.000 N 
ATOM     20  C   UNL     1      48.981   6.985  15.681  0.00  0.00    +0.000 C 
ATOM     21  O   UNL     1      50.065   6.677  15.194  0.00  0.00    +0.000 OA
ATOM     22  H   UNL     1      47.023   7.577  15.368  0.00  0.00    +0.000 HD
BRANCH  20  23
ATOM     23  C   UNL     1      48.800   7.060  17.138  0.00  0.00    +0.000 A 
ATOM     24  C   UNL     1      48.427   8.259  17.731  0.00  0.00    +0.000 A 
ATOM     25  S   UNL     1      48.224   8.148  19.422  0.00  0.00    +0.000 S 
ATOM     26  C   UNL     1      48.587   6.486  19.415  0.00  0.00    +0.000 A 
ATOM     27  N   UNL     1      48.546   5.757  20.563  0.00  0.00    +0.000 NA
ATOM     28  C   UNL     1      48.795   4.499  20.403  0.00  0.00    +0.000 A 
ATOM     29  N   UNL     1      49.099   3.910  19.203  0.00  0.00    +0.000 N 
ATOM     30  C   UNL     1      49.226   4.621  18.033  0.00  0.00    +0.000 A 
ATOM     31  O   UNL     1      49.625   4.083  17.005  0.00  0.00    +0.000 OA
ATOM     32  C   UNL     1      48.899   6.029  18.146  0.00  0.00    +0.000 A 
ATOM     33  H   UNL     1      49.318   2.926  19.151  0.00  0.00    +0.000 HD
ENDBRANCH  20  23
ENDBRANCH  18  19
ENDBRANCH   6  18
TORSDOF 8
ENDMDL
MODEL 2
REMARK VINA RESULT:    -7.781      1.485      2.236
REMARK INTER + INTRA:         -12.872
REMARK INTER:                 -11.652
REMARK INTRA:                  -1.220
REMARK UNBOUND:                -1.452
REMARK  Name = 
REMARK  9 active torsions:
REMARK  status: ('A' for Active; 'I' for Inactive)
REMARK    1  A    between atoms: C_1  and  O_2
REMARK    2  A    between atoms: O_2  and  C_3
REMARK    3  A    between atoms: C_5  and  C_6
REMARK    4  A    between atoms: C_6  and  O_7
REMARK    5  A    between atoms: O_7  and  C_8
REMARK    6  A    between atoms: C_8  and  C_9
REMARK    7  A    between atoms: C_17  and  C_18
REMARK    8  A    between atoms: C_18  and  N_19
REMARK    9  A    between atoms: C_20  and  C_22
REMARK                            x       y       z     vdW  Elec       q    Type
REMARK                         _______ _______ _______ _____ _____    ______ ____
ROOT
ATOM      1  C   UNL     1      45.233   7.646  12.162  0.00  0.00    +0.000 A 
ATOM      2  C   UNL     1      44.333   6.830  11.465  0.00  0.00    +0.000 A 
ATOM      3  C   UNL     1      44.551   5.449  11.354  0.00  0.00    +0.000 A 
ATOM      4  C   UNL     1      45.703   4.890  11.913  0.00  0.00    +0.000 A 
ATOM      5  C   UNL     1      46.606   5.695  12.601  0.00  0.00    +0.000 A 
ATOM      6  C   UNL     1      46.385   7.077  12.735  0.00  0.00    +0.000 A 
ENDROOT
BRANCH   1   8
ATOM      7  C   UNL     1      44.489   9.701  11.221  0.00  0.00    +0.000 C 
ATOM      8  O   UNL     1      45.075   9.001  12.314  0.00  0.00    +0.000 OA
ENDBRANCH   1   8
BRANCH   3   9
ATOM      9  C   UNL     1      43.516   4.561  10.712  0.00  0.00    +0.000 C 
BRANCH   9  10
ATOM     10  O   UNL     1      44.129   3.555   9.906  0.00  0.00    +0.000 OA
BRANCH  10  11
ATOM     11  C   UNL     1      44.598   4.048   8.653  0.00  0.00    +0.000 C 
BRANCH  11  12
ATOM     12  C   UNL     1      45.588   3.071   8.094  0.00  0.00    +0.000 A 
ATOM     13  C   UNL     1      46.527   3.460   7.134  0.00  0.00    +0.000 A 
ATOM     14  C   UNL     1      47.440   2.531   6.646  0.00  0.00    +0.000 A 
ATOM     15  C   UNL     1      47.386   1.239   7.144  0.00  0.00    +0.000 A 
ATOM     16  N   UNL     1      46.503   0.829   8.080  0.00  0.00    +0.000 NA
ATOM     17  C   UNL     1      45.625   1.753   8.530  0.00  0.00    +0.000 A 
ENDBRANCH  11  12
ENDBRANCH  10  11
ENDBRANCH   9  10
ENDBRANCH   3   9
BRANCH   6  18
ATOM     18  C   UNL     1      47.374   7.888  13.534  0.00  0.00    +0.000 C 
BRANCH  18  19
ATOM     19  N   UNL     1      47.791   7.211  14.741  0.00  0.00    +0.000 N 
ATOM     20  C   UNL     1      49.104   7.005  15.071  0.00  0.00    +0.000 C 
ATOM     21  O   UNL     1      50.031   7.270  14.311  0.00  0.00    +0.000 OA
ATOM     22  H   UNL     1      47.065   7.041  15.428  0.00  0.00    +0.000 HD
BRANCH  20  23
ATOM     23  C   UNL     1      49.354   6.424  16.397  0.00  0.00    +0.000 A 
ATOM     24  C   UNL     1      50.125   7.112  17.324  0.00  0.00    +0.000 A 
ATOM     25  S   UNL     1      50.274   6.305  18.821  0.00  0.00    +0.000 S 
ATOM     26  C   UNL     1      49.280   5.027  18.296  0.00  0.00    +0.000 A 
ATOM     27  N   UNL     1      48.961   4.002  19.132  0.00  0.00    +0.000 NA
ATOM     28  C   UNL     1      48.160   3.128  18.619  0.00  0.00    +0.000 A 
ATOM     29  N   UNL     1      47.664   3.178  17.342  0.00  0.00    +0.000 N 
ATOM     30  C   UNL     1      48.019   4.154  16.440  0.00  0.00    +0.000 A 
ATOM     31  O   UNL     1      47.659   4.096  15.269  0.00  0.00    +0.000 OA
ATOM     32  C   UNL     1      48.872   5.193  16.984  0.00  0.00    +0.000 A 
ATOM     33  H   UNL     1      47.068   2.444  16.989  0.00  0.00    +0.000 HD
ENDBRANCH  20  23
ENDBRANCH  18  19
ENDBRANCH   6  18
TORSDOF 8
ENDMDL
MODEL 3
REMARK VINA RESULT:    -7.521      1.305      2.042
REMARK INTER + INTRA:         -12.490
REMARK INTER:                 -11.274
REMARK INTRA:                  -1.216
REMARK UNBOUND:                -1.452
REMARK  Name = 
REMARK  9 active torsions:
REMARK  status: ('A' for Active; 'I' for Inactive)
REMARK    1  A    between atoms: C_1  and  O_2
REMARK    2  A    between atoms: O_2  and  C_3
REMARK    3  A    between atoms: C_5  and  C_6
REMARK    4  A    between atoms: C_6  and  O_7
REMARK    5  A    between atoms: O_7  and  C_8
REMARK    6  A    between atoms: C_8  and  C_9
REMARK    7  A    between atoms: C_17  and  C_18
REMARK    8  A    between atoms: C_18  and  N_19
REMARK    9  A    between atoms: C_20  and  C_22
REMARK                            x       y       z     vdW  Elec       q    Type
REMARK                         _______ _______ _______ _____ _____    ______ ____
ROOT
ATOM      1  C   UNL     1      45.964   7.091  12.411  0.00  0.00    +0.000 A 
ATOM      2  C   UNL     1      44.836   6.421  11.924  0.00  0.00    +0.000 A 
ATOM      3  C   UNL     1      44.570   5.094  12.297  0.00  0.00    +0.000 A 
ATOM      4  C   UNL     1      45.467   4.425  13.132  0.00  0.00    +0.000 A 
ATOM      5  C   UNL     1      46.595   5.082  13.613  0.00  0.00    +0.000 A 
ATOM      6  C   UNL     1      46.858   6.418  13.262  0.00  0.00    +0.000 A 
ENDROOT
BRANCH   1   8
ATOM      7  C   UNL     1      45.234   9.349  12.228  0.00  0.00    +0.000 C 
ATOM      8  O   UNL     1      46.277   8.389  12.092  0.00  0.00    +0.000 OA
ENDBRANCH   1   8
BRANCH   3   9
ATOM      9  C   UNL     1      43.290   4.422  11.870  0.00  0.00    +0.000 C 
BRANCH   9  10
ATOM     10  O   UNL     1      43.351   4.018  10.502  0.00  0.00    +0.000 OA
BRANCH  10  11
ATOM     11  C   UNL     1      44.059   2.795  10.310  0.00  0.00    +0.000 C 
BRANCH  11  12
ATOM     12  C   UNL     1      45.042   2.981   9.193  0.00  0.00    +0.000 A 
ATOM     13  C   UNL     1      45.702   1.890   8.620  0.00  0.00    +0.000 A 
ATOM     14  C   UNL     1      46.598   2.097   7.577  0.00  0.00    +0.000 A 
ATOM     15  C   UNL     1      46.798   3.395   7.135  0.00  0.00    +0.000 A 
ATOM     16  N   UNL     1      46.170   4.472   7.654  0.00  0.00    +0.000 NA
ATOM     17  C   UNL     1      45.310   4.239   8.671  0.00  0.00    +0.000 A 
ENDBRANCH  11  12
ENDBRANCH  10  11
ENDBRANCH   9  10
ENDBRANCH   3   9
BRANCH   6  18
ATOM     18  C   UNL     1      48.070   7.091  13.856  0.00  0.00    +0.000 C 
BRANCH  18  19
ATOM     19  N   UNL     1      48.073   7.041  15.300  0.00  0.00    +0.000 N 
ATOM     20  C   UNL     1      49.203   6.815  16.041  0.00  0.00    +0.000 C 
ATOM     21  O   UNL     1      50.281   6.516  15.536  0.00  0.00    +0.000 OA
ATOM     22  H   UNL     1      47.224   7.353  15.757  0.00  0.00    +0.000 HD
BRANCH  20  23
ATOM     23  C   UNL     1      49.054   6.933  17.498  0.00  0.00    +0.000 A 
ATOM     24  C   UNL     1      48.950   8.185  18.088  0.00  0.00    +0.000 A 
ATOM     25  S   UNL     1      48.743   8.127  19.781  0.00  0.00    +0.000 S 
ATOM     26  C   UNL     1      48.745   6.425  19.780  0.00  0.00    +0.000 A 
ATOM     27  N   UNL     1      48.560   5.726  20.933  0.00  0.00    +0.000 NA
ATOM     28  C   UNL     1      48.535   4.444  20.778  0.00  0.00    +0.000 A 
ATOM     29  N   UNL     1      48.697   3.799  19.579  0.00  0.00    +0.000 N 
ATOM     30  C   UNL     1      48.960   4.462  18.404  0.00  0.00    +0.000 A 
ATOM     31  O   UNL     1      49.227   3.848  17.376  0.00  0.00    +0.000 OA
ATOM     32  C   UNL     1      48.941   5.908  18.512  0.00  0.00    +0.000 A 
ATOM     33  H   UNL     1      48.701   2.791  19.530  0.00  0.00    +0.000 HD
ENDBRANCH  20  23
ENDBRANCH  18  19
ENDBRANCH   6  18
TORSDOF 8
ENDMDL
MODEL 4
REMARK VINA RESULT:    -7.517      1.435      2.156
REMARK INTER + INTRA:         -12.484
REMARK INTER:                 -11.094
REMARK INTRA:                  -1.390
REMARK UNBOUND:                -1.452
REMARK  Name = 
REMARK  9 active torsions:
REMARK  status: ('A' for Active; 'I' for Inactive)
REMARK    1  A    between atoms: C_1  and  O_2
REMARK    2  A    between atoms: O_2  and  C_3
REMARK    3  A    between atoms: C_5  and  C_6
REMARK    4  A    between atoms: C_6  and  O_7
REMARK    5  A    between atoms: O_7  and  C_8
REMARK    6  A    between atoms: C_8  and  C_9
REMARK    7  A    between atoms: C_17  and  C_18
REMARK    8  A    between atoms: C_18  and  N_19
REMARK    9  A    between atoms: C_20  and  C_22
REMARK                            x       y       z     vdW  Elec       q    Type
REMARK                         _______ _______ _______ _____ _____    ______ ____
ROOT
ATOM      1  C   UNL     1      46.746   4.990  13.213  0.00  0.00    +0.000 A 
ATOM      2  C   UNL     1      45.655   4.474  12.504  0.00  0.00    +0.000 A 
ATOM      3  C   UNL     1      44.829   5.316  11.743  0.00  0.00    +0.000 A 
ATOM      4  C   UNL     1      45.078   6.690  11.730  0.00  0.00    +0.000 A 
ATOM      5  C   UNL     1      46.156   7.211  12.439  0.00  0.00    +0.000 A 
ATOM      6  C   UNL     1      47.001   6.373  13.186  0.00  0.00    +0.000 A 
ENDROOT
BRANCH   1   8
ATOM      7  C   UNL     1      47.095   3.756  15.218  0.00  0.00    +0.000 C 
ATOM      8  O   UNL     1      47.596   4.221  13.969  0.00  0.00    +0.000 OA
ENDBRANCH   1   8
BRANCH   3   9
ATOM      9  C   UNL     1      43.734   4.738  10.884  0.00  0.00    +0.000 C 
BRANCH   9  10
ATOM     10  O   UNL     1      44.231   3.695  10.047  0.00  0.00    +0.000 OA
BRANCH  10  11
ATOM     11  C   UNL     1      44.650   4.157   8.763  0.00  0.00    +0.000 C 
BRANCH  11  12
ATOM     12  C   UNL     1      45.581   3.143   8.170  0.00  0.00    +0.000 A 
ATOM     13  C   UNL     1      46.493   3.493   7.170  0.00  0.00    +0.000 A 
ATOM     14  C   UNL     1      47.352   2.531   6.651  0.00  0.00    +0.000 A 
ATOM     15  C   UNL     1      47.273   1.244   7.158  0.00  0.00    +0.000 A 
ATOM     16  N   UNL     1      46.414   0.869   8.131  0.00  0.00    +0.000 NA
ATOM     17  C   UNL     1      45.589   1.826   8.612  0.00  0.00    +0.000 A 
ENDBRANCH  11  12
ENDBRANCH  10  11
ENDBRANCH   9  10
ENDBRANCH   3   9
BRANCH   6  18
ATOM     18  C   UNL     1      48.182   6.989  13.892  0.00  0.00    +0.000 C 
BRANCH  18  19
ATOM     19  N   UNL     1      48.097   6.849  15.328  0.00  0.00    +0.000 N 
ATOM     20  C   UNL     1      49.191   6.655  16.129  0.00  0.00    +0.000 C 
ATOM     21  O   UNL     1      50.318   6.461  15.683  0.00  0.00    +0.000 OA
ATOM     22  H   UNL     1      47.201   7.073  15.744  0.00  0.00    +0.000 HD
BRANCH  20  23
ATOM     23  C   UNL     1      48.942   6.670  17.578  0.00  0.00    +0.000 A 
ATOM     24  C   UNL     1      49.283   5.571  18.354  0.00  0.00    +0.000 A 
ATOM     25  S   UNL     1      48.960   5.784  20.017  0.00  0.00    +0.000 S 
ATOM     26  C   UNL     1      48.391   7.367  19.762  0.00  0.00    +0.000 A 
ATOM     27  N   UNL     1      47.991   8.142  20.807  0.00  0.00    +0.000 NA
ATOM     28  C   UNL     1      47.630   9.337  20.475  0.00  0.00    +0.000 A 
ATOM     29  N   UNL     1      47.617   9.820  19.192  0.00  0.00    +0.000 N 
ATOM     30  C   UNL     1      47.941   9.049  18.100  0.00  0.00    +0.000 A 
ATOM     31  O   UNL     1      47.794   9.474  16.959  0.00  0.00    +0.000 OA
ATOM     32  C   UNL     1      48.409   7.715  18.423  0.00  0.00    +0.000 A 
ATOM     33  H   UNL     1      47.291  10.754  18.994  0.00  0.00    +0.000 HD
ENDBRANCH  20  23
ENDBRANCH  18  19
ENDBRANCH   6  18
TORSDOF 8
ENDMDL
MODEL 5
REMARK VINA RESULT:    -7.219      3.891      5.629
REMARK INTER + INTRA:         -12.047
REMARK INTER:                 -11.386
REMARK INTRA:                  -0.661
REMARK UNBOUND:                -1.452
REMARK  Name = 
REMARK  9 active torsions:
REMARK  status: ('A' for Active; 'I' for Inactive)
REMARK    1  A    between atoms: C_1  and  O_2
REMARK    2  A    between atoms: O_2  and  C_3
REMARK    3  A    between atoms: C_5  and  C_6
REMARK    4  A    between atoms: C_6  and  O_7
REMARK    5  A    between atoms: O_7  and  C_8
REMARK    6  A    between atoms: C_8  and  C_9
REMARK    7  A    between atoms: C_17  and  C_18
REMARK    8  A    between atoms: C_18  and  N_19
REMARK    9  A    between atoms: C_20  and  C_22
REMARK                            x       y       z     vdW  Elec       q    Type
REMARK                         _______ _______ _______ _____ _____    ______ ____
ROOT
ATOM      1  C   UNL     1      44.168   3.010  10.081  0.00  0.00    +0.000 A 
ATOM      2  C   UNL     1      44.845   2.070   9.293  0.00  0.00    +0.000 A 
ATOM      3  C   UNL     1      45.774   2.479   8.324  0.00  0.00    +0.000 A 
ATOM      4  C   UNL     1      45.993   3.843   8.118  0.00  0.00    +0.000 A 
ATOM      5  C   UNL     1      45.319   4.783   8.890  0.00  0.00    +0.000 A 
ATOM      6  C   UNL     1      44.402   4.382   9.878  0.00  0.00    +0.000 A 
ENDROOT
BRANCH   1   8
ATOM      7  C   UNL     1      43.703   2.741  12.399  0.00  0.00    +0.000 C 
ATOM      8  O   UNL     1      43.255   2.677  11.049  0.00  0.00    +0.000 OA
ENDBRANCH   1   8
BRANCH   3   9
ATOM      9  C   UNL     1      46.589   1.460   7.570  0.00  0.00    +0.000 C 
BRANCH   9  10
ATOM     10  O   UNL     1      46.738   1.831   6.200  0.00  0.00    +0.000 OA
BRANCH  10  11
ATOM     11  C   UNL     1      47.645   0.992   5.486  0.00  0.00    +0.000 C 
BRANCH  11  12
ATOM     12  C   UNL     1      46.943   0.441   4.283  0.00  0.00    +0.000 A 
ATOM     13  C   UNL     1      46.901  -0.934   4.034  0.00  0.00    +0.000 A 
ATOM     14  C   UNL     1      46.229  -1.412   2.915  0.00  0.00    +0.000 A 
ATOM     15  C   UNL     1      45.611  -0.494   2.082  0.00  0.00    +0.000 A 
ATOM     16  N   UNL     1      45.618   0.840   2.295  0.00  0.00    +0.000 NA
ATOM     17  C   UNL     1      46.284   1.275   3.388  0.00  0.00    +0.000 A 
ENDBRANCH  11  12
ENDBRANCH  10  11
ENDBRANCH   9  10
ENDBRANCH   3   9
BRANCH   6  18
ATOM     18  C   UNL     1      43.739   5.445  10.717  0.00  0.00    +0.000 C 
BRANCH  18  19
ATOM     19  N   UNL     1      44.620   6.558  10.988  0.00  0.00    +0.000 N 
ATOM     20  C   UNL     1      45.226   6.758  12.200  0.00  0.00    +0.000 C 
ATOM     21  O   UNL     1      44.974   6.079  13.191  0.00  0.00    +0.000 OA
ATOM     22  H   UNL     1      44.912   7.100  10.183  0.00  0.00    +0.000 HD
BRANCH  20  23
ATOM     23  C   UNL     1      46.197   7.859  12.264  0.00  0.00    +0.000 A 
ATOM     24  C   UNL     1      45.798   9.157  11.973  0.00  0.00    +0.000 A 
ATOM     25  S   UNL     1      47.047  10.308  12.138  0.00  0.00    +0.000 S 
ATOM     26  C   UNL     1      48.154   9.119  12.643  0.00  0.00    +0.000 A 
ATOM     27  N   UNL     1      49.426   9.453  12.994  0.00  0.00    +0.000 NA
ATOM     28  C   UNL     1      50.142   8.459  13.404  0.00  0.00    +0.000 A 
ATOM     29  N   UNL     1      49.707   7.161  13.478  0.00  0.00    +0.000 N 
ATOM     30  C   UNL     1      48.456   6.768  13.063  0.00  0.00    +0.000 A 
ATOM     31  O   UNL     1      48.146   5.582  13.022  0.00  0.00    +0.000 OA
ATOM     32  C   UNL     1      47.591   7.855  12.647  0.00  0.00    +0.000 A 
ATOM     33  H   UNL     1      50.328   6.423  13.775  0.00  0.00    +0.000 HD
ENDBRANCH  20  23
ENDBRANCH  18  19
ENDBRANCH   6  18
TORSDOF 8
ENDMDL
MODEL 6
REMARK VINA RESULT:    -7.147      1.591      2.409
REMARK INTER + INTRA:         -11.941
REMARK INTER:                 -10.711
REMARK INTRA:                  -1.230
REMARK UNBOUND:                -1.452
REMARK  Name = 
REMARK  9 active torsions:
REMARK  status: ('A' for Active; 'I' for Inactive)
REMARK    1  A    between atoms: C_1  and  O_2
REMARK    2  A    between atoms: O_2  and  C_3
REMARK    3  A    between atoms: C_5  and  C_6
REMARK    4  A    between atoms: C_6  and  O_7
REMARK    5  A    between atoms: O_7  and  C_8
REMARK    6  A    between atoms: C_8  and  C_9
REMARK    7  A    between atoms: C_17  and  C_18
REMARK    8  A    between atoms: C_18  and  N_19
REMARK    9  A    between atoms: C_20  and  C_22
REMARK                            x       y       z     vdW  Elec       q    Type
REMARK                         _______ _______ _______ _____ _____    ______ ____
ROOT
ATOM      1  C   UNL     1      47.499   5.750  13.427  0.00  0.00    +0.000 A 
ATOM      2  C   UNL     1      46.938   6.093  12.190  0.00  0.00    +0.000 A 
ATOM      3  C   UNL     1      45.819   5.407  11.692  0.00  0.00    +0.000 A 
ATOM      4  C   UNL     1      45.287   4.343  12.424  0.00  0.00    +0.000 A 
ATOM      5  C   UNL     1      45.844   3.991  13.649  0.00  0.00    +0.000 A 
ATOM      6  C   UNL     1      46.951   4.686  14.166  0.00  0.00    +0.000 A 
ENDROOT
BRANCH   1   8
ATOM      7  C   UNL     1      49.281   7.300  13.131  0.00  0.00    +0.000 C 
ATOM      8  O   UNL     1      48.586   6.384  13.973  0.00  0.00    +0.000 OA
ENDBRANCH   1   8
BRANCH   3   9
ATOM      9  C   UNL     1      45.146   5.863  10.424  0.00  0.00    +0.000 C 
BRANCH   9  10
ATOM     10  O   UNL     1      45.719   5.231   9.280  0.00  0.00    +0.000 OA
BRANCH  10  11
ATOM     11  C   UNL     1      44.864   4.251   8.693  0.00  0.00    +0.000 C 
BRANCH  11  12
ATOM     12  C   UNL     1      45.712   3.151   8.129  0.00  0.00    +0.000 A 
ATOM     13  C   UNL     1      46.641   3.400   7.115  0.00  0.00    +0.000 A 
ATOM     14  C   UNL     1      47.421   2.359   6.623  0.00  0.00    +0.000 A 
ATOM     15  C   UNL     1      47.250   1.099   7.172  0.00  0.00    +0.000 A 
ATOM     16  N   UNL     1      46.373   0.821   8.161  0.00  0.00    +0.000 NA
ATOM     17  C   UNL     1      45.625   1.852   8.614  0.00  0.00    +0.000 A 
ENDBRANCH  11  12
ENDBRANCH  10  11
ENDBRANCH   9  10
ENDBRANCH   3   9
BRANCH   6  18
ATOM     18  C   UNL     1      47.479   4.290  15.522  0.00  0.00    +0.000 C 
BRANCH  18  19
ATOM     19  N   UNL     1      47.478   5.394  16.454  0.00  0.00    +0.000 N 
ATOM     20  C   UNL     1      48.559   5.723  17.229  0.00  0.00    +0.000 C 
ATOM     21  O   UNL     1      49.573   5.034  17.284  0.00  0.00    +0.000 OA
ATOM     22  H   UNL     1      46.692   6.030  16.389  0.00  0.00    +0.000 HD
BRANCH  20  23
ATOM     23  C   UNL     1      48.436   6.955  18.020  0.00  0.00    +0.000 A 
ATOM     24  C   UNL     1      48.568   8.193  17.406  0.00  0.00    +0.000 A 
ATOM     25  S   UNL     1      48.354   9.510  18.470  0.00  0.00    +0.000 S 
ATOM     26  C   UNL     1      48.038   8.472  19.781  0.00  0.00    +0.000 A 
ATOM     27  N   UNL     1      47.727   8.973  21.008  0.00  0.00    +0.000 NA
ATOM     28  C   UNL     1      47.462   8.073  21.897  0.00  0.00    +0.000 A 
ATOM     29  N   UNL     1      47.499   6.720  21.674  0.00  0.00    +0.000 N 
ATOM     30  C   UNL     1      47.882   6.172  20.472  0.00  0.00    +0.000 A 
ATOM     31  O   UNL     1      48.028   4.960  20.347  0.00  0.00    +0.000 OA
ATOM     32  C   UNL     1      48.133   7.140  19.422  0.00  0.00    +0.000 A 
ATOM     33  H   UNL     1      47.315   6.068  22.421  0.00  0.00    +0.000 HD
ENDBRANCH  20  23
ENDBRANCH  18  19
ENDBRANCH   6  18
TORSDOF 8
ENDMDL
MODEL 7
REMARK VINA RESULT:    -6.947      4.764      6.227
REMARK INTER + INTRA:         -11.648
REMARK INTER:                 -10.727
REMARK INTRA:                  -0.921
REMARK UNBOUND:                -1.452
REMARK  Name = 
REMARK  9 active torsions:
REMARK  status: ('A' for Active; 'I' for Inactive)
REMARK    1  A    between atoms: C_1  and  O_2
REMARK    2  A    between atoms: O_2  and  C_3
REMARK    3  A    between atoms: C_5  and  C_6
REMARK    4  A    between atoms: C_6  and  O_7
REMARK    5  A    between atoms: O_7  and  C_8
REMARK    6  A    between atoms: C_8  and  C_9
REMARK    7  A    between atoms: C_17  and  C_18
REMARK    8  A    between atoms: C_18  and  N_19
REMARK    9  A    between atoms: C_20  and  C_22
REMARK                            x       y       z     vdW  Elec       q    Type
REMARK                         _______ _______ _______ _____ _____    ______ ____
ROOT
ATOM      1  C   UNL     1      44.144   3.284  10.119  0.00  0.00    +0.000 A 
ATOM      2  C   UNL     1      44.685   2.291   9.294  0.00  0.00    +0.000 A 
ATOM      3  C   UNL     1      45.642   2.608   8.318  0.00  0.00    +0.000 A 
ATOM      4  C   UNL     1      46.026   3.940   8.143  0.00  0.00    +0.000 A 
ATOM      5  C   UNL     1      45.488   4.934   8.954  0.00  0.00    +0.000 A 
ATOM      6  C   UNL     1      44.544   4.622   9.949  0.00  0.00    +0.000 A 
ENDROOT
BRANCH   1   8
ATOM      7  C   UNL     1      43.706   2.865  12.421  0.00  0.00    +0.000 C 
ATOM      8  O   UNL     1      43.212   3.040  11.096  0.00  0.00    +0.000 OA
ENDBRANCH   1   8
BRANCH   3   9
ATOM      9  C   UNL     1      46.311   1.519   7.520  0.00  0.00    +0.000 C 
BRANCH   9  10
ATOM     10  O   UNL     1      46.869   2.033   6.311  0.00  0.00    +0.000 OA
BRANCH  10  11
ATOM     11  C   UNL     1      47.728   1.104   5.651  0.00  0.00    +0.000 C 
BRANCH  11  12
ATOM     12  C   UNL     1      46.985   0.501   4.497  0.00  0.00    +0.000 A 
ATOM     13  C   UNL     1      46.259   1.298   3.606  0.00  0.00    +0.000 A 
ATOM     14  C   UNL     1      45.593   0.708   2.539  0.00  0.00    +0.000 A 
ATOM     15  C   UNL     1      45.681  -0.667   2.393  0.00  0.00    +0.000 A 
ATOM     16  N   UNL     1      46.381  -1.469   3.224  0.00  0.00    +0.000 NA
ATOM     17  C   UNL     1      47.014  -0.866   4.256  0.00  0.00    +0.000 A 
ENDBRANCH  11  12
ENDBRANCH  10  11
ENDBRANCH   9  10
ENDBRANCH   3   9
BRANCH   6  18
ATOM     18  C   UNL     1      44.034   5.735  10.829  0.00  0.00    +0.000 C 
BRANCH  18  19
ATOM     19  N   UNL     1      45.037   6.746  11.071  0.00  0.00    +0.000 N 
ATOM     20  C   UNL     1      46.011   6.624  12.026  0.00  0.00    +0.000 C 
ATOM     21  O   UNL     1      46.039   5.701  12.835  0.00  0.00    +0.000 OA
ATOM     22  H   UNL     1      45.097   7.487  10.382  0.00  0.00    +0.000 HD
BRANCH  20  23
ATOM     23  C   UNL     1      47.032   7.680  12.047  0.00  0.00    +0.000 A 
ATOM     24  C   UNL     1      48.377   7.350  11.950  0.00  0.00    +0.000 A 
ATOM     25  S   UNL     1      49.415   8.706  11.950  0.00  0.00    +0.000 S 
ATOM     26  C   UNL     1      48.100   9.783  12.039  0.00  0.00    +0.000 A 
ATOM     27  N   UNL     1      48.299  11.129  12.029  0.00  0.00    +0.000 NA
ATOM     28  C   UNL     1      47.212  11.827  12.051  0.00  0.00    +0.000 A 
ATOM     29  N   UNL     1      45.947  11.300  12.100  0.00  0.00    +0.000 N 
ATOM     30  C   UNL     1      45.704   9.949  12.187  0.00  0.00    +0.000 A 
ATOM     31  O   UNL     1      44.567   9.521  12.360  0.00  0.00    +0.000 OA
ATOM     32  C   UNL     1      46.889   9.118  12.108  0.00  0.00    +0.000 A 
ATOM     33  H   UNL     1      45.138  11.901  12.150  0.00  0.00    +0.000 HD
ENDBRANCH  20  23
ENDBRANCH  18  19
ENDBRANCH   6  18
TORSDOF 8
ENDMDL
MODEL 8
REMARK VINA RESULT:    -6.832      4.659      9.306
REMARK INTER + INTRA:         -11.479
REMARK INTER:                 -10.257
REMARK INTRA:                  -1.222
REMARK UNBOUND:                -1.452
REMARK  Name = 
REMARK  9 active torsions:
REMARK  status: ('A' for Active; 'I' for Inactive)
REMARK    1  A    between atoms: C_1  and  O_2
REMARK    2  A    between atoms: O_2  and  C_3
REMARK    3  A    between atoms: C_5  and  C_6
REMARK    4  A    between atoms: C_6  and  O_7
REMARK    5  A    between atoms: O_7  and  C_8
REMARK    6  A    between atoms: C_8  and  C_9
REMARK    7  A    between atoms: C_17  and  C_18
REMARK    8  A    between atoms: C_18  and  N_19
REMARK    9  A    between atoms: C_20  and  C_22
REMARK                            x       y       z     vdW  Elec       q    Type
REMARK                         _______ _______ _______ _____ _____    ______ ____
ROOT
ATOM      1  C   UNL     1      49.337   4.414  17.844  0.00  0.00    +0.000 A 
ATOM      2  C   UNL     1      50.701   4.254  18.116  0.00  0.00    +0.000 A 
ATOM      3  C   UNL     1      51.364   3.060  17.796  0.00  0.00    +0.000 A 
ATOM      4  C   UNL     1      50.641   2.005  17.236  0.00  0.00    +0.000 A 
ATOM      5  C   UNL     1      49.283   2.153  16.970  0.00  0.00    +0.000 A 
ATOM      6  C   UNL     1      48.616   3.353  17.267  0.00  0.00    +0.000 A 
ENDROOT
BRANCH   1   8
ATOM      7  C   UNL     1      48.554   5.940  19.495  0.00  0.00    +0.000 C 
ATOM      8  O   UNL     1      48.632   5.558  18.125  0.00  0.00    +0.000 OA
ENDBRANCH   1   8
BRANCH   3   9
ATOM      9  C   UNL     1      52.856   2.941  17.977  0.00  0.00    +0.000 C 
BRANCH   9  10
ATOM     10  O   UNL     1      53.204   1.698  18.585  0.00  0.00    +0.000 OA
BRANCH  10  11
ATOM     11  C   UNL     1      54.589   1.378  18.453  0.00  0.00    +0.000 C 
BRANCH  11  12
ATOM     12  C   UNL     1      54.710  -0.011  17.905  0.00  0.00    +0.000 A 
ATOM     13  C   UNL     1      54.854  -0.239  16.533  0.00  0.00    +0.000 A 
ATOM     14  C   UNL     1      54.977  -1.540  16.059  0.00  0.00    +0.000 A 
ATOM     15  C   UNL     1      54.959  -2.575  16.979  0.00  0.00    +0.000 A 
ATOM     16  N   UNL     1      54.834  -2.396  18.312  0.00  0.00    +0.000 NA
ATOM     17  C   UNL     1      54.711  -1.119  18.742  0.00  0.00    +0.000 A 
ENDBRANCH  11  12
ENDBRANCH  10  11
ENDBRANCH   9  10
ENDBRANCH   3   9
BRANCH   6  18
ATOM     18  C   UNL     1      47.156   3.471  16.910  0.00  0.00    +0.000 C 
BRANCH  18  19
ATOM     19  N   UNL     1      46.923   4.443  15.866  0.00  0.00    +0.000 N 
ATOM     20  C   UNL     1      46.977   4.138  14.531  0.00  0.00    +0.000 C 
ATOM     21  O   UNL     1      47.347   3.046  14.112  0.00  0.00    +0.000 OA
ATOM     22  H   UNL     1      46.546   5.334  16.164  0.00  0.00    +0.000 HD
BRANCH  20  23
ATOM     23  C   UNL     1      46.581   5.210  13.607  0.00  0.00    +0.000 A 
ATOM     24  C   UNL     1      47.492   6.196  13.253  0.00  0.00    +0.000 A 
ATOM     25  S   UNL     1      46.870   7.332  12.141  0.00  0.00    +0.000 S 
ATOM     26  C   UNL     1      45.375   6.523  12.063  0.00  0.00    +0.000 A 
ATOM     27  N   UNL     1      44.386   6.962  11.238  0.00  0.00    +0.000 NA
ATOM     28  C   UNL     1      43.325   6.225  11.243  0.00  0.00    +0.000 A 
ATOM     29  N   UNL     1      43.157   5.101  12.010  0.00  0.00    +0.000 N 
ATOM     30  C   UNL     1      44.100   4.665  12.911  0.00  0.00    +0.000 A 
ATOM     31  O   UNL     1      43.865   3.733  13.673  0.00  0.00    +0.000 OA
ATOM     32  C   UNL     1      45.336   5.424  12.903  0.00  0.00    +0.000 A 
ATOM     33  H   UNL     1      42.289   4.588  11.993  0.00  0.00    +0.000 HD
ENDBRANCH  20  23
ENDBRANCH  18  19
ENDBRANCH   6  18
TORSDOF 8
ENDMDL
MODEL 9
REMARK VINA RESULT:    -6.781      2.874      8.426
REMARK INTER + INTRA:         -11.404
REMARK INTER:                  -9.564
REMARK INTRA:                  -1.839
REMARK UNBOUND:                -1.452
REMARK  Name = 
REMARK  9 active torsions:
REMARK  status: ('A' for Active; 'I' for Inactive)
REMARK    1  A    between atoms: C_1  and  O_2
REMARK    2  A    between atoms: O_2  and  C_3
REMARK    3  A    between atoms: C_5  and  C_6
REMARK    4  A    between atoms: C_6  and  O_7
REMARK    5  A    between atoms: O_7  and  C_8
REMARK    6  A    between atoms: C_8  and  C_9
REMARK    7  A    between atoms: C_17  and  C_18
REMARK    8  A    between atoms: C_18  and  N_19
REMARK    9  A    between atoms: C_20  and  C_22
REMARK                            x       y       z     vdW  Elec       q    Type
REMARK                         _______ _______ _______ _____ _____    ______ ____
ROOT
ATOM      1  C   UNL     1      49.206   7.388  14.028  0.00  0.00    +0.000 A 
ATOM      2  C   UNL     1      50.203   7.259  15.003  0.00  0.00    +0.000 A 
ATOM      3  C   UNL     1      50.075   7.890  16.250  0.00  0.00    +0.000 A 
ATOM      4  C   UNL     1      48.958   8.689  16.502  0.00  0.00    +0.000 A 
ATOM      5  C   UNL     1      47.967   8.828  15.536  0.00  0.00    +0.000 A 
ATOM      6  C   UNL     1      48.076   8.183  14.291  0.00  0.00    +0.000 A 
ENDROOT
BRANCH   1   8
ATOM      7  C   UNL     1      50.027   7.467  11.795  0.00  0.00    +0.000 C 
ATOM      8  O   UNL     1      49.266   6.793  12.793  0.00  0.00    +0.000 OA
ENDBRANCH   1   8
BRANCH   3   9
ATOM      9  C   UNL     1      51.089   7.645  17.338  0.00  0.00    +0.000 C 
BRANCH   9  10
ATOM     10  O   UNL     1      51.318   6.248  17.525  0.00  0.00    +0.000 OA
BRANCH  10  11
ATOM     11  C   UNL     1      50.412   5.650  18.451  0.00  0.00    +0.000 C 
BRANCH  11  12
ATOM     12  C   UNL     1      49.574   4.646  17.720  0.00  0.00    +0.000 A 
ATOM     13  C   UNL     1      48.268   4.944  17.322  0.00  0.00    +0.000 A 
ATOM     14  C   UNL     1      47.522   3.994  16.634  0.00  0.00    +0.000 A 
ATOM     15  C   UNL     1      48.114   2.772  16.360  0.00  0.00    +0.000 A 
ATOM     16  N   UNL     1      49.376   2.450  16.717  0.00  0.00    +0.000 NA
ATOM     17  C   UNL     1      50.074   3.393  17.389  0.00  0.00    +0.000 A 
ENDBRANCH  11  12
ENDBRANCH  10  11
ENDBRANCH   9  10
ENDBRANCH   3   9
BRANCH   6  18
ATOM     18  C   UNL     1      46.947   8.333  13.303  0.00  0.00    +0.000 C 
BRANCH  18  19
ATOM     19  N   UNL     1      46.249   7.088  13.076  0.00  0.00    +0.000 N 
ATOM     20  C   UNL     1      45.334   6.913  12.072  0.00  0.00    +0.000 C 
ATOM     21  O   UNL     1      44.942   7.833  11.360  0.00  0.00    +0.000 OA
ATOM     22  H   UNL     1      46.593   6.285  13.590  0.00  0.00    +0.000 HD
BRANCH  20  23
ATOM     23  C   UNL     1      44.821   5.547  11.895  0.00  0.00    +0.000 A 
ATOM     24  C   UNL     1      44.121   4.929  12.923  0.00  0.00    +0.000 A 
ATOM     25  S   UNL     1      43.567   3.364  12.526  0.00  0.00    +0.000 S 
ATOM     26  C   UNL     1      44.208   3.474  10.953  0.00  0.00    +0.000 A 
ATOM     27  N   UNL     1      44.038   2.463  10.058  0.00  0.00    +0.000 NA
ATOM     28  C   UNL     1      44.533   2.701   8.888  0.00  0.00    +0.000 A 
ATOM     29  N   UNL     1      45.196   3.850   8.540  0.00  0.00    +0.000 N 
ATOM     30  C   UNL     1      45.455   4.863   9.433  0.00  0.00    +0.000 A 
ATOM     31  O   UNL     1      46.162   5.816   9.122  0.00  0.00    +0.000 OA
ATOM     32  C   UNL     1      44.870   4.671  10.746  0.00  0.00    +0.000 A 
ATOM     33  H   UNL     1      45.590   3.960   7.618  0.00  0.00    +0.000 HD
ENDBRANCH  20  23
ENDBRANCH  18  19
ENDBRANCH   6  18
TORSDOF 8
ENDMDL
