MODEL 1
REMARK VINA RESULT:    -7.850      0.000      0.000
REMARK INTER + INTRA:         -11.933
REMARK INTER:                 -11.063
REMARK INTRA:                  -0.870
REMARK UNBOUND:                -0.870
REMARK  Name = 
REMARK  7 active torsions:
REMARK  status: ('A' for Active; 'I' for Inactive)
REMARK    1  A    between atoms: C_2  and  C_4
REMARK    2  A    between atoms: C_7  and  O_8
REMARK    3  A    between atoms: O_8  and  C_9
REMARK    4  A    between atoms: C_9  and  C_10
REMARK    5  A    between atoms: C_10  and  C_11
REMARK    6  A    between atoms: C_15  and  O_16
REMARK    7  A    between atoms: O_16  and  C_17
REMARK                            x       y       z     vdW  Elec       q    Type
REMARK                         _______ _______ _______ _____ _____    ______ ____
ROOT
ATOM      1  C   UNL     1      43.805   3.221  11.598  0.00  0.00    +0.000 C 
ENDROOT
BRANCH   1   2
ATOM      2  O   UNL     1      43.569   3.645  10.250  0.00  0.00    +0.000 OA
BRANCH   2   6
ATOM      3  C   UNL     1      46.441   2.302   7.630  0.00  0.00    +0.000 A 
ATOM      4  C   UNL     1      46.152   3.659   7.596  0.00  0.00    +0.000 A 
ATOM      5  C   UNL     1      45.181   4.155   8.463  0.00  0.00    +0.000 A 
ATOM      6  C   UNL     1      44.527   3.291   9.339  0.00  0.00    +0.000 A 
ATOM      7  C   UNL     1      44.882   1.943   9.290  0.00  0.00    +0.000 A 
ATOM      8  N   UNL     1      45.819   1.417   8.458  0.00  0.00    +0.000 NA
BRANCH   3  10
ATOM      9  N   UNL     1      48.553   2.597   6.468  0.00  0.00    +0.000 N 
ATOM     10  C   UNL     1      47.498   1.761   6.718  0.00  0.00    +0.000 C 
ATOM     11  O   UNL     1      47.437   0.642   6.228  0.00  0.00    +0.000 OA
ATOM     12  H   UNL     1      49.313   2.267   5.891  0.00  0.00    +0.000 HD
ATOM     13  H   UNL     1      48.609   3.491   6.940  0.00  0.00    +0.000 HD
ENDBRANCH   3  10
ENDBRANCH   2   6
ENDBRANCH   1   2
BRANCH   1  14
ATOM     14  C   UNL     1      43.795   4.429  12.536  0.00  0.00    +0.000 C 
BRANCH  14  15
ATOM     15  C   UNL     1      45.183   5.000  12.692  0.00  0.00    +0.000 A 
ATOM     16  C   UNL     1      45.657   5.983  11.815  0.00  0.00    +0.000 A 
ATOM     17  C   UNL     1      46.912   6.562  12.018  0.00  0.00    +0.000 A 
ATOM     18  C   UNL     1      47.710   6.169  13.098  0.00  0.00    +0.000 A 
ATOM     19  C   UNL     1      47.254   5.183  13.967  0.00  0.00    +0.000 A 
ATOM     20  C   UNL     1      45.994   4.609  13.767  0.00  0.00    +0.000 A 
BRANCH  19  21
ATOM     21  O   UNL     1      47.927   4.736  15.078  0.00  0.00    +0.000 OA
BRANCH  21  22
ATOM     22  C   UNL     1      47.190   4.080  16.137  0.00  0.00    +0.000 C 
ATOM     23  C   UNL     1      47.195   4.737  17.531  0.00  0.00    +0.000 C 
ATOM     24  N   UNL     1      47.662   3.486  18.144  0.00  0.00    +0.000 NA
ATOM     25  C   UNL     1      47.933   2.909  16.819  0.00  0.00    +0.000 C 
ATOM     26  H   UNL     1      46.952   2.988  18.678  0.00  0.00    +0.000 HD
ENDBRANCH  21  22
ENDBRANCH  19  21
ENDBRANCH  14  15
ENDBRANCH   1  14
TORSDOF 7
ENDMDL
MODEL 2
REMARK VINA RESULT:    -7.275      3.057      4.240
REMARK INTER + INTRA:         -11.123
REMARK INTER:                 -10.167
REMARK INTRA:                  -0.955
REMARK UNBOUND:                -0.870
REMARK  Name = 
REMARK  7 active torsions:
REMARK  status: ('A' for Active; 'I' for Inactive)
REMARK    1  A    between atoms: C_2  and  C_4
REMARK    2  A    between atoms: C_7  and  O_8
REMARK    3  A    between atoms: O_8  and  C_9
REMARK    4  A    between atoms: C_9  and  C_10
REMARK    5  A    between atoms: C_10  and  C_11
REMARK    6  A    between atoms: C_15  and  O_16
REMARK    7  A    between atoms: O_16  and  C_17
REMARK                            x       y       z     vdW  Elec       q    Type
REMARK                         _______ _______ _______ _____ _____    ______ ____
ROOT
ATOM      1  C   UNL     1      43.729   2.955  11.932  0.00  0.00    +0.000 C 
ENDROOT
BRANCH   1   2
ATOM      2  O   UNL     1      43.348   3.380  10.618  0.00  0.00    +0.000 OA
BRANCH   2   6
ATOM      3  C   UNL     1      46.268   2.748   7.793  0.00  0.00    +0.000 A 
ATOM      4  C   UNL     1      45.852   4.059   7.975  0.00  0.00    +0.000 A 
ATOM      5  C   UNL     1      44.859   4.318   8.918  0.00  0.00    +0.000 A 
ATOM      6  C   UNL     1      44.313   3.268   9.654  0.00  0.00    +0.000 A 
ATOM      7  C   UNL     1      44.792   1.985   9.390  0.00  0.00    +0.000 A 
ATOM      8  N   UNL     1      45.754   1.689   8.477  0.00  0.00    +0.000 NA
BRANCH   3  10
ATOM      9  N   UNL     1      47.346   3.242   5.673  0.00  0.00    +0.000 N 
ATOM     10  C   UNL     1      47.349   2.462   6.797  0.00  0.00    +0.000 C 
ATOM     11  O   UNL     1      48.192   1.592   6.971  0.00  0.00    +0.000 OA
ATOM     12  H   UNL     1      48.077   3.117   4.988  0.00  0.00    +0.000 HD
ATOM     13  H   UNL     1      46.677   3.997   5.587  0.00  0.00    +0.000 HD
ENDBRANCH   3  10
ENDBRANCH   2   6
ENDBRANCH   1   2
BRANCH   1  14
ATOM     14  C   UNL     1      43.524   4.094  12.932  0.00  0.00    +0.000 C 
BRANCH  14  15
ATOM     15  C   UNL     1      44.627   5.118  12.814  0.00  0.00    +0.000 A 
ATOM     16  C   UNL     1      45.927   4.824  13.243  0.00  0.00    +0.000 A 
ATOM     17  C   UNL     1      46.956   5.750  13.056  0.00  0.00    +0.000 A 
ATOM     18  C   UNL     1      46.703   6.978  12.435  0.00  0.00    +0.000 A 
ATOM     19  C   UNL     1      45.412   7.285  12.017  0.00  0.00    +0.000 A 
ATOM     20  C   UNL     1      44.383   6.355  12.200  0.00  0.00    +0.000 A 
BRANCH  19  21
ATOM     21  O   UNL     1      45.044   8.439  11.370  0.00  0.00    +0.000 OA
BRANCH  21  22
ATOM     22  C   UNL     1      44.829   9.646  12.140  0.00  0.00    +0.000 C 
ATOM     23  C   UNL     1      43.761  10.638  11.640  0.00  0.00    +0.000 C 
ATOM     24  N   UNL     1      44.740  11.734  11.657  0.00  0.00    +0.000 NA
ATOM     25  C   UNL     1      45.840  10.782  11.866  0.00  0.00    +0.000 C 
ATOM     26  H   UNL     1      44.613  12.400  12.418  0.00  0.00    +0.000 HD
ENDBRANCH  21  22
ENDBRANCH  19  21
ENDBRANCH  14  15
ENDBRANCH   1  14
TORSDOF 7
ENDMDL
MODEL 3
REMARK VINA RESULT:    -7.075      1.852      7.920
REMARK INTER + INTRA:         -10.841
REMARK INTER:                 -10.174
REMARK INTRA:                  -0.667
REMARK UNBOUND:                -0.870
REMARK  Name = 
REMARK  7 active torsions:
REMARK  status: ('A' for Active; 'I' for Inactive)
REMARK    1  A    between atoms: C_2  and  C_4
REMARK    2  A    between atoms: C_7  and  O_8
REMARK    3  A    between atoms: O_8  and  C_9
REMARK    4  A    between atoms: C_9  and  C_10
REMARK    5  A    between atoms: C_10  and  C_11
REMARK    6  A    between atoms: C_15  and  O_16
REMARK    7  A    between atoms: O_16  and  C_17
REMARK                            x       y       z     vdW  Elec       q    Type
REMARK                         _______ _______ _______ _____ _____    ______ ____
ROOT
ATOM      1  C   UNL     1      45.574   6.598  12.524  0.00  0.00    +0.000 C 
ENDROOT
BRANCH   1   2
ATOM      2  O   UNL     1      46.961   6.274  12.680  0.00  0.00    +0.000 OA
BRANCH   2   6
ATOM      3  C   UNL     1      47.794   3.933  15.957  0.00  0.00    +0.000 A 
ATOM      4  C   UNL     1      48.153   5.272  16.040  0.00  0.00    +0.000 A 
ATOM      5  C   UNL     1      47.894   6.099  14.949  0.00  0.00    +0.000 A 
ATOM      6  C   UNL     1      47.286   5.575  13.811  0.00  0.00    +0.000 A 
ATOM      7  C   UNL     1      46.972   4.216  13.822  0.00  0.00    +0.000 A 
ATOM      8  N   UNL     1      47.211   3.374  14.862  0.00  0.00    +0.000 NA
BRANCH   3  10
ATOM      9  N   UNL     1      46.935   2.597  17.794  0.00  0.00    +0.000 N 
ATOM     10  C   UNL     1      48.048   3.040  17.132  0.00  0.00    +0.000 C 
ATOM     11  O   UNL     1      49.174   2.715  17.482  0.00  0.00    +0.000 OA
ATOM     12  H   UNL     1      47.048   1.959  18.569  0.00  0.00    +0.000 HD
ATOM     13  H   UNL     1      46.014   2.828  17.442  0.00  0.00    +0.000 HD
ENDBRANCH   3  10
ENDBRANCH   2   6
ENDBRANCH   1   2
BRANCH   1  14
ATOM     14  C   UNL     1      45.237   6.759  11.041  0.00  0.00    +0.000 C 
BRANCH  14  15
ATOM     15  C   UNL     1      45.170   5.417  10.356  0.00  0.00    +0.000 A 
ATOM     16  C   UNL     1      44.417   4.370  10.901  0.00  0.00    +0.000 A 
ATOM     17  C   UNL     1      44.297   3.158  10.216  0.00  0.00    +0.000 A 
ATOM     18  C   UNL     1      44.925   2.975   8.979  0.00  0.00    +0.000 A 
ATOM     19  C   UNL     1      45.687   4.005   8.436  0.00  0.00    +0.000 A 
ATOM     20  C   UNL     1      45.802   5.220   9.119  0.00  0.00    +0.000 A 
BRANCH  19  21
ATOM     21  O   UNL     1      46.324   3.959   7.219  0.00  0.00    +0.000 OA
BRANCH  21  22
ATOM     22  C   UNL     1      46.610   2.675   6.617  0.00  0.00    +0.000 C 
ATOM     23  C   UNL     1      47.986   2.040   6.895  0.00  0.00    +0.000 C 
ATOM     24  N   UNL     1      48.236   1.896   5.454  0.00  0.00    +0.000 NA
ATOM     25  C   UNL     1      47.071   2.735   5.143  0.00  0.00    +0.000 C 
ATOM     26  H   UNL     1      48.166   0.940   5.108  0.00  0.00    +0.000 HD
ENDBRANCH  21  22
ENDBRANCH  19  21
ENDBRANCH  14  15
ENDBRANCH   1  14
TORSDOF 7
ENDMDL
MODEL 4
REMARK VINA RESULT:    -6.569      2.472      3.656
REMARK INTER + INTRA:         -10.128
REMARK INTER:                  -9.530
REMARK INTRA:                  -0.598
REMARK UNBOUND:                -0.870
REMARK  Name = 
REMARK  7 active torsions:
REMARK  status: ('A' for Active; 'I' for Inactive)
REMARK    1  A    between atoms: C_2  and  C_4
REMARK    2  A    between atoms: C_7  and  O_8
REMARK    3  A    between atoms: O_8  and  C_9
REMARK    4  A    between atoms: C_9  and  C_10
REMARK    5  A    between atoms: C_10  and  C_11
REMARK    6  A    between atoms: C_15  and  O_16
REMARK    7  A    between atoms: O_16  and  C_17
REMARK                            x       y       z     vdW  Elec       q    Type
REMARK                         _______ _______ _______ _____ _____    ______ ____
ROOT
ATOM      1  C   UNL     1      44.053   4.083  11.407  0.00  0.00    +0.000 C 
ENDROOT
BRANCH   1   2
ATOM      2  O   UNL     1      43.599   3.619  10.130  0.00  0.00    +0.000 OA
BRANCH   2   6
ATOM      3  C   UNL     1      46.553   2.333   7.574  0.00  0.00    +0.000 A 
ATOM      4  C   UNL     1      46.187   3.669   7.481  0.00  0.00    +0.000 A 
ATOM      5  C   UNL     1      45.185   4.145   8.325  0.00  0.00    +0.000 A 
ATOM      6  C   UNL     1      44.580   3.282   9.236  0.00  0.00    +0.000 A 
ATOM      7  C   UNL     1      45.011   1.956   9.245  0.00  0.00    +0.000 A 
ATOM      8  N   UNL     1      45.980   1.450   8.438  0.00  0.00    +0.000 NA
BRANCH   3  10
ATOM      9  N   UNL     1      48.648   2.701   6.401  0.00  0.00    +0.000 N 
ATOM     10  C   UNL     1      47.644   1.816   6.688  0.00  0.00    +0.000 C 
ATOM     11  O   UNL     1      47.650   0.675   6.247  0.00  0.00    +0.000 OA
ATOM     12  H   UNL     1      49.428   2.391   5.840  0.00  0.00    +0.000 HD
ATOM     13  H   UNL     1      48.650   3.617   6.833  0.00  0.00    +0.000 HD
ENDBRANCH   3  10
ENDBRANCH   2   6
ENDBRANCH   1   2
BRANCH   1  14
ATOM     14  C   UNL     1      44.538   5.529  11.296  0.00  0.00    +0.000 C 
BRANCH  14  15
ATOM     15  C   UNL     1      45.650   5.800  12.280  0.00  0.00    +0.000 A 
ATOM     16  C   UNL     1      46.027   4.834  13.221  0.00  0.00    +0.000 A 
ATOM     17  C   UNL     1      47.110   5.066  14.072  0.00  0.00    +0.000 A 
ATOM     18  C   UNL     1      47.832   6.262  13.995  0.00  0.00    +0.000 A 
ATOM     19  C   UNL     1      47.456   7.234  13.073  0.00  0.00    +0.000 A 
ATOM     20  C   UNL     1      46.375   6.999  12.217  0.00  0.00    +0.000 A 
BRANCH  19  21
ATOM     21  O   UNL     1      48.102   8.431  12.880  0.00  0.00    +0.000 OA
BRANCH  21  22
ATOM     22  C   UNL     1      48.905   8.619  11.691  0.00  0.00    +0.000 C 
ATOM     23  C   UNL     1      50.105   7.677  11.476  0.00  0.00    +0.000 C 
ATOM     24  N   UNL     1      51.008   8.826  11.322  0.00  0.00    +0.000 NA
ATOM     25  C   UNL     1      49.960   9.744  11.788  0.00  0.00    +0.000 C 
ATOM     26  H   UNL     1      51.315   8.995  10.365  0.00  0.00    +0.000 HD
ENDBRANCH  21  22
ENDBRANCH  19  21
ENDBRANCH  14  15
ENDBRANCH   1  14
TORSDOF 7
ENDMDL
MODEL 5
REMARK VINA RESULT:    -6.465      3.045      7.700
REMARK INTER + INTRA:          -9.980
REMARK INTER:                  -9.542
REMARK INTRA:                  -0.438
REMARK UNBOUND:                -0.870
REMARK  Name = 
REMARK  7 active torsions:
REMARK  status: ('A' for Active; 'I' for Inactive)
REMARK    1  A    between atoms: C_2  and  C_4
REMARK    2  A    between atoms: C_7  and  O_8
REMARK    3  A    between atoms: O_8  and  C_9
REMARK    4  A    between atoms: C_9  and  C_10
REMARK    5  A    between atoms: C_10  and  C_11
REMARK    6  A    between atoms: C_15  and  O_16
REMARK    7  A    between atoms: O_16  and  C_17
REMARK                            x       y       z     vdW  Elec       q    Type
REMARK                         _______ _______ _______ _____ _____    ______ ____
ROOT
ATOM      1  C   UNL     1      46.930   4.197  14.604  0.00  0.00    +0.000 C 
ENDROOT
BRANCH   1   2
ATOM      2  O   UNL     1      47.006   3.955  16.014  0.00  0.00    +0.000 OA
BRANCH   2   6
ATOM      3  C   UNL     1      50.549   2.280  17.260  0.00  0.00    +0.000 A 
ATOM      4  C   UNL     1      50.257   3.549  17.741  0.00  0.00    +0.000 A 
ATOM      5  C   UNL     1      49.069   4.156  17.339  0.00  0.00    +0.000 A 
ATOM      6  C   UNL     1      48.206   3.486  16.474  0.00  0.00    +0.000 A 
ATOM      7  C   UNL     1      48.594   2.218  16.039  0.00  0.00    +0.000 A 
ATOM      8  N   UNL     1      49.745   1.593  16.403  0.00  0.00    +0.000 NA
BRANCH   3  10
ATOM      9  N   UNL     1      51.696   0.292  18.054  0.00  0.00    +0.000 N 
ATOM     10  C   UNL     1      51.812   1.609  17.703  0.00  0.00    +0.000 C 
ATOM     11  O   UNL     1      52.888   2.191  17.745  0.00  0.00    +0.000 OA
ATOM     12  H   UNL     1      52.525  -0.219  18.322  0.00  0.00    +0.000 HD
ATOM     13  H   UNL     1      50.807  -0.181  17.946  0.00  0.00    +0.000 HD
ENDBRANCH   3  10
ENDBRANCH   2   6
ENDBRANCH   1   2
BRANCH   1  14
ATOM     14  C   UNL     1      47.373   5.626  14.292  0.00  0.00    +0.000 C 
BRANCH  14  15
ATOM     15  C   UNL     1      46.512   6.232  13.211  0.00  0.00    +0.000 A 
ATOM     16  C   UNL     1      46.163   7.588  13.247  0.00  0.00    +0.000 A 
ATOM     17  C   UNL     1      45.433   8.155  12.200  0.00  0.00    +0.000 A 
ATOM     18  C   UNL     1      45.044   7.379  11.103  0.00  0.00    +0.000 A 
ATOM     19  C   UNL     1      45.373   6.028  11.065  0.00  0.00    +0.000 A 
ATOM     20  C   UNL     1      46.109   5.462  12.111  0.00  0.00    +0.000 A 
BRANCH  19  21
ATOM     21  O   UNL     1      45.077   5.172  10.032  0.00  0.00    +0.000 OA
BRANCH  21  22
ATOM     22  C   UNL     1      43.847   4.410  10.074  0.00  0.00    +0.000 C 
ATOM     23  C   UNL     1      42.990   4.495  11.352  0.00  0.00    +0.000 C 
ATOM     24  N   UNL     1      42.987   3.030  11.473  0.00  0.00    +0.000 NA
ATOM     25  C   UNL     1      44.017   2.916  10.431  0.00  0.00    +0.000 C 
ATOM     26  H   UNL     1      42.100   2.590  11.232  0.00  0.00    +0.000 HD
ENDBRANCH  21  22
ENDBRANCH  19  21
ENDBRANCH  14  15
ENDBRANCH   1  14
TORSDOF 7
ENDMDL
MODEL 6
REMARK VINA RESULT:    -6.234      2.466      8.094
REMARK INTER + INTRA:          -9.655
REMARK INTER:                  -9.483
REMARK INTRA:                  -0.172
REMARK UNBOUND:                -0.870
REMARK  Name = 
REMARK  7 active torsions:
REMARK  status: ('A' for Active; 'I' for Inactive)
REMARK    1  A    between atoms: C_2  and  C_4
REMARK    2  A    between atoms: C_7  and  O_8
REMARK    3  A    between atoms: O_8  and  C_9
REMARK    4  A    between atoms: C_9  and  C_10
REMARK    5  A    between atoms: C_10  and  C_11
REMARK    6  A    between atoms: C_15  and  O_16
REMARK    7  A    between atoms: O_16  and  C_17
REMARK                            x       y       z     vdW  Elec       q    Type
REMARK                         _______ _______ _______ _____ _____    ______ ____
ROOT
ATOM      1  C   UNL     1      46.918   4.755  15.157  0.00  0.00    +0.000 C 
ENDROOT
BRANCH   1   2
ATOM      2  O   UNL     1      46.979   3.814  16.235  0.00  0.00    +0.000 OA
BRANCH   2   6
ATOM      3  C   UNL     1      50.694   2.412  17.305  0.00  0.00    +0.000 A 
ATOM      4  C   UNL     1      50.370   3.697  17.718  0.00  0.00    +0.000 A 
ATOM      5  C   UNL     1      49.123   4.214  17.372  0.00  0.00    +0.000 A 
ATOM      6  C   UNL     1      48.235   3.439  16.628  0.00  0.00    +0.000 A 
ATOM      7  C   UNL     1      48.658   2.164  16.253  0.00  0.00    +0.000 A 
ATOM      8  N   UNL     1      49.865   1.624  16.566  0.00  0.00    +0.000 NA
BRANCH   3  10
ATOM      9  N   UNL     1      52.248   0.545  17.304  0.00  0.00    +0.000 N 
ATOM     10  C   UNL     1      52.022   1.839  17.690  0.00  0.00    +0.000 C 
ATOM     11  O   UNL     1      52.863   2.480  18.306  0.00  0.00    +0.000 OA
ATOM     12  H   UNL     1      53.143   0.124  17.504  0.00  0.00    +0.000 HD
ATOM     13  H   UNL     1      51.561   0.062  16.739  0.00  0.00    +0.000 HD
ENDBRANCH   3  10
ENDBRANCH   2   6
ENDBRANCH   1   2
BRANCH   1  14
ATOM     14  C   UNL     1      47.008   4.024  13.817  0.00  0.00    +0.000 C 
BRANCH  14  15
ATOM     15  C   UNL     1      45.800   4.318  12.961  0.00  0.00    +0.000 A 
ATOM     16  C   UNL     1      45.197   5.582  12.982  0.00  0.00    +0.000 A 
ATOM     17  C   UNL     1      44.130   5.867  12.127  0.00  0.00    +0.000 A 
ATOM     18  C   UNL     1      43.652   4.897  11.239  0.00  0.00    +0.000 A 
ATOM     19  C   UNL     1      44.235   3.634  11.221  0.00  0.00    +0.000 A 
ATOM     20  C   UNL     1      45.308   3.351  12.074  0.00  0.00    +0.000 A 
BRANCH  19  21
ATOM     21  O   UNL     1      43.878   2.610  10.377  0.00  0.00    +0.000 OA
BRANCH  21  22
ATOM     22  C   UNL     1      44.351   2.621   9.010  0.00  0.00    +0.000 C 
ATOM     23  C   UNL     1      45.535   1.702   8.650  0.00  0.00    +0.000 C 
ATOM     24  N   UNL     1      46.279   2.842   8.095  0.00  0.00    +0.000 NA
ATOM     25  C   UNL     1      45.304   3.786   8.660  0.00  0.00    +0.000 C 
ATOM     26  H   UNL     1      46.330   2.855   7.077  0.00  0.00    +0.000 HD
ENDBRANCH  21  22
ENDBRANCH  19  21
ENDBRANCH  14  15
ENDBRANCH   1  14
TORSDOF 7
ENDMDL
MODEL 7
REMARK VINA RESULT:    -6.123      3.093      7.455
REMARK INTER + INTRA:          -9.499
REMARK INTER:                  -8.360
REMARK INTRA:                  -1.139
REMARK UNBOUND:                -0.870
REMARK  Name = 
REMARK  7 active torsions:
REMARK  status: ('A' for Active; 'I' for Inactive)
REMARK    1  A    between atoms: C_2  and  C_4
REMARK    2  A    between atoms: C_7  and  O_8
REMARK    3  A    between atoms: O_8  and  C_9
REMARK    4  A    between atoms: C_9  and  C_10
REMARK    5  A    between atoms: C_10  and  C_11
REMARK    6  A    between atoms: C_15  and  O_16
REMARK    7  A    between atoms: O_16  and  C_17
REMARK                            x       y       z     vdW  Elec       q    Type
REMARK                         _______ _______ _______ _____ _____    ______ ____
ROOT
ATOM      1  C   UNL     1      49.612   7.284  13.129  0.00  0.00    +0.000 C 
ENDROOT
BRANCH   1   2
ATOM      2  O   UNL     1      49.135   7.607  14.440  0.00  0.00    +0.000 OA
BRANCH   2   6
ATOM      3  C   UNL     1      47.902   4.521  16.863  0.00  0.00    +0.000 A 
ATOM      4  C   UNL     1      47.329   4.589  15.601  0.00  0.00    +0.000 A 
ATOM      5  C   UNL     1      47.713   5.623  14.750  0.00  0.00    +0.000 A 
ATOM      6  C   UNL     1      48.657   6.556  15.175  0.00  0.00    +0.000 A 
ATOM      7  C   UNL     1      49.167   6.406  16.465  0.00  0.00    +0.000 A 
ATOM      8  N   UNL     1      48.816   5.416  17.327  0.00  0.00    +0.000 NA
BRANCH   3  10
ATOM      9  N   UNL     1      48.315   3.217  18.870  0.00  0.00    +0.000 N 
ATOM     10  C   UNL     1      47.512   3.401  17.777  0.00  0.00    +0.000 C 
ATOM     11  O   UNL     1      46.534   2.694  17.574  0.00  0.00    +0.000 OA
ATOM     12  H   UNL     1      48.073   2.502  19.540  0.00  0.00    +0.000 HD
ATOM     13  H   UNL     1      49.077   3.860  19.048  0.00  0.00    +0.000 HD
ENDBRANCH   3  10
ENDBRANCH   2   6
ENDBRANCH   1   2
BRANCH   1  14
ATOM     14  C   UNL     1      49.004   8.238  12.100  0.00  0.00    +0.000 C 
BRANCH  14  15
ATOM     15  C   UNL     1      47.511   8.039  11.999  0.00  0.00    +0.000 A 
ATOM     16  C   UNL     1      46.624   9.042  12.405  0.00  0.00    +0.000 A 
ATOM     17  C   UNL     1      45.248   8.878  12.232  0.00  0.00    +0.000 A 
ATOM     18  C   UNL     1      44.739   7.712  11.649  0.00  0.00    +0.000 A 
ATOM     19  C   UNL     1      45.611   6.703  11.255  0.00  0.00    +0.000 A 
ATOM     20  C   UNL     1      46.990   6.871  11.424  0.00  0.00    +0.000 A 
BRANCH  19  21
ATOM     21  O   UNL     1      45.239   5.530  10.645  0.00  0.00    +0.000 OA
BRANCH  21  22
ATOM     22  C   UNL     1      44.407   4.589  11.365  0.00  0.00    +0.000 C 
ATOM     23  C   UNL     1      44.853   4.170  12.779  0.00  0.00    +0.000 C 
ATOM     24  N   UNL     1      44.781   2.750  12.404  0.00  0.00    +0.000 NA
ATOM     25  C   UNL     1      44.623   3.107  10.988  0.00  0.00    +0.000 C 
ATOM     26  H   UNL     1      43.986   2.250  12.800  0.00  0.00    +0.000 HD
ENDBRANCH  21  22
ENDBRANCH  19  21
ENDBRANCH  14  15
ENDBRANCH   1  14
TORSDOF 7
ENDMDL
MODEL 8
REMARK VINA RESULT:    -5.964      4.250      6.241
REMARK INTER + INTRA:          -9.275
REMARK INTER:                  -8.277
REMARK INTRA:                  -0.998
REMARK UNBOUND:                -0.870
REMARK  Name = 
REMARK  7 active torsions:
REMARK  status: ('A' for Active; 'I' for Inactive)
REMARK    1  A    between atoms: C_2  and  C_4
REMARK    2  A    between atoms: C_7  and  O_8
REMARK    3  A    between atoms: O_8  and  C_9
REMARK    4  A    between atoms: C_9  and  C_10
REMARK    5  A    between atoms: C_10  and  C_11
REMARK    6  A    between atoms: C_15  and  O_16
REMARK    7  A    between atoms: O_16  and  C_17
REMARK                            x       y       z     vdW  Elec       q    Type
REMARK                         _______ _______ _______ _____ _____    ______ ____
ROOT
ATOM      1  C   UNL     1      48.835   8.163  14.608  0.00  0.00    +0.000 C 
ENDROOT
BRANCH   1   2
ATOM      2  O   UNL     1      48.512   7.585  13.338  0.00  0.00    +0.000 OA
BRANCH   2   6
ATOM      3  C   UNL     1      45.039   5.389  13.167  0.00  0.00    +0.000 A 
ATOM      4  C   UNL     1      46.142   4.766  13.733  0.00  0.00    +0.000 A 
ATOM      5  C   UNL     1      47.341   5.472  13.805  0.00  0.00    +0.000 A 
ATOM      6  C   UNL     1      47.408   6.775  13.316  0.00  0.00    +0.000 A 
ATOM      7  C   UNL     1      46.247   7.309  12.757  0.00  0.00    +0.000 A 
ATOM      8  N   UNL     1      45.060   6.654  12.663  0.00  0.00    +0.000 NA
BRANCH   3  10
ATOM      9  N   UNL     1      42.614   5.423  13.028  0.00  0.00    +0.000 N 
ATOM     10  C   UNL     1      43.740   4.647  13.104  0.00  0.00    +0.000 C 
ATOM     11  O   UNL     1      43.677   3.426  13.112  0.00  0.00    +0.000 OA
ATOM     12  H   UNL     1      41.715   4.972  12.943  0.00  0.00    +0.000 HD
ATOM     13  H   UNL     1      42.700   6.429  12.956  0.00  0.00    +0.000 HD
ENDBRANCH   3  10
ENDBRANCH   2   6
ENDBRANCH   1   2
BRANCH   1  14
ATOM     14  C   UNL     1      50.349   8.336  14.734  0.00  0.00    +0.000 C 
BRANCH  14  15
ATOM     15  C   UNL     1      50.944   7.254  15.602  0.00  0.00    +0.000 A 
ATOM     16  C   UNL     1      52.324   7.193  15.828  0.00  0.00    +0.000 A 
ATOM     17  C   UNL     1      52.853   6.236  16.697  0.00  0.00    +0.000 A 
ATOM     18  C   UNL     1      52.014   5.328  17.352  0.00  0.00    +0.000 A 
ATOM     19  C   UNL     1      50.642   5.371  17.122  0.00  0.00    +0.000 A 
ATOM     20  C   UNL     1      50.112   6.335  16.257  0.00  0.00    +0.000 A 
BRANCH  19  21
ATOM     21  O   UNL     1      49.713   4.559  17.727  0.00  0.00    +0.000 OA
BRANCH  21  22
ATOM     22  C   UNL     1      48.458   4.296  17.056  0.00  0.00    +0.000 C 
ATOM     23  C   UNL     1      47.156   4.578  17.829  0.00  0.00    +0.000 C 
ATOM     24  N   UNL     1      46.682   3.210  17.575  0.00  0.00    +0.000 NA
ATOM     25  C   UNL     1      48.007   2.818  17.075  0.00  0.00    +0.000 C 
ATOM     26  H   UNL     1      45.938   3.144  16.883  0.00  0.00    +0.000 HD
ENDBRANCH  21  22
ENDBRANCH  19  21
ENDBRANCH  14  15
ENDBRANCH   1  14
TORSDOF 7
ENDMDL
MODEL 9
REMARK VINA RESULT:    -5.927      3.084      5.085
REMARK INTER + INTRA:          -9.222
REMARK INTER:                  -8.376
REMARK INTRA:                  -0.846
REMARK UNBOUND:                -0.870
REMARK  Name = 
REMARK  7 active torsions:
REMARK  status: ('A' for Active; 'I' for Inactive)
REMARK    1  A    between atoms: C_2  and  C_4
REMARK    2  A    between atoms: C_7  and  O_8
REMARK    3  A    between atoms: O_8  and  C_9
REMARK    4  A    between atoms: C_9  and  C_10
REMARK    5  A    between atoms: C_10  and  C_11
REMARK    6  A    between atoms: C_15  and  O_16
REMARK    7  A    between atoms: O_16  and  C_17
REMARK                            x       y       z     vdW  Elec       q    Type
REMARK                         _______ _______ _______ _____ _____    ______ ____
ROOT
ATOM      1  C   UNL     1      47.053   8.457  13.641  0.00  0.00    +0.000 C 
ENDROOT
BRANCH   1   2
ATOM      2  O   UNL     1      47.085   7.854  12.342  0.00  0.00    +0.000 OA
BRANCH   2   6
ATOM      3  C   UNL     1      44.896   4.424  11.742  0.00  0.00    +0.000 A 
ATOM      4  C   UNL     1      45.757   4.431  12.830  0.00  0.00    +0.000 A 
ATOM      5  C   UNL     1      46.523   5.571  13.067  0.00  0.00    +0.000 A 
ATOM      6  C   UNL     1      46.408   6.670  12.218  0.00  0.00    +0.000 A 
ATOM      7  C   UNL     1      45.522   6.562  11.147  0.00  0.00    +0.000 A 
ATOM      8  N   UNL     1      44.761   5.468  10.878  0.00  0.00    +0.000 NA
BRANCH   3  10
ATOM      9  N   UNL     1      43.774   2.444  12.589  0.00  0.00    +0.000 N 
ATOM     10  C   UNL     1      44.052   3.213  11.491  0.00  0.00    +0.000 C 
ATOM     11  O   UNL     1      43.628   2.923  10.381  0.00  0.00    +0.000 OA
ATOM     12  H   UNL     1      43.176   1.637  12.482  0.00  0.00    +0.000 HD
ATOM     13  H   UNL     1      44.083   2.744  13.505  0.00  0.00    +0.000 HD
ENDBRANCH   3  10
ENDBRANCH   2   6
ENDBRANCH   1   2
BRANCH   1  14
ATOM     14  C   UNL     1      48.453   8.931  14.033  0.00  0.00    +0.000 C 
BRANCH  14  15
ATOM     15  C   UNL     1      48.899   8.285  15.322  0.00  0.00    +0.000 A 
ATOM     16  C   UNL     1      49.141   9.055  16.465  0.00  0.00    +0.000 A 
ATOM     17  C   UNL     1      49.475   8.438  17.673  0.00  0.00    +0.000 A 
ATOM     18  C   UNL     1      49.570   7.044  17.756  0.00  0.00    +0.000 A 
ATOM     19  C   UNL     1      49.346   6.270  16.622  0.00  0.00    +0.000 A 
ATOM     20  C   UNL     1      49.005   6.890  15.415  0.00  0.00    +0.000 A 
BRANCH  19  21
ATOM     21  O   UNL     1      49.378   4.898  16.583  0.00  0.00    +0.000 OA
BRANCH  21  22
ATOM     22  C   UNL     1      48.595   4.143  17.538  0.00  0.00    +0.000 C 
ATOM     23  C   UNL     1      48.093   2.748  17.116  0.00  0.00    +0.000 C 
ATOM     24  N   UNL     1      46.712   3.119  17.454  0.00  0.00    +0.000 NA
ATOM     25  C   UNL     1      47.100   4.528  17.604  0.00  0.00    +0.000 C 
ATOM     26  H   UNL     1      46.358   2.690  18.308  0.00  0.00    +0.000 HD
ENDBRANCH  21  22
ENDBRANCH  19  21
ENDBRANCH  14  15
ENDBRANCH   1  14
TORSDOF 7
ENDMDL
