MODEL 1
REMARK VINA RESULT:    -6.867      0.000      0.000
REMARK INTER + INTRA:         -10.834
REMARK INTER:                 -10.078
REMARK INTRA:                  -0.756
REMARK UNBOUND:                -0.756
REMARK  Name = 
REMARK  10 active torsions:
REMARK  status: ('A' for Active; 'I' for Inactive)
REMARK    1  A    between atoms: C_1  and  C_2
REMARK    2  A    between atoms: C_2  and  C_3
REMARK    3  A    between atoms: C_3  and  C_4
REMARK    4  A    between atoms: C_4  and  C_5
REMARK    5  A    between atoms: C_6  and  C_7
REMARK    6  A    between atoms: C_11  and  C_12
REMARK    7  A    between atoms: C_12  and  C_13
REMARK    8  A    between atoms: C_13  and  O_14
REMARK    9  A    between atoms: O_14  and  C_15
REMARK   10  A    between atoms: C_20  and  C_21
REMARK                            x       y       z     vdW  Elec       q    Type
REMARK                         _______ _______ _______ _____ _____    ______ ____
ROOT
ATOM      1  C   UNL     1      46.640   4.943  13.964  0.00  0.00    +0.000 A 
ATOM      2  C   UNL     1      47.243   6.103  13.513  0.00  0.00    +0.000 A 
ATOM      3  C   UNL     1      46.892   6.578  12.260  0.00  0.00    +0.000 A 
ATOM      4  C   UNL     1      45.944   5.887  11.516  0.00  0.00    +0.000 A 
ATOM      5  C   UNL     1      45.344   4.740  12.047  0.00  0.00    +0.000 A 
ATOM      6  N   UNL     1      45.699   4.256  13.269  0.00  0.00    +0.000 NA
ENDROOT
BRANCH   1   8
ATOM      7  C   UNL     1      47.406   3.822  16.335  0.00  0.00    +0.000 C 
ATOM      8  C   UNL     1      47.023   4.388  15.225  0.00  0.00    +0.000 C 
BRANCH   7   9
ATOM      9  C   UNL     1      47.851   3.162  17.630  0.00  0.00    +0.000 C 
BRANCH   9  10
ATOM     10  C   UNL     1      49.375   3.172  17.730  0.00  0.00    +0.000 C 
BRANCH  10  12
ATOM     11  C   UNL     1      51.409   1.726  17.394  0.00  0.00    +0.000 C 
ATOM     12  C   UNL     1      49.997   2.034  16.922  0.00  0.00    +0.000 C 
ENDBRANCH  10  12
ENDBRANCH   9  10
ENDBRANCH   7   9
ENDBRANCH   1   8
BRANCH   5  13
ATOM     13  C   UNL     1      44.258   3.979  11.313  0.00  0.00    +0.000 C 
BRANCH  13  14
ATOM     14  C   UNL     1      44.723   2.685  10.641  0.00  0.00    +0.000 C 
BRANCH  14  15
ATOM     15  O   UNL     1      44.461   2.717   9.236  0.00  0.00    +0.000 OA
BRANCH  15  16
ATOM     16  C   UNL     1      45.551   2.280   8.496  0.00  0.00    +0.000 A 
ATOM     17  N   UNL     1      45.815   0.953   8.433  0.00  0.00    +0.000 NA
ATOM     18  C   UNL     1      46.841   0.569   7.646  0.00  0.00    +0.000 A 
ATOM     19  C   UNL     1      47.608   1.446   6.900  0.00  0.00    +0.000 A 
ATOM     20  C   UNL     1      47.334   2.807   7.001  0.00  0.00    +0.000 A 
ATOM     21  C   UNL     1      46.299   3.249   7.831  0.00  0.00    +0.000 A 
ATOM     22  C   UNL     1      46.016   4.709   8.008  0.00  0.00    +0.000 C 
ENDBRANCH  15  16
ENDBRANCH  14  15
ENDBRANCH  13  14
ENDBRANCH   5  13
TORSDOF 8
ENDMDL
MODEL 2
REMARK VINA RESULT:    -6.519      2.200      8.202
REMARK INTER + INTRA:         -10.323
REMARK INTER:                  -9.721
REMARK INTRA:                  -0.602
REMARK UNBOUND:                -0.756
REMARK  Name = 
REMARK  10 active torsions:
REMARK  status: ('A' for Active; 'I' for Inactive)
REMARK    1  A    between atoms: C_1  and  C_2
REMARK    2  A    between atoms: C_2  and  C_3
REMARK    3  A    between atoms: C_3  and  C_4
REMARK    4  A    between atoms: C_4  and  C_5
REMARK    5  A    between atoms: C_6  and  C_7
REMARK    6  A    between atoms: C_11  and  C_12
REMARK    7  A    between atoms: C_12  and  C_13
REMARK    8  A    between atoms: C_13  and  O_14
REMARK    9  A    between atoms: O_14  and  C_15
REMARK   10  A    between atoms: C_20  and  C_21
REMARK                            x       y       z     vdW  Elec       q    Type
REMARK                         _______ _______ _______ _____ _____    ______ ____
ROOT
ATOM      1  C   UNL     1      44.708   4.286  10.737  0.00  0.00    +0.000 A 
ATOM      2  C   UNL     1      43.351   4.414  10.974  0.00  0.00    +0.000 A 
ATOM      3  C   UNL     1      42.937   4.700  12.264  0.00  0.00    +0.000 A 
ATOM      4  C   UNL     1      43.891   4.863  13.260  0.00  0.00    +0.000 A 
ATOM      5  C   UNL     1      45.250   4.757  12.945  0.00  0.00    +0.000 A 
ATOM      6  N   UNL     1      45.664   4.456  11.684  0.00  0.00    +0.000 NA
ENDROOT
BRANCH   1   8
ATOM      7  C   UNL     1      45.649   3.656   8.250  0.00  0.00    +0.000 C 
ATOM      8  C   UNL     1      45.169   3.929   9.431  0.00  0.00    +0.000 C 
BRANCH   7   9
ATOM      9  C   UNL     1      46.208   3.340   6.872  0.00  0.00    +0.000 C 
BRANCH   9  10
ATOM     10  C   UNL     1      47.527   2.581   7.000  0.00  0.00    +0.000 C 
BRANCH  10  12
ATOM     11  C   UNL     1      46.874   2.100   4.616  0.00  0.00    +0.000 C 
ATOM     12  C   UNL     1      47.814   1.742   5.756  0.00  0.00    +0.000 C 
ENDBRANCH  10  12
ENDBRANCH   9  10
ENDBRANCH   7   9
ENDBRANCH   1   8
BRANCH   5  13
ATOM     13  C   UNL     1      46.341   4.987  13.972  0.00  0.00    +0.000 C 
BRANCH  13  14
ATOM     14  C   UNL     1      47.164   3.744  14.323  0.00  0.00    +0.000 C 
BRANCH  14  15
ATOM     15  O   UNL     1      46.969   3.372  15.689  0.00  0.00    +0.000 OA
BRANCH  15  16
ATOM     16  C   UNL     1      48.173   3.142  16.340  0.00  0.00    +0.000 A 
ATOM     17  N   UNL     1      48.913   2.061  15.994  0.00  0.00    +0.000 NA
ATOM     18  C   UNL     1      50.108   1.915  16.602  0.00  0.00    +0.000 A 
ATOM     19  C   UNL     1      50.612   2.809  17.529  0.00  0.00    +0.000 A 
ATOM     20  C   UNL     1      49.824   3.899  17.887  0.00  0.00    +0.000 A 
ATOM     21  C   UNL     1      48.565   4.069  17.304  0.00  0.00    +0.000 A 
ATOM     22  C   UNL     1      47.668   5.196  17.709  0.00  0.00    +0.000 C 
ENDBRANCH  15  16
ENDBRANCH  14  15
ENDBRANCH  13  14
ENDBRANCH   5  13
TORSDOF 8
ENDMDL
MODEL 3
REMARK VINA RESULT:    -6.462      2.425      7.744
REMARK INTER + INTRA:         -10.240
REMARK INTER:                  -9.321
REMARK INTRA:                  -0.919
REMARK UNBOUND:                -0.756
REMARK  Name = 
REMARK  10 active torsions:
REMARK  status: ('A' for Active; 'I' for Inactive)
REMARK    1  A    between atoms: C_1  and  C_2
REMARK    2  A    between atoms: C_2  and  C_3
REMARK    3  A    between atoms: C_3  and  C_4
REMARK    4  A    between atoms: C_4  and  C_5
REMARK    5  A    between atoms: C_6  and  C_7
REMARK    6  A    between atoms: C_11  and  C_12
REMARK    7  A    between atoms: C_12  and  C_13
REMARK    8  A    between atoms: C_13  and  O_14
REMARK    9  A    between atoms: O_14  and  C_15
REMARK   10  A    between atoms: C_20  and  C_21
REMARK                            x       y       z     vdW  Elec       q    Type
REMARK                         _______ _______ _______ _____ _____    ______ ____
ROOT
ATOM      1  C   UNL     1      44.687   4.782  10.205  0.00  0.00    +0.000 A 
ATOM      2  C   UNL     1      43.664   4.082  10.819  0.00  0.00    +0.000 A 
ATOM      3  C   UNL     1      43.214   4.528  12.051  0.00  0.00    +0.000 A 
ATOM      4  C   UNL     1      43.790   5.662  12.610  0.00  0.00    +0.000 A 
ATOM      5  C   UNL     1      44.795   6.345  11.918  0.00  0.00    +0.000 A 
ATOM      6  N   UNL     1      45.256   5.901  10.717  0.00  0.00    +0.000 NA
ENDROOT
BRANCH   1   8
ATOM      7  C   UNL     1      45.740   3.829   7.870  0.00  0.00    +0.000 C 
ATOM      8  C   UNL     1      45.220   4.315   8.963  0.00  0.00    +0.000 C 
BRANCH   7   9
ATOM      9  C   UNL     1      46.348   3.264   6.597  0.00  0.00    +0.000 C 
BRANCH   9  10
ATOM     10  C   UNL     1      47.490   2.308   6.938  0.00  0.00    +0.000 C 
BRANCH  10  12
ATOM     11  C   UNL     1      47.176   1.326   4.640  0.00  0.00    +0.000 C 
ATOM     12  C   UNL     1      47.412   1.025   6.111  0.00  0.00    +0.000 C 
ENDBRANCH  10  12
ENDBRANCH   9  10
ENDBRANCH   7   9
ENDBRANCH   1   8
BRANCH   5  13
ATOM     13  C   UNL     1      45.417   7.624  12.445  0.00  0.00    +0.000 C 
BRANCH  13  14
ATOM     14  C   UNL     1      46.778   7.442  13.123  0.00  0.00    +0.000 C 
BRANCH  14  15
ATOM     15  O   UNL     1      47.236   6.094  12.995  0.00  0.00    +0.000 OA
BRANCH  15  16
ATOM     16  C   UNL     1      47.587   5.548  14.222  0.00  0.00    +0.000 A 
ATOM     17  N   UNL     1      48.291   6.301  15.101  0.00  0.00    +0.000 NA
ATOM     18  C   UNL     1      48.550   5.755  16.307  0.00  0.00    +0.000 A 
ATOM     19  C   UNL     1      48.121   4.496  16.688  0.00  0.00    +0.000 A 
ATOM     20  C   UNL     1      47.421   3.732  15.760  0.00  0.00    +0.000 A 
ATOM     21  C   UNL     1      47.160   4.249  14.487  0.00  0.00    +0.000 A 
ATOM     22  C   UNL     1      46.462   3.431  13.446  0.00  0.00    +0.000 C 
ENDBRANCH  15  16
ENDBRANCH  14  15
ENDBRANCH  13  14
ENDBRANCH   5  13
TORSDOF 8
ENDMDL
MODEL 4
REMARK VINA RESULT:    -6.309      1.423      1.893
REMARK INTER + INTRA:         -10.015
REMARK INTER:                  -9.589
REMARK INTRA:                  -0.426
REMARK UNBOUND:                -0.756
REMARK  Name = 
REMARK  10 active torsions:
REMARK  status: ('A' for Active; 'I' for Inactive)
REMARK    1  A    between atoms: C_1  and  C_2
REMARK    2  A    between atoms: C_2  and  C_3
REMARK    3  A    between atoms: C_3  and  C_4
REMARK    4  A    between atoms: C_4  and  C_5
REMARK    5  A    between atoms: C_6  and  C_7
REMARK    6  A    between atoms: C_11  and  C_12
REMARK    7  A    between atoms: C_12  and  C_13
REMARK    8  A    between atoms: C_13  and  O_14
REMARK    9  A    between atoms: O_14  and  C_15
REMARK   10  A    between atoms: C_20  and  C_21
REMARK                            x       y       z     vdW  Elec       q    Type
REMARK                         _______ _______ _______ _____ _____    ______ ____
ROOT
ATOM      1  C   UNL     1      45.441   4.767  12.921  0.00  0.00    +0.000 A 
ATOM      2  C   UNL     1      45.025   6.021  12.512  0.00  0.00    +0.000 A 
ATOM      3  C   UNL     1      44.228   6.110  11.383  0.00  0.00    +0.000 A 
ATOM      4  C   UNL     1      43.866   4.945  10.719  0.00  0.00    +0.000 A 
ATOM      5  C   UNL     1      44.290   3.705  11.207  0.00  0.00    +0.000 A 
ATOM      6  N   UNL     1      45.090   3.612  12.304  0.00  0.00    +0.000 NA
ENDROOT
BRANCH   1   8
ATOM      7  C   UNL     1      47.056   4.557  15.116  0.00  0.00    +0.000 C 
ATOM      8  C   UNL     1      46.316   4.642  14.045  0.00  0.00    +0.000 C 
BRANCH   7   9
ATOM      9  C   UNL     1      47.918   4.461  16.363  0.00  0.00    +0.000 C 
BRANCH   9  10
ATOM     10  C   UNL     1      47.391   3.363  17.285  0.00  0.00    +0.000 C 
BRANCH  10  12
ATOM     11  C   UNL     1      48.962   4.419  18.946  0.00  0.00    +0.000 C 
ATOM     12  C   UNL     1      48.331   3.122  18.465  0.00  0.00    +0.000 C 
ENDBRANCH  10  12
ENDBRANCH   9  10
ENDBRANCH   7   9
ENDBRANCH   1   8
BRANCH   5  13
ATOM     13  C   UNL     1      43.875   2.395  10.566  0.00  0.00    +0.000 C 
BRANCH  13  14
ATOM     14  C   UNL     1      44.443   2.160   9.163  0.00  0.00    +0.000 C 
BRANCH  14  15
ATOM     15  O   UNL     1      45.857   1.962   9.211  0.00  0.00    +0.000 OA
BRANCH  15  16
ATOM     16  C   UNL     1      46.419   1.931   7.943  0.00  0.00    +0.000 A 
ATOM     17  N   UNL     1      46.792   0.740   7.416  0.00  0.00    +0.000 NA
ATOM     18  C   UNL     1      47.269   0.749   6.154  0.00  0.00    +0.000 A 
ATOM     19  C   UNL     1      47.374   1.891   5.381  0.00  0.00    +0.000 A 
ATOM     20  C   UNL     1      47.008   3.106   5.952  0.00  0.00    +0.000 A 
ATOM     21  C   UNL     1      46.540   3.145   7.269  0.00  0.00    +0.000 A 
ATOM     22  C   UNL     1      46.194   4.441   7.932  0.00  0.00    +0.000 C 
ENDBRANCH  15  16
ENDBRANCH  14  15
ENDBRANCH  13  14
ENDBRANCH   5  13
TORSDOF 8
ENDMDL
MODEL 5
REMARK VINA RESULT:    -6.295      3.432      7.388
REMARK INTER + INTRA:          -9.994
REMARK INTER:                  -8.878
REMARK INTRA:                  -1.117
REMARK UNBOUND:                -0.756
REMARK  Name = 
REMARK  10 active torsions:
REMARK  status: ('A' for Active; 'I' for Inactive)
REMARK    1  A    between atoms: C_1  and  C_2
REMARK    2  A    between atoms: C_2  and  C_3
REMARK    3  A    between atoms: C_3  and  C_4
REMARK    4  A    between atoms: C_4  and  C_5
REMARK    5  A    between atoms: C_6  and  C_7
REMARK    6  A    between atoms: C_11  and  C_12
REMARK    7  A    between atoms: C_12  and  C_13
REMARK    8  A    between atoms: C_13  and  O_14
REMARK    9  A    between atoms: O_14  and  C_15
REMARK   10  A    between atoms: C_20  and  C_21
REMARK                            x       y       z     vdW  Elec       q    Type
REMARK                         _______ _______ _______ _____ _____    ______ ____
ROOT
ATOM      1  C   UNL     1      44.284   3.527  10.885  0.00  0.00    +0.000 A 
ATOM      2  C   UNL     1      43.808   2.879  12.011  0.00  0.00    +0.000 A 
ATOM      3  C   UNL     1      43.214   3.643  13.002  0.00  0.00    +0.000 A 
ATOM      4  C   UNL     1      43.104   5.016  12.823  0.00  0.00    +0.000 A 
ATOM      5  C   UNL     1      43.572   5.603  11.643  0.00  0.00    +0.000 A 
ATOM      6  N   UNL     1      44.175   4.862  10.674  0.00  0.00    +0.000 NA
ENDROOT
BRANCH   1   8
ATOM      7  C   UNL     1      45.625   2.161   8.935  0.00  0.00    +0.000 C 
ATOM      8  C   UNL     1      44.959   2.781   9.869  0.00  0.00    +0.000 C 
BRANCH   7   9
ATOM      9  C   UNL     1      46.400   1.440   7.845  0.00  0.00    +0.000 C 
BRANCH   9  10
ATOM     10  C   UNL     1      47.342   2.411   7.137  0.00  0.00    +0.000 C 
BRANCH  10  12
ATOM     11  C   UNL     1      47.005   1.787   4.720  0.00  0.00    +0.000 C 
ATOM     12  C   UNL     1      46.782   2.849   5.784  0.00  0.00    +0.000 C 
ENDBRANCH  10  12
ENDBRANCH   9  10
ENDBRANCH   7   9
ENDBRANCH   1   8
BRANCH   5  13
ATOM     13  C   UNL     1      43.422   7.085  11.360  0.00  0.00    +0.000 C 
BRANCH  13  14
ATOM     14  C   UNL     1      44.738   7.867  11.325  0.00  0.00    +0.000 C 
BRANCH  14  15
ATOM     15  O   UNL     1      45.437   7.745  12.567  0.00  0.00    +0.000 OA
BRANCH  15  16
ATOM     16  C   UNL     1      46.812   7.816  12.396  0.00  0.00    +0.000 A 
ATOM     17  N   UNL     1      47.364   8.977  11.968  0.00  0.00    +0.000 NA
ATOM     18  C   UNL     1      48.710   9.021  11.883  0.00  0.00    +0.000 A 
ATOM     19  C   UNL     1      49.537   7.967  12.224  0.00  0.00    +0.000 A 
ATOM     20  C   UNL     1      48.946   6.776  12.637  0.00  0.00    +0.000 A 
ATOM     21  C   UNL     1      47.553   6.678  12.707  0.00  0.00    +0.000 A 
ATOM     22  C   UNL     1      46.885   5.394  13.091  0.00  0.00    +0.000 C 
ENDBRANCH  15  16
ENDBRANCH  14  15
ENDBRANCH  13  14
ENDBRANCH   5  13
TORSDOF 8
ENDMDL
MODEL 6
REMARK VINA RESULT:    -5.958      3.065      7.501
REMARK INTER + INTRA:          -9.500
REMARK INTER:                  -8.822
REMARK INTRA:                  -0.677
REMARK UNBOUND:                -0.756
REMARK  Name = 
REMARK  10 active torsions:
REMARK  status: ('A' for Active; 'I' for Inactive)
REMARK    1  A    between atoms: C_1  and  C_2
REMARK    2  A    between atoms: C_2  and  C_3
REMARK    3  A    between atoms: C_3  and  C_4
REMARK    4  A    between atoms: C_4  and  C_5
REMARK    5  A    between atoms: C_6  and  C_7
REMARK    6  A    between atoms: C_11  and  C_12
REMARK    7  A    between atoms: C_12  and  C_13
REMARK    8  A    between atoms: C_13  and  O_14
REMARK    9  A    between atoms: O_14  and  C_15
REMARK   10  A    between atoms: C_20  and  C_21
REMARK                            x       y       z     vdW  Elec       q    Type
REMARK                         _______ _______ _______ _____ _____    ______ ____
ROOT
ATOM      1  C   UNL     1      44.619   4.294  10.488  0.00  0.00    +0.000 A 
ATOM      2  C   UNL     1      43.337   4.809  10.544  0.00  0.00    +0.000 A 
ATOM      3  C   UNL     1      42.826   5.159  11.783  0.00  0.00    +0.000 A 
ATOM      4  C   UNL     1      43.620   4.997  12.911  0.00  0.00    +0.000 A 
ATOM      5  C   UNL     1      44.923   4.505  12.781  0.00  0.00    +0.000 A 
ATOM      6  N   UNL     1      45.424   4.140  11.569  0.00  0.00    +0.000 NA
ENDROOT
BRANCH   1   8
ATOM      7  C   UNL     1      45.685   3.539   8.088  0.00  0.00    +0.000 C 
ATOM      8  C   UNL     1      45.157   3.863   9.235  0.00  0.00    +0.000 C 
BRANCH   7   9
ATOM      9  C   UNL     1      46.300   3.163   6.750  0.00  0.00    +0.000 C 
BRANCH   9  10
ATOM     10  C   UNL     1      47.336   2.057   6.938  0.00  0.00    +0.000 C 
BRANCH  10  12
ATOM     11  C   UNL     1      46.787   1.883   4.486  0.00  0.00    +0.000 C 
ATOM     12  C   UNL     1      47.656   1.358   5.618  0.00  0.00    +0.000 C 
ENDBRANCH  10  12
ENDBRANCH   9  10
ENDBRANCH   7   9
ENDBRANCH   1   8
BRANCH   5  13
ATOM     13  C   UNL     1      45.860   4.366  13.964  0.00  0.00    +0.000 C 
BRANCH  13  14
ATOM     14  C   UNL     1      46.954   5.434  14.044  0.00  0.00    +0.000 C 
BRANCH  14  15
ATOM     15  O   UNL     1      46.565   6.617  13.343  0.00  0.00    +0.000 OA
BRANCH  15  16
ATOM     16  C   UNL     1      47.659   7.296  12.825  0.00  0.00    +0.000 A 
ATOM     17  N   UNL     1      48.862   6.674  12.786  0.00  0.00    +0.000 NA
ATOM     18  C   UNL     1      49.880   7.345  12.210  0.00  0.00    +0.000 A 
ATOM     19  C   UNL     1      49.753   8.603  11.651  0.00  0.00    +0.000 A 
ATOM     20  C   UNL     1      48.514   9.232  11.724  0.00  0.00    +0.000 A 
ATOM     21  C   UNL     1      47.440   8.584  12.343  0.00  0.00    +0.000 A 
ATOM     22  C   UNL     1      46.110   9.256  12.491  0.00  0.00    +0.000 C 
ENDBRANCH  15  16
ENDBRANCH  14  15
ENDBRANCH  13  14
ENDBRANCH   5  13
TORSDOF 8
ENDMDL
MODEL 7
REMARK VINA RESULT:    -5.951      3.864      4.917
REMARK INTER + INTRA:          -9.490
REMARK INTER:                  -8.797
REMARK INTRA:                  -0.693
REMARK UNBOUND:                -0.756
REMARK  Name = 
REMARK  10 active torsions:
REMARK  status: ('A' for Active; 'I' for Inactive)
REMARK    1  A    between atoms: C_1  and  C_2
REMARK    2  A    between atoms: C_2  and  C_3
REMARK    3  A    between atoms: C_3  and  C_4
REMARK    4  A    between atoms: C_4  and  C_5
REMARK    5  A    between atoms: C_6  and  C_7
REMARK    6  A    between atoms: C_11  and  C_12
REMARK    7  A    between atoms: C_12  and  C_13
REMARK    8  A    between atoms: C_13  and  O_14
REMARK    9  A    between atoms: O_14  and  C_15
REMARK   10  A    between atoms: C_20  and  C_21
REMARK                            x       y       z     vdW  Elec       q    Type
REMARK                         _______ _______ _______ _____ _____    ______ ____
ROOT
ATOM      1  C   UNL     1      45.513   6.132  11.427  0.00  0.00    +0.000 A 
ATOM      2  C   UNL     1      44.385   6.912  11.607  0.00  0.00    +0.000 A 
ATOM      3  C   UNL     1      43.145   6.322  11.419  0.00  0.00    +0.000 A 
ATOM      4  C   UNL     1      43.082   4.977  11.077  0.00  0.00    +0.000 A 
ATOM      5  C   UNL     1      44.261   4.236  10.948  0.00  0.00    +0.000 A 
ATOM      6  N   UNL     1      45.482   4.813  11.110  0.00  0.00    +0.000 NA
ENDROOT
BRANCH   1   8
ATOM      7  C   UNL     1      47.982   7.259  11.742  0.00  0.00    +0.000 C 
ATOM      8  C   UNL     1      46.810   6.721  11.551  0.00  0.00    +0.000 C 
BRANCH   7   9
ATOM      9  C   UNL     1      49.348   7.887  11.966  0.00  0.00    +0.000 C 
BRANCH   9  10
ATOM     10  C   UNL     1      49.332   9.351  11.531  0.00  0.00    +0.000 C 
BRANCH  10  12
ATOM     11  C   UNL     1      48.410  11.644  12.013  0.00  0.00    +0.000 C 
ATOM     12  C   UNL     1      48.308  10.160  12.325  0.00  0.00    +0.000 C 
ENDBRANCH  10  12
ENDBRANCH   9  10
ENDBRANCH   7   9
ENDBRANCH   1   8
BRANCH   5  13
ATOM     13  C   UNL     1      44.256   2.751  10.640  0.00  0.00    +0.000 C 
BRANCH  13  14
ATOM     14  C   UNL     1      44.467   2.401   9.165  0.00  0.00    +0.000 C 
BRANCH  14  15
ATOM     15  O   UNL     1      45.675   1.659   8.984  0.00  0.00    +0.000 OA
BRANCH  15  16
ATOM     16  C   UNL     1      46.271   1.929   7.760  0.00  0.00    +0.000 A 
ATOM     17  N   UNL     1      46.203   3.185   7.258  0.00  0.00    +0.000 NA
ATOM     18  C   UNL     1      46.856   3.418   6.101  0.00  0.00    +0.000 A 
ATOM     19  C   UNL     1      47.592   2.461   5.427  0.00  0.00    +0.000 A 
ATOM     20  C   UNL     1      47.627   1.172   5.949  0.00  0.00    +0.000 A 
ATOM     21  C   UNL     1      46.936   0.880   7.130  0.00  0.00    +0.000 A 
ATOM     22  C   UNL     1      46.904  -0.509   7.687  0.00  0.00    +0.000 C 
ENDBRANCH  15  16
ENDBRANCH  14  15
ENDBRANCH  13  14
ENDBRANCH   5  13
TORSDOF 8
ENDMDL
MODEL 8
REMARK VINA RESULT:    -5.694      3.252      3.665
REMARK INTER + INTRA:          -9.112
REMARK INTER:                  -8.311
REMARK INTRA:                  -0.801
REMARK UNBOUND:                -0.756
REMARK  Name = 
REMARK  10 active torsions:
REMARK  status: ('A' for Active; 'I' for Inactive)
REMARK    1  A    between atoms: C_1  and  C_2
REMARK    2  A    between atoms: C_2  and  C_3
REMARK    3  A    between atoms: C_3  and  C_4
REMARK    4  A    between atoms: C_4  and  C_5
REMARK    5  A    between atoms: C_6  and  C_7
REMARK    6  A    between atoms: C_11  and  C_12
REMARK    7  A    between atoms: C_12  and  C_13
REMARK    8  A    between atoms: C_13  and  O_14
REMARK    9  A    between atoms: O_14  and  C_15
REMARK   10  A    between atoms: C_20  and  C_21
REMARK                            x       y       z     vdW  Elec       q    Type
REMARK                         _______ _______ _______ _____ _____    ______ ____
ROOT
ATOM      1  C   UNL     1      45.367   6.112  11.611  0.00  0.00    +0.000 A 
ATOM      2  C   UNL     1      44.312   7.000  11.507  0.00  0.00    +0.000 A 
ATOM      3  C   UNL     1      43.033   6.483  11.376  0.00  0.00    +0.000 A 
ATOM      4  C   UNL     1      42.858   5.105  11.371  0.00  0.00    +0.000 A 
ATOM      5  C   UNL     1      43.965   4.263  11.518  0.00  0.00    +0.000 A 
ATOM      6  N   UNL     1      45.226   4.763  11.626  0.00  0.00    +0.000 NA
ENDROOT
BRANCH   1   8
ATOM      7  C   UNL     1      47.919   7.063  11.830  0.00  0.00    +0.000 C 
ATOM      8  C   UNL     1      46.707   6.608  11.684  0.00  0.00    +0.000 C 
BRANCH   7   9
ATOM      9  C   UNL     1      49.333   7.595  12.000  0.00  0.00    +0.000 C 
BRANCH   9  10
ATOM     10  C   UNL     1      49.693   7.671  13.482  0.00  0.00    +0.000 C 
BRANCH  10  12
ATOM     11  C   UNL     1      51.543   8.173  15.116  0.00  0.00    +0.000 C 
ATOM     12  C   UNL     1      51.031   8.375  13.698  0.00  0.00    +0.000 C 
ENDBRANCH  10  12
ENDBRANCH   9  10
ENDBRANCH   7   9
ENDBRANCH   1   8
BRANCH   5  13
ATOM     13  C   UNL     1      43.833   2.754  11.584  0.00  0.00    +0.000 C 
BRANCH  13  14
ATOM     14  C   UNL     1      44.000   2.036  10.242  0.00  0.00    +0.000 C 
BRANCH  14  15
ATOM     15  O   UNL     1      44.454   2.941   9.232  0.00  0.00    +0.000 OA
BRANCH  15  16
ATOM     16  C   UNL     1      45.528   2.426   8.521  0.00  0.00    +0.000 A 
ATOM     17  N   UNL     1      45.705   1.083   8.474  0.00  0.00    +0.000 NA
ATOM     18  C   UNL     1      46.720   0.625   7.714  0.00  0.00    +0.000 A 
ATOM     19  C   UNL     1      47.561   1.441   6.980  0.00  0.00    +0.000 A 
ATOM     20  C   UNL     1      47.376   2.818   7.063  0.00  0.00    +0.000 A 
ATOM     21  C   UNL     1      46.354   3.336   7.866  0.00  0.00    +0.000 A 
ATOM     22  C   UNL     1      46.166   4.813   8.024  0.00  0.00    +0.000 C 
ENDBRANCH  15  16
ENDBRANCH  14  15
ENDBRANCH  13  14
ENDBRANCH   5  13
TORSDOF 8
ENDMDL
MODEL 9
REMARK VINA RESULT:    -5.693      2.847      8.328
REMARK INTER + INTRA:          -9.112
REMARK INTER:                  -8.366
REMARK INTRA:                  -0.745
REMARK UNBOUND:                -0.756
REMARK  Name = 
REMARK  10 active torsions:
REMARK  status: ('A' for Active; 'I' for Inactive)
REMARK    1  A    between atoms: C_1  and  C_2
REMARK    2  A    between atoms: C_2  and  C_3
REMARK    3  A    between atoms: C_3  and  C_4
REMARK    4  A    between atoms: C_4  and  C_5
REMARK    5  A    between atoms: C_6  and  C_7
REMARK    6  A    between atoms: C_11  and  C_12
REMARK    7  A    between atoms: C_12  and  C_13
REMARK    8  A    between atoms: C_13  and  O_14
REMARK    9  A    between atoms: O_14  and  C_15
REMARK   10  A    between atoms: C_20  and  C_21
REMARK                            x       y       z     vdW  Elec       q    Type
REMARK                         _______ _______ _______ _____ _____    ______ ____
ROOT
ATOM      1  C   UNL     1      45.755   6.160  11.737  0.00  0.00    +0.000 A 
ATOM      2  C   UNL     1      44.926   7.258  11.882  0.00  0.00    +0.000 A 
ATOM      3  C   UNL     1      45.433   8.381  12.513  0.00  0.00    +0.000 A 
ATOM      4  C   UNL     1      46.749   8.370  12.958  0.00  0.00    +0.000 A 
ATOM      5  C   UNL     1      47.546   7.240  12.746  0.00  0.00    +0.000 A 
ATOM      6  N   UNL     1      47.048   6.125  12.145  0.00  0.00    +0.000 NA
ENDROOT
BRANCH   1   8
ATOM      7  C   UNL     1      44.830   3.882  10.545  0.00  0.00    +0.000 C 
ATOM      8  C   UNL     1      45.247   4.961  11.147  0.00  0.00    +0.000 C 
BRANCH   7   9
ATOM      9  C   UNL     1      44.342   2.625   9.843  0.00  0.00    +0.000 C 
BRANCH   9  10
ATOM     10  C   UNL     1      45.236   2.309   8.646  0.00  0.00    +0.000 C 
BRANCH  10  12
ATOM     11  C   UNL     1      46.620   3.355   6.820  0.00  0.00    +0.000 C 
ATOM     12  C   UNL     1      45.437   3.535   7.757  0.00  0.00    +0.000 C 
ENDBRANCH  10  12
ENDBRANCH   9  10
ENDBRANCH   7   9
ENDBRANCH   1   8
BRANCH   5  13
ATOM     13  C   UNL     1      49.006   7.189  13.150  0.00  0.00    +0.000 C 
BRANCH  13  14
ATOM     14  C   UNL     1      49.252   7.146  14.661  0.00  0.00    +0.000 C 
BRANCH  14  15
ATOM     15  O   UNL     1      48.914   5.864  15.196  0.00  0.00    +0.000 OA
BRANCH  15  16
ATOM     16  C   UNL     1      48.528   5.944  16.527  0.00  0.00    +0.000 A 
ATOM     17  N   UNL     1      48.796   7.075  17.223  0.00  0.00    +0.000 NA
ATOM     18  C   UNL     1      48.341   7.135  18.492  0.00  0.00    +0.000 A 
ATOM     19  C   UNL     1      47.613   6.127  19.096  0.00  0.00    +0.000 A 
ATOM     20  C   UNL     1      47.372   4.965  18.369  0.00  0.00    +0.000 A 
ATOM     21  C   UNL     1      47.854   4.849  17.062  0.00  0.00    +0.000 A 
ATOM     22  C   UNL     1      47.663   3.590  16.274  0.00  0.00    +0.000 C 
ENDBRANCH  15  16
ENDBRANCH  14  15
ENDBRANCH  13  14
ENDBRANCH   5  13
TORSDOF 8
ENDMDL
