MODEL 1
REMARK VINA RESULT:    -8.027      0.000      0.000
REMARK INTER + INTRA:         -11.014
REMARK INTER:                 -10.373
REMARK INTRA:                  -0.641
REMARK UNBOUND:                -0.641
REMARK  Name = 
REMARK  7 active torsions:
REMARK  status: ('A' for Active; 'I' for Inactive)
REMARK    1  A    between atoms: C_1  and  C_2
REMARK    2  A    between atoms: C_5  and  O_6
REMARK    3  A    between atoms: O_6  and  C_7
REMARK    4  A    between atoms: C_7  and  C_8
REMARK    5  A    between atoms: C_13  and  C_14
REMARK    6  A    between atoms: N_17  and  S_18
REMARK    7  A    between atoms: S_18  and  C_19
REMARK                            x       y       z     vdW  Elec       q    Type
REMARK                         _______ _______ _______ _____ _____    ______ ____
ROOT
ATOM      1  C   UNL     1      45.541   6.256  11.982  0.00  0.00    +0.000 A 
ATOM      2  C   UNL     1      44.179   6.381  12.283  0.00  0.00    +0.000 A 
ATOM      3  C   UNL     1      43.227   5.666  11.570  0.00  0.00    +0.000 A 
ATOM      4  F   UNL     1      41.929   5.835  11.850  0.00  0.00    +0.000 F 
ATOM      5  C   UNL     1      43.598   4.799  10.545  0.00  0.00    +0.000 A 
ATOM      6  C   UNL     1      44.948   4.611  10.241  0.00  0.00    +0.000 A 
ATOM      7  C   UNL     1      45.900   5.336  10.977  0.00  0.00    +0.000 A 
ENDROOT
BRANCH   6   8
ATOM      8  C   UNL     1      45.369   3.757   9.112  0.00  0.00    +0.000 C 
ATOM      9  C   UNL     1      45.383   2.414   9.194  0.00  0.00    +0.000 C 
ATOM     10  C   UNL     1      45.872   1.481   8.128  0.00  0.00    +0.000 C 
ATOM     11  N   UNL     1      46.398   2.177   6.936  0.00  0.00    +0.000 NA
ATOM     12  C   UNL     1      46.877   3.565   7.133  0.00  0.00    +0.000 C 
ATOM     13  C   UNL     1      45.837   4.421   7.844  0.00  0.00    +0.000 C 
BRANCH  11  14
ATOM     14  S   UNL     1      47.317   1.209   5.890  0.00  0.00    +0.000 S 
ATOM     15  C   UNL     1      46.594   1.567   4.294  0.00  0.00    +0.000 C 
ATOM     16  O   UNL     1      48.672   1.704   5.891  0.00  0.00    +0.000 OA
ATOM     17  O   UNL     1      47.020  -0.179   6.195  0.00  0.00    +0.000 OA
ENDBRANCH  11  14
ENDBRANCH   6   8
BRANCH   1  18
ATOM     18  C   UNL     1      46.569   7.110  12.689  0.00  0.00    +0.000 C 
ATOM     19  C   UNL     1      46.987   8.460  12.106  0.00  0.00    +0.000 C 
ATOM     20  C   UNL     1      46.080   8.418  13.285  0.00  0.00    +0.000 C 
BRANCH  18  21
ATOM     21  O   UNL     1      47.728   6.406  13.180  0.00  0.00    +0.000 OA
BRANCH  21  26
ATOM     22  C   UNL     1      47.945   3.147  17.633  0.00  0.00    +0.000 C 
ATOM     23  C   UNL     1      47.750   4.139  16.534  0.00  0.00    +0.000 A 
ATOM     24  C   UNL     1      48.461   5.337  16.497  0.00  0.00    +0.000 A 
ATOM     25  N   UNL     1      48.429   6.186  15.442  0.00  0.00    +0.000 NA
ATOM     26  C   UNL     1      47.661   5.781  14.409  0.00  0.00    +0.000 A 
ATOM     27  C   UNL     1      46.897   4.624  14.464  0.00  0.00    +0.000 A 
ATOM     28  N   UNL     1      46.919   3.782  15.523  0.00  0.00    +0.000 NA
ENDBRANCH  21  26
ENDBRANCH  18  21
ENDBRANCH   1  18
TORSDOF 5
ENDMDL
MODEL 2
REMARK VINA RESULT:    -7.591      3.967      7.608
REMARK INTER + INTRA:         -10.451
REMARK INTER:                  -9.572
REMARK INTRA:                  -0.878
REMARK UNBOUND:                -0.641
REMARK  Name = 
REMARK  7 active torsions:
REMARK  status: ('A' for Active; 'I' for Inactive)
REMARK    1  A    between atoms: C_1  and  C_2
REMARK    2  A    between atoms: C_5  and  O_6
REMARK    3  A    between atoms: O_6  and  C_7
REMARK    4  A    between atoms: C_7  and  C_8
REMARK    5  A    between atoms: C_13  and  C_14
REMARK    6  A    between atoms: N_17  and  S_18
REMARK    7  A    between atoms: S_18  and  C_19
REMARK                            x       y       z     vdW  Elec       q    Type
REMARK                         _______ _______ _______ _____ _____    ______ ____
ROOT
ATOM      1  C   UNL     1      45.100   5.165  12.079  0.00  0.00    +0.000 A 
ATOM      2  C   UNL     1      45.532   4.129  12.917  0.00  0.00    +0.000 A 
ATOM      3  C   UNL     1      46.755   4.206  13.567  0.00  0.00    +0.000 A 
ATOM      4  F   UNL     1      47.162   3.184  14.330  0.00  0.00    +0.000 F 
ATOM      5  C   UNL     1      47.583   5.315  13.414  0.00  0.00    +0.000 A 
ATOM      6  C   UNL     1      47.172   6.390  12.622  0.00  0.00    +0.000 A 
ATOM      7  C   UNL     1      45.928   6.301  11.977  0.00  0.00    +0.000 A 
ENDROOT
BRANCH   6   8
ATOM      8  C   UNL     1      48.059   7.546  12.379  0.00  0.00    +0.000 C 
ATOM      9  C   UNL     1      47.579   8.774  12.104  0.00  0.00    +0.000 C 
ATOM     10  C   UNL     1      48.406   9.977  11.765  0.00  0.00    +0.000 C 
ATOM     11  N   UNL     1      49.856   9.696  11.715  0.00  0.00    +0.000 NA
ATOM     12  C   UNL     1      50.254   8.292  11.456  0.00  0.00    +0.000 C 
ATOM     13  C   UNL     1      49.548   7.326  12.398  0.00  0.00    +0.000 C 
BRANCH  11  14
ATOM     14  S   UNL     1      50.790  10.891  10.958  0.00  0.00    +0.000 S 
ATOM     15  C   UNL     1      52.099   9.939  10.198  0.00  0.00    +0.000 C 
ATOM     16  O   UNL     1      49.999  11.485   9.908  0.00  0.00    +0.000 OA
ATOM     17  O   UNL     1      51.397  11.704  11.997  0.00  0.00    +0.000 OA
ENDBRANCH  11  14
ENDBRANCH   6   8
BRANCH   1  18
ATOM     18  C   UNL     1      43.816   5.038  11.291  0.00  0.00    +0.000 C 
ATOM     19  C   UNL     1      42.468   5.301  11.962  0.00  0.00    +0.000 C 
ATOM     20  C   UNL     1      43.039   6.317  11.037  0.00  0.00    +0.000 C 
BRANCH  18  21
ATOM     21  O   UNL     1      43.724   3.878  10.438  0.00  0.00    +0.000 OA
BRANCH  21  26
ATOM     22  C   UNL     1      47.096   2.346   6.342  0.00  0.00    +0.000 C 
ATOM     23  C   UNL     1      46.354   2.812   7.552  0.00  0.00    +0.000 A 
ATOM     24  C   UNL     1      46.029   4.153   7.738  0.00  0.00    +0.000 A 
ATOM     25  N   UNL     1      45.225   4.590   8.738  0.00  0.00    +0.000 NA
ATOM     26  C   UNL     1      44.744   3.622   9.545  0.00  0.00    +0.000 A 
ATOM     27  C   UNL     1      45.116   2.292   9.408  0.00  0.00    +0.000 A 
ATOM     28  N   UNL     1      45.929   1.857   8.417  0.00  0.00    +0.000 NA
ENDBRANCH  21  26
ENDBRANCH  18  21
ENDBRANCH   1  18
TORSDOF 5
ENDMDL
MODEL 3
REMARK VINA RESULT:    -7.442      3.566      8.080
REMARK INTER + INTRA:         -10.258
REMARK INTER:                 -10.403
REMARK INTRA:                   0.145
REMARK UNBOUND:                -0.641
REMARK  Name = 
REMARK  7 active torsions:
REMARK  status: ('A' for Active; 'I' for Inactive)
REMARK    1  A    between atoms: C_1  and  C_2
REMARK    2  A    between atoms: C_5  and  O_6
REMARK    3  A    between atoms: O_6  and  C_7
REMARK    4  A    between atoms: C_7  and  C_8
REMARK    5  A    between atoms: C_13  and  C_14
REMARK    6  A    between atoms: N_17  and  S_18
REMARK    7  A    between atoms: S_18  and  C_19
REMARK                            x       y       z     vdW  Elec       q    Type
REMARK                         _______ _______ _______ _____ _____    ______ ____
ROOT
ATOM      1  C   UNL     1      44.761   5.695  11.595  0.00  0.00    +0.000 A 
ATOM      2  C   UNL     1      44.959   7.029  11.215  0.00  0.00    +0.000 A 
ATOM      3  C   UNL     1      45.916   7.811  11.846  0.00  0.00    +0.000 A 
ATOM      4  F   UNL     1      46.056   9.095  11.492  0.00  0.00    +0.000 F 
ATOM      5  C   UNL     1      46.712   7.292  12.864  0.00  0.00    +0.000 A 
ATOM      6  C   UNL     1      46.578   5.955  13.244  0.00  0.00    +0.000 A 
ATOM      7  C   UNL     1      45.610   5.174  12.591  0.00  0.00    +0.000 A 
ENDROOT
BRANCH   6   8
ATOM      8  C   UNL     1      47.353   5.396  14.370  0.00  0.00    +0.000 C 
ATOM      9  C   UNL     1      47.044   4.217  14.940  0.00  0.00    +0.000 C 
ATOM     10  C   UNL     1      47.724   3.621  16.135  0.00  0.00    +0.000 C 
ATOM     11  N   UNL     1      48.788   4.481  16.692  0.00  0.00    +0.000 NA
ATOM     12  C   UNL     1      48.690   5.932  16.409  0.00  0.00    +0.000 C 
ATOM     13  C   UNL     1      48.501   6.201  14.922  0.00  0.00    +0.000 C 
BRANCH  11  14
ATOM     14  S   UNL     1      49.309   4.056  18.249  0.00  0.00    +0.000 S 
ATOM     15  C   UNL     1      48.998   5.549  19.184  0.00  0.00    +0.000 C 
ATOM     16  O   UNL     1      48.437   3.022  18.750  0.00  0.00    +0.000 OA
ATOM     17  O   UNL     1      50.749   3.871  18.200  0.00  0.00    +0.000 OA
ENDBRANCH  11  14
ENDBRANCH   6   8
BRANCH   1  18
ATOM     18  C   UNL     1      43.651   4.874  10.979  0.00  0.00    +0.000 C 
ATOM     19  C   UNL     1      43.177   3.586  11.653  0.00  0.00    +0.000 C 
ATOM     20  C   UNL     1      42.340   4.813  11.743  0.00  0.00    +0.000 C 
BRANCH  18  21
ATOM     21  O   UNL     1      43.741   4.679   9.553  0.00  0.00    +0.000 OA
BRANCH  21  26
ATOM     22  C   UNL     1      47.453   1.586   6.880  0.00  0.00    +0.000 C 
ATOM     23  C   UNL     1      46.598   2.461   7.738  0.00  0.00    +0.000 A 
ATOM     24  C   UNL     1      46.594   3.846   7.593  0.00  0.00    +0.000 A 
ATOM     25  N   UNL     1      45.722   4.657   8.239  0.00  0.00    +0.000 NA
ATOM     26  C   UNL     1      44.837   4.021   9.035  0.00  0.00    +0.000 A 
ATOM     27  C   UNL     1      44.877   2.649   9.238  0.00  0.00    +0.000 A 
ATOM     28  N   UNL     1      45.756   1.840   8.601  0.00  0.00    +0.000 NA
ENDBRANCH  21  26
ENDBRANCH  18  21
ENDBRANCH   1  18
TORSDOF 5
ENDMDL
MODEL 4
REMARK VINA RESULT:    -7.008      4.344      6.287
REMARK INTER + INTRA:          -9.697
REMARK INTER:                  -8.979
REMARK INTRA:                  -0.718
REMARK UNBOUND:                -0.641
REMARK  Name = 
REMARK  7 active torsions:
REMARK  status: ('A' for Active; 'I' for Inactive)
REMARK    1  A    between atoms: C_1  and  C_2
REMARK    2  A    between atoms: C_5  and  O_6
REMARK    3  A    between atoms: O_6  and  C_7
REMARK    4  A    between atoms: C_7  and  C_8
REMARK    5  A    between atoms: C_13  and  C_14
REMARK    6  A    between atoms: N_17  and  S_18
REMARK    7  A    between atoms: S_18  and  C_19
REMARK                            x       y       z     vdW  Elec       q    Type
REMARK                         _______ _______ _______ _____ _____    ______ ____
ROOT
ATOM      1  C   UNL     1      49.321   6.717  16.203  0.00  0.00    +0.000 A 
ATOM      2  C   UNL     1      50.304   7.492  15.574  0.00  0.00    +0.000 A 
ATOM      3  C   UNL     1      50.261   7.718  14.206  0.00  0.00    +0.000 A 
ATOM      4  F   UNL     1      51.236   8.428  13.624  0.00  0.00    +0.000 F 
ATOM      5  C   UNL     1      49.238   7.193  13.422  0.00  0.00    +0.000 A 
ATOM      6  C   UNL     1      48.213   6.450  14.014  0.00  0.00    +0.000 A 
ATOM      7  C   UNL     1      48.266   6.236  15.401  0.00  0.00    +0.000 A 
ENDROOT
BRANCH   6   8
ATOM      8  C   UNL     1      47.156   5.816  13.200  0.00  0.00    +0.000 C 
ATOM      9  C   UNL     1      46.803   6.288  11.989  0.00  0.00    +0.000 C 
ATOM     10  C   UNL     1      45.690   5.757  11.138  0.00  0.00    +0.000 C 
ATOM     11  N   UNL     1      44.947   4.648  11.771  0.00  0.00    +0.000 NA
ATOM     12  C   UNL     1      44.993   4.573  13.250  0.00  0.00    +0.000 C 
ATOM     13  C   UNL     1      46.423   4.631  13.769  0.00  0.00    +0.000 C 
BRANCH  11  14
ATOM     14  S   UNL     1      43.456   4.283  11.049  0.00  0.00    +0.000 S 
ATOM     15  C   UNL     1      42.358   5.480  11.796  0.00  0.00    +0.000 C 
ATOM     16  O   UNL     1      43.552   4.579   9.640  0.00  0.00    +0.000 OA
ATOM     17  O   UNL     1      43.046   2.971  11.519  0.00  0.00    +0.000 OA
ENDBRANCH  11  14
ENDBRANCH   6   8
BRANCH   1  18
ATOM     18  C   UNL     1      49.422   6.385  17.674  0.00  0.00    +0.000 C 
ATOM     19  C   UNL     1      48.821   7.321  18.721  0.00  0.00    +0.000 C 
ATOM     20  C   UNL     1      48.127   6.047  18.391  0.00  0.00    +0.000 C 
BRANCH  18  21
ATOM     21  O   UNL     1      50.712   5.915  18.116  0.00  0.00    +0.000 OA
BRANCH  21  26
ATOM     22  C   UNL     1      52.460   0.690  17.743  0.00  0.00    +0.000 C 
ATOM     23  C   UNL     1      52.015   2.112  17.641  0.00  0.00    +0.000 A 
ATOM     24  C   UNL     1      50.701   2.444  17.319  0.00  0.00    +0.000 A 
ATOM     25  N   UNL     1      50.222   3.711  17.372  0.00  0.00    +0.000 NA
ATOM     26  C   UNL     1      51.114   4.640  17.774  0.00  0.00    +0.000 A 
ATOM     27  C   UNL     1      52.442   4.329  18.031  0.00  0.00    +0.000 A 
ATOM     28  N   UNL     1      52.923   3.065  17.967  0.00  0.00    +0.000 NA
ENDBRANCH  21  26
ENDBRANCH  18  21
ENDBRANCH   1  18
TORSDOF 5
ENDMDL
MODEL 5
REMARK VINA RESULT:    -6.641      4.151      5.700
REMARK INTER + INTRA:          -9.223
REMARK INTER:                  -8.419
REMARK INTRA:                  -0.805
REMARK UNBOUND:                -0.641
REMARK  Name = 
REMARK  7 active torsions:
REMARK  status: ('A' for Active; 'I' for Inactive)
REMARK    1  A    between atoms: C_1  and  C_2
REMARK    2  A    between atoms: C_5  and  O_6
REMARK    3  A    between atoms: O_6  and  C_7
REMARK    4  A    between atoms: C_7  and  C_8
REMARK    5  A    between atoms: C_13  and  C_14
REMARK    6  A    between atoms: N_17  and  S_18
REMARK    7  A    between atoms: S_18  and  C_19
REMARK                            x       y       z     vdW  Elec       q    Type
REMARK                         _______ _______ _______ _____ _____    ______ ____
ROOT
ATOM      1  C   UNL     1      49.315   8.274  15.149  0.00  0.00    +0.000 A 
ATOM      2  C   UNL     1      50.433   8.586  14.365  0.00  0.00    +0.000 A 
ATOM      3  C   UNL     1      50.531   8.131  13.058  0.00  0.00    +0.000 A 
ATOM      4  F   UNL     1      51.629   8.408  12.343  0.00  0.00    +0.000 F 
ATOM      5  C   UNL     1      49.520   7.363  12.485  0.00  0.00    +0.000 A 
ATOM      6  C   UNL     1      48.368   7.065  13.218  0.00  0.00    +0.000 A 
ATOM      7  C   UNL     1      48.281   7.539  14.537  0.00  0.00    +0.000 A 
ENDROOT
BRANCH   6   8
ATOM      8  C   UNL     1      47.314   6.190  12.666  0.00  0.00    +0.000 C 
ATOM      9  C   UNL     1      46.667   6.481  11.522  0.00  0.00    +0.000 C 
ATOM     10  C   UNL     1      45.532   5.694  10.939  0.00  0.00    +0.000 C 
ATOM     11  N   UNL     1      45.132   4.540  11.770  0.00  0.00    +0.000 NA
ATOM     12  C   UNL     1      45.460   4.612  13.213  0.00  0.00    +0.000 C 
ATOM     13  C   UNL     1      46.926   4.957  13.437  0.00  0.00    +0.000 C 
BRANCH  11  14
ATOM     14  S   UNL     1      43.626   3.865  11.378  0.00  0.00    +0.000 S 
ATOM     15  C   UNL     1      42.500   5.218  11.688  0.00  0.00    +0.000 C 
ATOM     16  O   UNL     1      43.612   3.584   9.963  0.00  0.00    +0.000 OA
ATOM     17  O   UNL     1      43.336   2.831  12.356  0.00  0.00    +0.000 OA
ENDBRANCH  11  14
ENDBRANCH   6   8
BRANCH   1  18
ATOM     18  C   UNL     1      49.254   8.682  16.604  0.00  0.00    +0.000 C 
ATOM     19  C   UNL     1      49.492  10.136  17.009  0.00  0.00    +0.000 C 
ATOM     20  C   UNL     1      48.108   9.590  17.012  0.00  0.00    +0.000 C 
BRANCH  18  21
ATOM     21  O   UNL     1      49.925   7.797  17.525  0.00  0.00    +0.000 OA
BRANCH  21  26
ATOM     22  C   UNL     1      47.279   2.950  17.551  0.00  0.00    +0.000 C 
ATOM     23  C   UNL     1      48.108   4.185  17.696  0.00  0.00    +0.000 A 
ATOM     24  C   UNL     1      49.339   4.316  17.059  0.00  0.00    +0.000 A 
ATOM     25  N   UNL     1      50.044   5.473  17.037  0.00  0.00    +0.000 NA
ATOM     26  C   UNL     1      49.457   6.508  17.675  0.00  0.00    +0.000 A 
ATOM     27  C   UNL     1      48.264   6.368  18.370  0.00  0.00    +0.000 A 
ATOM     28  N   UNL     1      47.566   5.209  18.401  0.00  0.00    +0.000 NA
ENDBRANCH  21  26
ENDBRANCH  18  21
ENDBRANCH   1  18
TORSDOF 5
ENDMDL
MODEL 6
REMARK VINA RESULT:    -6.110      4.220      6.415
REMARK INTER + INTRA:          -8.537
REMARK INTER:                  -7.691
REMARK INTRA:                  -0.846
REMARK UNBOUND:                -0.641
REMARK  Name = 
REMARK  7 active torsions:
REMARK  status: ('A' for Active; 'I' for Inactive)
REMARK    1  A    between atoms: C_1  and  C_2
REMARK    2  A    between atoms: C_5  and  O_6
REMARK    3  A    between atoms: O_6  and  C_7
REMARK    4  A    between atoms: C_7  and  C_8
REMARK    5  A    between atoms: C_13  and  C_14
REMARK    6  A    between atoms: N_17  and  S_18
REMARK    7  A    between atoms: S_18  and  C_19
REMARK                            x       y       z     vdW  Elec       q    Type
REMARK                         _______ _______ _______ _____ _____    ______ ____
ROOT
ATOM      1  C   UNL     1      49.245   5.981  16.617  0.00  0.00    +0.000 A 
ATOM      2  C   UNL     1      49.071   5.017  17.617  0.00  0.00    +0.000 A 
ATOM      3  C   UNL     1      48.163   3.981  17.454  0.00  0.00    +0.000 A 
ATOM      4  F   UNL     1      47.985   3.097  18.443  0.00  0.00    +0.000 F 
ATOM      5  C   UNL     1      47.408   3.864  16.289  0.00  0.00    +0.000 A 
ATOM      6  C   UNL     1      47.582   4.779  15.247  0.00  0.00    +0.000 A 
ATOM      7  C   UNL     1      48.511   5.817  15.426  0.00  0.00    +0.000 A 
ENDROOT
BRANCH   6   8
ATOM      8  C   UNL     1      46.743   4.725  14.033  0.00  0.00    +0.000 C 
ATOM      9  C   UNL     1      46.028   5.783  13.608  0.00  0.00    +0.000 C 
ATOM     10  C   UNL     1      45.091   5.788  12.438  0.00  0.00    +0.000 C 
ATOM     11  N   UNL     1      44.976   4.474  11.774  0.00  0.00    +0.000 NA
ATOM     12  C   UNL     1      45.304   3.283  12.593  0.00  0.00    +0.000 C 
ATOM     13  C   UNL     1      46.657   3.427  13.275  0.00  0.00    +0.000 C 
BRANCH  11  14
ATOM     14  S   UNL     1      43.656   4.317  10.721  0.00  0.00    +0.000 S 
ATOM     15  C   UNL     1      44.449   4.144   9.127  0.00  0.00    +0.000 C 
ATOM     16  O   UNL     1      42.980   3.079  11.024  0.00  0.00    +0.000 OA
ATOM     17  O   UNL     1      42.944   5.583  10.712  0.00  0.00    +0.000 OA
ENDBRANCH  11  14
ENDBRANCH   6   8
BRANCH   1  18
ATOM     18  C   UNL     1      50.159   7.166  16.836  0.00  0.00    +0.000 C 
ATOM     19  C   UNL     1      51.610   7.122  16.359  0.00  0.00    +0.000 C 
ATOM     20  C   UNL     1      50.611   7.920  15.599  0.00  0.00    +0.000 C 
BRANCH  18  21
ATOM     21  O   UNL     1      50.088   7.770  18.144  0.00  0.00    +0.000 OA
BRANCH  21  26
ATOM     22  C   UNL     1      46.083  10.847  20.378  0.00  0.00    +0.000 C 
ATOM     23  C   UNL     1      47.023   9.947  19.644  0.00  0.00    +0.000 A 
ATOM     24  C   UNL     1      47.661  10.355  18.475  0.00  0.00    +0.000 A 
ATOM     25  N   UNL     1      48.635   9.632  17.870  0.00  0.00    +0.000 NA
ATOM     26  C   UNL     1      48.957   8.479  18.493  0.00  0.00    +0.000 A 
ATOM     27  C   UNL     1      48.280   8.032  19.620  0.00  0.00    +0.000 A 
ATOM     28  N   UNL     1      47.299   8.749  20.217  0.00  0.00    +0.000 NA
ENDBRANCH  21  26
ENDBRANCH  18  21
ENDBRANCH   1  18
TORSDOF 5
ENDMDL
MODEL 7
REMARK VINA RESULT:    -5.955      5.009      8.745
REMARK INTER + INTRA:          -8.337
REMARK INTER:                  -7.569
REMARK INTRA:                  -0.768
REMARK UNBOUND:                -0.641
REMARK  Name = 
REMARK  7 active torsions:
REMARK  status: ('A' for Active; 'I' for Inactive)
REMARK    1  A    between atoms: C_1  and  C_2
REMARK    2  A    between atoms: C_5  and  O_6
REMARK    3  A    between atoms: O_6  and  C_7
REMARK    4  A    between atoms: C_7  and  C_8
REMARK    5  A    between atoms: C_13  and  C_14
REMARK    6  A    between atoms: N_17  and  S_18
REMARK    7  A    between atoms: S_18  and  C_19
REMARK                            x       y       z     vdW  Elec       q    Type
REMARK                         _______ _______ _______ _____ _____    ______ ____
ROOT
ATOM      1  C   UNL     1      48.585   7.739  14.486  0.00  0.00    +0.000 A 
ATOM      2  C   UNL     1      48.075   8.767  15.289  0.00  0.00    +0.000 A 
ATOM      3  C   UNL     1      48.420   8.857  16.630  0.00  0.00    +0.000 A 
ATOM      4  F   UNL     1      47.886   9.825  17.385  0.00  0.00    +0.000 F 
ATOM      5  C   UNL     1      49.288   7.938  17.213  0.00  0.00    +0.000 A 
ATOM      6  C   UNL     1      49.854   6.922  16.438  0.00  0.00    +0.000 A 
ATOM      7  C   UNL     1      49.501   6.849  15.081  0.00  0.00    +0.000 A 
ENDROOT
BRANCH   6   8
ATOM      8  C   UNL     1      50.718   5.888  17.043  0.00  0.00    +0.000 C 
ATOM      9  C   UNL     1      52.062   5.956  16.993  0.00  0.00    +0.000 C 
ATOM     10  C   UNL     1      53.007   4.912  17.506  0.00  0.00    +0.000 C 
ATOM     11  N   UNL     1      52.323   3.727  18.065  0.00  0.00    +0.000 NA
ATOM     12  C   UNL     1      50.948   3.462  17.583  0.00  0.00    +0.000 C 
ATOM     13  C   UNL     1      50.066   4.698  17.697  0.00  0.00    +0.000 C 
BRANCH  11  14
ATOM     14  S   UNL     1      53.314   2.369  18.286  0.00  0.00    +0.000 S 
ATOM     15  C   UNL     1      54.764   2.785  17.326  0.00  0.00    +0.000 C 
ATOM     16  O   UNL     1      53.697   2.310  19.676  0.00  0.00    +0.000 OA
ATOM     17  O   UNL     1      52.674   1.242  17.631  0.00  0.00    +0.000 OA
ENDBRANCH  11  14
ENDBRANCH   6   8
BRANCH   1  18
ATOM     18  C   UNL     1      48.131   7.580  13.053  0.00  0.00    +0.000 C 
ATOM     19  C   UNL     1      48.765   8.418  11.943  0.00  0.00    +0.000 C 
ATOM     20  C   UNL     1      49.131   6.983  12.080  0.00  0.00    +0.000 C 
BRANCH  18  21
ATOM     21  O   UNL     1      46.703   7.506  12.860  0.00  0.00    +0.000 OA
BRANCH  21  26
ATOM     22  C   UNL     1      43.660   2.995  11.920  0.00  0.00    +0.000 C 
ATOM     23  C   UNL     1      44.640   4.108  12.097  0.00  0.00    +0.000 A 
ATOM     24  C   UNL     1      44.937   4.991  11.062  0.00  0.00    +0.000 A 
ATOM     25  N   UNL     1      45.695   6.101  11.228  0.00  0.00    +0.000 NA
ATOM     26  C   UNL     1      46.140   6.303  12.485  0.00  0.00    +0.000 A 
ATOM     27  C   UNL     1      45.907   5.394  13.508  0.00  0.00    +0.000 A 
ATOM     28  N   UNL     1      45.159   4.279  13.339  0.00  0.00    +0.000 NA
ENDBRANCH  21  26
ENDBRANCH  18  21
ENDBRANCH   1  18
TORSDOF 5
ENDMDL
MODEL 8
REMARK VINA RESULT:    -5.850      4.752      8.705
REMARK INTER + INTRA:          -8.201
REMARK INTER:                  -7.462
REMARK INTRA:                  -0.740
REMARK UNBOUND:                -0.641
REMARK  Name = 
REMARK  7 active torsions:
REMARK  status: ('A' for Active; 'I' for Inactive)
REMARK    1  A    between atoms: C_1  and  C_2
REMARK    2  A    between atoms: C_5  and  O_6
REMARK    3  A    between atoms: O_6  and  C_7
REMARK    4  A    between atoms: C_7  and  C_8
REMARK    5  A    between atoms: C_13  and  C_14
REMARK    6  A    between atoms: N_17  and  S_18
REMARK    7  A    between atoms: S_18  and  C_19
REMARK                            x       y       z     vdW  Elec       q    Type
REMARK                         _______ _______ _______ _____ _____    ______ ____
ROOT
ATOM      1  C   UNL     1      46.901   7.493  12.668  0.00  0.00    +0.000 A 
ATOM      2  C   UNL     1      47.859   7.824  11.701  0.00  0.00    +0.000 A 
ATOM      3  C   UNL     1      49.213   7.691  11.971  0.00  0.00    +0.000 A 
ATOM      4  F   UNL     1      50.109   8.054  11.044  0.00  0.00    +0.000 F 
ATOM      5  C   UNL     1      49.659   7.217  13.202  0.00  0.00    +0.000 A 
ATOM      6  C   UNL     1      48.737   6.834  14.179  0.00  0.00    +0.000 A 
ATOM      7  C   UNL     1      47.369   6.967  13.888  0.00  0.00    +0.000 A 
ENDROOT
BRANCH   6   8
ATOM      8  C   UNL     1      49.177   6.399  15.521  0.00  0.00    +0.000 C 
ATOM      9  C   UNL     1      48.443   5.567  16.282  0.00  0.00    +0.000 C 
ATOM     10  C   UNL     1      48.776   5.144  17.681  0.00  0.00    +0.000 C 
ATOM     11  N   UNL     1      50.009   5.768  18.203  0.00  0.00    +0.000 NA
ATOM     12  C   UNL     1      50.423   7.048  17.583  0.00  0.00    +0.000 C 
ATOM     13  C   UNL     1      50.470   6.946  16.065  0.00  0.00    +0.000 C 
BRANCH  11  14
ATOM     14  S   UNL     1      50.215   5.648  19.882  0.00  0.00    +0.000 S 
ATOM     15  C   UNL     1      48.816   4.650  20.375  0.00  0.00    +0.000 C 
ATOM     16  O   UNL     1      51.418   4.893  20.137  0.00  0.00    +0.000 OA
ATOM     17  O   UNL     1      50.020   6.971  20.448  0.00  0.00    +0.000 OA
ENDBRANCH  11  14
ENDBRANCH   6   8
BRANCH   1  18
ATOM     18  C   UNL     1      45.430   7.733  12.412  0.00  0.00    +0.000 C 
ATOM     19  C   UNL     1      44.826   9.122  12.616  0.00  0.00    +0.000 C 
ATOM     20  C   UNL     1      45.076   8.626  11.236  0.00  0.00    +0.000 C 
BRANCH  18  21
ATOM     21  O   UNL     1      44.538   6.726  12.932  0.00  0.00    +0.000 OA
BRANCH  21  26
ATOM     22  C   UNL     1      44.597   2.381   9.525  0.00  0.00    +0.000 C 
ATOM     23  C   UNL     1      44.437   3.455  10.551  0.00  0.00    +0.000 A 
ATOM     24  C   UNL     1      45.124   3.415  11.762  0.00  0.00    +0.000 A 
ATOM     25  N   UNL     1      45.128   4.441  12.647  0.00  0.00    +0.000 NA
ATOM     26  C   UNL     1      44.421   5.525  12.264  0.00  0.00    +0.000 A 
ATOM     27  C   UNL     1      43.679   5.548  11.092  0.00  0.00    +0.000 A 
ATOM     28  N   UNL     1      43.665   4.518  10.214  0.00  0.00    +0.000 NA
ENDBRANCH  21  26
ENDBRANCH  18  21
ENDBRANCH   1  18
TORSDOF 5
ENDMDL
MODEL 9
REMARK VINA RESULT:    -5.766      4.150      7.388
REMARK INTER + INTRA:          -8.092
REMARK INTER:                  -8.539
REMARK INTRA:                   0.447
REMARK UNBOUND:                -0.641
REMARK  Name = 
REMARK  7 active torsions:
REMARK  status: ('A' for Active; 'I' for Inactive)
REMARK    1  A    between atoms: C_1  and  C_2
REMARK    2  A    between atoms: C_5  and  O_6
REMARK    3  A    between atoms: O_6  and  C_7
REMARK    4  A    between atoms: C_7  and  C_8
REMARK    5  A    between atoms: C_13  and  C_14
REMARK    6  A    between atoms: N_17  and  S_18
REMARK    7  A    between atoms: S_18  and  C_19
REMARK                            x       y       z     vdW  Elec       q    Type
REMARK                         _______ _______ _______ _____ _____    ______ ____
ROOT
ATOM      1  C   UNL     1      46.028   6.620  12.381  0.00  0.00    +0.000 A 
ATOM      2  C   UNL     1      45.116   7.673  12.529  0.00  0.00    +0.000 A 
ATOM      3  C   UNL     1      45.529   8.992  12.402  0.00  0.00    +0.000 A 
ATOM      4  F   UNL     1      44.646   9.980  12.589  0.00  0.00    +0.000 F 
ATOM      5  C   UNL     1      46.854   9.306  12.113  0.00  0.00    +0.000 A 
ATOM      6  C   UNL     1      47.788   8.286  11.914  0.00  0.00    +0.000 A 
ATOM      7  C   UNL     1      47.353   6.956  12.039  0.00  0.00    +0.000 A 
ENDROOT
BRANCH   6   8
ATOM      8  C   UNL     1      49.215   8.587  11.683  0.00  0.00    +0.000 C 
ATOM      9  C   UNL     1      49.653   9.833  11.422  0.00  0.00    +0.000 C 
ATOM     10  C   UNL     1      51.066  10.210  11.094  0.00  0.00    +0.000 C 
ATOM     11  N   UNL     1      51.982   9.053  11.039  0.00  0.00    +0.000 NA
ATOM     12  C   UNL     1      51.372   7.731  10.763  0.00  0.00    +0.000 C 
ATOM     13  C   UNL     1      50.202   7.450  11.696  0.00  0.00    +0.000 C 
BRANCH  11  14
ATOM     14  S   UNL     1      53.474   9.358  10.293  0.00  0.00    +0.000 S 
ATOM     15  C   UNL     1      53.363   8.393   8.791  0.00  0.00    +0.000 C 
ATOM     16  O   UNL     1      53.519  10.754   9.927  0.00  0.00    +0.000 OA
ATOM     17  O   UNL     1      54.511   8.759  11.113  0.00  0.00    +0.000 OA
ENDBRANCH  11  14
ENDBRANCH   6   8
BRANCH   1  18
ATOM     18  C   UNL     1      45.601   5.190  12.620  0.00  0.00    +0.000 C 
ATOM     19  C   UNL     1      46.647   4.085  12.766  0.00  0.00    +0.000 C 
ATOM     20  C   UNL     1      45.940   4.591  13.973  0.00  0.00    +0.000 C 
BRANCH  18  21
ATOM     21  O   UNL     1      44.505   4.725  11.806  0.00  0.00    +0.000 OA
BRANCH  21  26
ATOM     22  C   UNL     1      46.507   3.135   6.911  0.00  0.00    +0.000 C 
ATOM     23  C   UNL     1      45.782   3.570   8.143  0.00  0.00    +0.000 A 
ATOM     24  C   UNL     1      45.157   2.653   8.984  0.00  0.00    +0.000 A 
ATOM     25  N   UNL     1      44.629   2.989  10.186  0.00  0.00    +0.000 NA
ATOM     26  C   UNL     1      44.762   4.289  10.522  0.00  0.00    +0.000 A 
ATOM     27  C   UNL     1      45.323   5.222   9.661  0.00  0.00    +0.000 A 
ATOM     28  N   UNL     1      45.840   4.889   8.456  0.00  0.00    +0.000 NA
ENDBRANCH  21  26
ENDBRANCH  18  21
ENDBRANCH   1  18
TORSDOF 5
ENDMDL
