MODEL 1
REMARK VINA RESULT:    -7.085      0.000      0.000
REMARK INTER + INTRA:         -11.322
REMARK INTER:                 -10.399
REMARK INTRA:                  -0.923
REMARK UNBOUND:                -0.923
REMARK  Name = 
REMARK  10 active torsions:
REMARK  status: ('A' for Active; 'I' for Inactive)
REMARK    1  A    between atoms: C_1  and  C_2
REMARK    2  A    between atoms: C_2  and  C_3
REMARK    3  A    between atoms: C_3  and  C_4
REMARK    4  A    between atoms: C_3  and  C_16
REMARK    5  A    between atoms: C_4  and  O_5
REMARK    6  A    between atoms: O_5  and  C_6
REMARK    7  A    between atoms: C_9  and  C_10
REMARK    8  A    between atoms: C_20  and  O_21
REMARK    9  A    between atoms: O_21  and  C_22
REMARK   10  A    between atoms: N_24  and  C_25
REMARK                            x       y       z     vdW  Elec       q    Type
REMARK                         _______ _______ _______ _____ _____    ______ ____
ROOT
ATOM      1  C   UNL     1      44.380   4.636  12.078  0.00  0.00    +0.000 C 
ENDROOT
BRANCH   1   2
ATOM      2  C   UNL     1      45.623   5.176  12.809  0.00  0.00    +0.000 A 
ATOM      3  C   UNL     1      46.112   6.479  12.610  0.00  0.00    +0.000 A 
ATOM      4  C   UNL     1      47.183   6.981  13.349  0.00  0.00    +0.000 A 
ATOM      5  C   UNL     1      47.811   6.188  14.303  0.00  0.00    +0.000 A 
ATOM      6  C   UNL     1      47.378   4.880  14.497  0.00  0.00    +0.000 A 
ATOM      7  C   UNL     1      46.283   4.388  13.772  0.00  0.00    +0.000 A 
BRANCH   6   8
ATOM      8  O   UNL     1      47.938   4.010  15.402  0.00  0.00    +0.000 OA
BRANCH   8   9
ATOM      9  C   UNL     1      48.167   4.476  16.755  0.00  0.00    +0.000 C 
ATOM     10  C   UNL     1      49.496   4.082  17.439  0.00  0.00    +0.000 C 
ATOM     11  N   UNL     1      48.762   3.526  18.590  0.00  0.00    +0.000 NA
ATOM     12  C   UNL     1      48.801   4.448  19.723  0.00  0.00    +0.000 C 
ATOM     13  C   UNL     1      47.485   3.646  17.865  0.00  0.00    +0.000 C 
ENDBRANCH   8   9
ENDBRANCH   6   8
ENDBRANCH   1   2
BRANCH   1  15
ATOM     14  C   UNL     1      42.177   5.991  11.904  0.00  0.00    +0.000 C 
ATOM     15  C   UNL     1      43.061   5.089  12.759  0.00  0.00    +0.000 C 
ENDBRANCH   1  15
BRANCH   1  16
ATOM     16  C   UNL     1      44.420   3.105  11.809  0.00  0.00    +0.000 C 
BRANCH  16  17
ATOM     17  O   UNL     1      44.042   2.832  10.461  0.00  0.00    +0.000 OA
BRANCH  17  18
ATOM     18  C   UNL     1      44.948   2.895   9.443  0.00  0.00    +0.000 A 
ATOM     19  C   UNL     1      45.307   1.620   8.980  0.00  0.00    +0.000 A 
ATOM     20  C   UNL     1      46.149   1.468   7.880  0.00  0.00    +0.000 A 
ATOM     21  C   UNL     1      46.624   2.616   7.270  0.00  0.00    +0.000 A 
ATOM     22  N   UNL     1      46.352   3.869   7.708  0.00  0.00    +0.000 NA
ATOM     23  C   UNL     1      45.532   3.978   8.785  0.00  0.00    +0.000 A 
ATOM     24 CL   UNL     1      45.338   5.636   9.202  0.00  0.00    +0.000 Cl
BRANCH  21  25
ATOM     25  C   UNL     1      47.455   2.511   6.027  0.00  0.00    +0.000 C 
ATOM     26  N   UNL     1      48.804   2.403   6.240  0.00  0.00    +0.000 N 
ATOM     27  O   UNL     1      46.976   2.539   4.905  0.00  0.00    +0.000 OA
ATOM     28  H   UNL     1      49.167   2.420   7.187  0.00  0.00    +0.000 HD
ATOM     29  H   UNL     1      49.435   2.380   5.452  0.00  0.00    +0.000 HD
ENDBRANCH  21  25
ENDBRANCH  17  18
ENDBRANCH  16  17
ENDBRANCH   1  16
TORSDOF 8
ENDMDL
MODEL 2
REMARK VINA RESULT:    -7.031      2.158      8.341
REMARK INTER + INTRA:         -11.242
REMARK INTER:                 -10.195
REMARK INTRA:                  -1.048
REMARK UNBOUND:                -0.923
REMARK  Name = 
REMARK  10 active torsions:
REMARK  status: ('A' for Active; 'I' for Inactive)
REMARK    1  A    between atoms: C_1  and  C_2
REMARK    2  A    between atoms: C_2  and  C_3
REMARK    3  A    between atoms: C_3  and  C_4
REMARK    4  A    between atoms: C_3  and  C_16
REMARK    5  A    between atoms: C_4  and  O_5
REMARK    6  A    between atoms: O_5  and  C_6
REMARK    7  A    between atoms: C_9  and  C_10
REMARK    8  A    between atoms: C_20  and  O_21
REMARK    9  A    between atoms: O_21  and  C_22
REMARK   10  A    between atoms: N_24  and  C_25
REMARK                            x       y       z     vdW  Elec       q    Type
REMARK                         _______ _______ _______ _____ _____    ______ ____
ROOT
ATOM      1  C   UNL     1      45.348   7.132  11.843  0.00  0.00    +0.000 C 
ENDROOT
BRANCH   1   2
ATOM      2  C   UNL     1      45.031   5.932  10.932  0.00  0.00    +0.000 A 
ATOM      3  C   UNL     1      43.930   5.085  11.150  0.00  0.00    +0.000 A 
ATOM      4  C   UNL     1      43.607   4.059  10.262  0.00  0.00    +0.000 A 
ATOM      5  C   UNL     1      44.386   3.837   9.132  0.00  0.00    +0.000 A 
ATOM      6  C   UNL     1      45.506   4.631   8.907  0.00  0.00    +0.000 A 
ATOM      7  C   UNL     1      45.812   5.679   9.788  0.00  0.00    +0.000 A 
BRANCH   6   8
ATOM      8  O   UNL     1      46.349   4.485   7.832  0.00  0.00    +0.000 OA
BRANCH   8   9
ATOM      9  C   UNL     1      46.280   3.258   7.063  0.00  0.00    +0.000 C 
ATOM     10  C   UNL     1      47.355   2.179   7.327  0.00  0.00    +0.000 C 
ATOM     11  N   UNL     1      47.693   2.137   5.893  0.00  0.00    +0.000 NA
ATOM     12  C   UNL     1      47.101   0.963   5.256  0.00  0.00    +0.000 C 
ATOM     13  C   UNL     1      46.874   3.336   5.640  0.00  0.00    +0.000 C 
ENDBRANCH   8   9
ENDBRANCH   6   8
ENDBRANCH   1   2
BRANCH   1  15
ATOM     14  C   UNL     1      45.348   9.723  11.731  0.00  0.00    +0.000 C 
ATOM     15  C   UNL     1      44.629   8.425  11.373  0.00  0.00    +0.000 C 
ENDBRANCH   1  15
BRANCH   1  16
ATOM     16  C   UNL     1      46.866   7.349  12.097  0.00  0.00    +0.000 C 
BRANCH  16  17
ATOM     17  O   UNL     1      47.508   6.098  12.338  0.00  0.00    +0.000 OA
BRANCH  17  18
ATOM     18  C   UNL     1      47.443   5.489  13.557  0.00  0.00    +0.000 A 
ATOM     19  C   UNL     1      48.106   6.227  14.548  0.00  0.00    +0.000 A 
ATOM     20  C   UNL     1      48.075   5.825  15.883  0.00  0.00    +0.000 A 
ATOM     21  C   UNL     1      47.377   4.671  16.190  0.00  0.00    +0.000 A 
ATOM     22  N   UNL     1      46.764   3.892  15.265  0.00  0.00    +0.000 NA
ATOM     23  C   UNL     1      46.819   4.313  13.975  0.00  0.00    +0.000 A 
ATOM     24 CL   UNL     1      46.016   3.180  12.960  0.00  0.00    +0.000 Cl
BRANCH  21  25
ATOM     25  C   UNL     1      47.232   4.245  17.620  0.00  0.00    +0.000 C 
ATOM     26  N   UNL     1      47.679   2.980  17.896  0.00  0.00    +0.000 N 
ATOM     27  O   UNL     1      46.736   4.959  18.476  0.00  0.00    +0.000 OA
ATOM     28  H   UNL     1      48.051   2.404  17.148  0.00  0.00    +0.000 HD
ATOM     29  H   UNL     1      47.568   2.601  18.826  0.00  0.00    +0.000 HD
ENDBRANCH  21  25
ENDBRANCH  17  18
ENDBRANCH  16  17
ENDBRANCH   1  16
TORSDOF 8
ENDMDL
MODEL 3
REMARK VINA RESULT:    -6.896      2.369      8.557
REMARK INTER + INTRA:         -11.045
REMARK INTER:                  -9.946
REMARK INTRA:                  -1.099
REMARK UNBOUND:                -0.923
REMARK  Name = 
REMARK  10 active torsions:
REMARK  status: ('A' for Active; 'I' for Inactive)
REMARK    1  A    between atoms: C_1  and  C_2
REMARK    2  A    between atoms: C_2  and  C_3
REMARK    3  A    between atoms: C_3  and  C_4
REMARK    4  A    between atoms: C_3  and  C_16
REMARK    5  A    between atoms: C_4  and  O_5
REMARK    6  A    between atoms: O_5  and  C_6
REMARK    7  A    between atoms: C_9  and  C_10
REMARK    8  A    between atoms: C_20  and  O_21
REMARK    9  A    between atoms: O_21  and  C_22
REMARK   10  A    between atoms: N_24  and  C_25
REMARK                            x       y       z     vdW  Elec       q    Type
REMARK                         _______ _______ _______ _____ _____    ______ ____
ROOT
ATOM      1  C   UNL     1      46.263   5.203  13.689  0.00  0.00    +0.000 C 
ENDROOT
BRANCH   1   2
ATOM      2  C   UNL     1      45.035   4.938  12.799  0.00  0.00    +0.000 A 
ATOM      3  C   UNL     1      43.812   5.608  12.978  0.00  0.00    +0.000 A 
ATOM      4  C   UNL     1      42.739   5.422  12.105  0.00  0.00    +0.000 A 
ATOM      5  C   UNL     1      42.852   4.547  11.032  0.00  0.00    +0.000 A 
ATOM      6  C   UNL     1      44.034   3.838  10.849  0.00  0.00    +0.000 A 
ATOM      7  C   UNL     1      45.119   4.047  11.712  0.00  0.00    +0.000 A 
BRANCH   6   8
ATOM      8  O   UNL     1      44.242   2.938   9.831  0.00  0.00    +0.000 OA
BRANCH   8   9
ATOM      9  C   UNL     1      45.526   2.945   9.157  0.00  0.00    +0.000 C 
ATOM     10  C   UNL     1      45.609   3.622   7.770  0.00  0.00    +0.000 C 
ATOM     11  N   UNL     1      46.191   2.400   7.187  0.00  0.00    +0.000 NA
ATOM     12  C   UNL     1      47.634   2.546   7.011  0.00  0.00    +0.000 C 
ATOM     13  C   UNL     1      45.890   1.641   8.414  0.00  0.00    +0.000 C 
ENDBRANCH   8   9
ENDBRANCH   6   8
ENDBRANCH   1   2
BRANCH   1  15
ATOM     14  C   UNL     1      47.003   7.623  13.127  0.00  0.00    +0.000 C 
ATOM     15  C   UNL     1      47.295   6.132  12.995  0.00  0.00    +0.000 C 
ENDBRANCH   1  15
BRANCH   1  16
ATOM     16  C   UNL     1      46.912   3.914  14.269  0.00  0.00    +0.000 C 
BRANCH  16  17
ATOM     17  O   UNL     1      46.961   3.987  15.693  0.00  0.00    +0.000 OA
BRANCH  17  18
ATOM     18  C   UNL     1      48.149   3.971  16.365  0.00  0.00    +0.000 A 
ATOM     19  C   UNL     1      48.531   2.671  16.723  0.00  0.00    +0.000 A 
ATOM     20  C   UNL     1      49.761   2.428  17.333  0.00  0.00    +0.000 A 
ATOM     21  C   UNL     1      50.582   3.514  17.580  0.00  0.00    +0.000 A 
ATOM     22  N   UNL     1      50.239   4.796  17.303  0.00  0.00    +0.000 NA
ATOM     23  C   UNL     1      49.032   4.994  16.713  0.00  0.00    +0.000 A 
ATOM     24 CL   UNL     1      48.771   6.678  16.475  0.00  0.00    +0.000 Cl
BRANCH  21  25
ATOM     25  C   UNL     1      51.953   3.299  18.146  0.00  0.00    +0.000 C 
ATOM     26  N   UNL     1      52.264   1.996  18.431  0.00  0.00    +0.000 N 
ATOM     27  O   UNL     1      52.732   4.214  18.359  0.00  0.00    +0.000 OA
ATOM     28  H   UNL     1      51.575   1.268  18.274  0.00  0.00    +0.000 HD
ATOM     29  H   UNL     1      53.150   1.776  18.864  0.00  0.00    +0.000 HD
ENDBRANCH  21  25
ENDBRANCH  17  18
ENDBRANCH  16  17
ENDBRANCH   1  16
TORSDOF 8
ENDMDL
MODEL 4
REMARK VINA RESULT:    -6.769      2.260      8.088
REMARK INTER + INTRA:         -10.859
REMARK INTER:                  -9.756
REMARK INTRA:                  -1.103
REMARK UNBOUND:                -0.923
REMARK  Name = 
REMARK  10 active torsions:
REMARK  status: ('A' for Active; 'I' for Inactive)
REMARK    1  A    between atoms: C_1  and  C_2
REMARK    2  A    between atoms: C_2  and  C_3
REMARK    3  A    between atoms: C_3  and  C_4
REMARK    4  A    between atoms: C_3  and  C_16
REMARK    5  A    between atoms: C_4  and  O_5
REMARK    6  A    between atoms: O_5  and  C_6
REMARK    7  A    between atoms: C_9  and  C_10
REMARK    8  A    between atoms: C_20  and  O_21
REMARK    9  A    between atoms: O_21  and  C_22
REMARK   10  A    between atoms: N_24  and  C_25
REMARK                            x       y       z     vdW  Elec       q    Type
REMARK                         _______ _______ _______ _____ _____    ______ ____
ROOT
ATOM      1  C   UNL     1      45.445   7.335  12.228  0.00  0.00    +0.000 C 
ENDROOT
BRANCH   1   2
ATOM      2  C   UNL     1      44.733   5.998  11.948  0.00  0.00    +0.000 A 
ATOM      3  C   UNL     1      43.940   5.348  12.909  0.00  0.00    +0.000 A 
ATOM      4  C   UNL     1      43.229   4.185  12.607  0.00  0.00    +0.000 A 
ATOM      5  C   UNL     1      43.303   3.627  11.337  0.00  0.00    +0.000 A 
ATOM      6  C   UNL     1      44.110   4.223  10.374  0.00  0.00    +0.000 A 
ATOM      7  C   UNL     1      44.802   5.407  10.672  0.00  0.00    +0.000 A 
BRANCH   6   8
ATOM      8  O   UNL     1      44.265   3.745   9.095  0.00  0.00    +0.000 OA
BRANCH   8   9
ATOM      9  C   UNL     1      45.589   3.340   8.665  0.00  0.00    +0.000 C 
ATOM     10  C   UNL     1      45.940   3.491   7.168  0.00  0.00    +0.000 C 
ATOM     11  N   UNL     1      46.339   2.074   7.098  0.00  0.00    +0.000 NA
ATOM     12  C   UNL     1      47.794   1.945   7.116  0.00  0.00    +0.000 C 
ATOM     13  C   UNL     1      45.777   1.825   8.437  0.00  0.00    +0.000 C 
ENDBRANCH   8   9
ENDBRANCH   6   8
ENDBRANCH   1   2
BRANCH   1  15
ATOM     14  C   UNL     1      44.824   9.852  12.152  0.00  0.00    +0.000 C 
ATOM     15  C   UNL     1      44.815   8.508  11.429  0.00  0.00    +0.000 C 
ENDBRANCH   1  15
BRANCH   1  16
ATOM     16  C   UNL     1      46.991   7.271  12.079  0.00  0.00    +0.000 C 
BRANCH  16  17
ATOM     17  O   UNL     1      47.479   6.017  12.554  0.00  0.00    +0.000 OA
BRANCH  17  18
ATOM     18  C   UNL     1      47.723   5.806  13.879  0.00  0.00    +0.000 A 
ATOM     19  C   UNL     1      47.049   4.675  14.363  0.00  0.00    +0.000 A 
ATOM     20  C   UNL     1      47.242   4.232  15.671  0.00  0.00    +0.000 A 
ATOM     21  C   UNL     1      48.110   4.951  16.472  0.00  0.00    +0.000 A 
ATOM     22  N   UNL     1      48.744   6.080  16.073  0.00  0.00    +0.000 NA
ATOM     23  C   UNL     1      48.530   6.484  14.794  0.00  0.00    +0.000 A 
ATOM     24 CL   UNL     1      49.392   7.942  14.493  0.00  0.00    +0.000 Cl
BRANCH  21  25
ATOM     25  C   UNL     1      48.425   4.465  17.855  0.00  0.00    +0.000 C 
ATOM     26  N   UNL     1      47.392   4.553  18.750  0.00  0.00    +0.000 N 
ATOM     27  O   UNL     1      49.523   4.038  18.172  0.00  0.00    +0.000 OA
ATOM     28  H   UNL     1      46.504   4.947  18.456  0.00  0.00    +0.000 HD
ATOM     29  H   UNL     1      47.541   4.293  19.714  0.00  0.00    +0.000 HD
ENDBRANCH  21  25
ENDBRANCH  17  18
ENDBRANCH  16  17
ENDBRANCH   1  16
TORSDOF 8
ENDMDL
MODEL 5
REMARK VINA RESULT:    -6.731      1.504      1.890
REMARK INTER + INTRA:         -10.803
REMARK INTER:                  -9.862
REMARK INTRA:                  -0.941
REMARK UNBOUND:                -0.923
REMARK  Name = 
REMARK  10 active torsions:
REMARK  status: ('A' for Active; 'I' for Inactive)
REMARK    1  A    between atoms: C_1  and  C_2
REMARK    2  A    between atoms: C_2  and  C_3
REMARK    3  A    between atoms: C_3  and  C_4
REMARK    4  A    between atoms: C_3  and  C_16
REMARK    5  A    between atoms: C_4  and  O_5
REMARK    6  A    between atoms: O_5  and  C_6
REMARK    7  A    between atoms: C_9  and  C_10
REMARK    8  A    between atoms: C_20  and  O_21
REMARK    9  A    between atoms: O_21  and  C_22
REMARK   10  A    between atoms: N_24  and  C_25
REMARK                            x       y       z     vdW  Elec       q    Type
REMARK                         _______ _______ _______ _____ _____    ______ ____
ROOT
ATOM      1  C   UNL     1      45.350   6.039  12.077  0.00  0.00    +0.000 C 
ENDROOT
BRANCH   1   2
ATOM      2  C   UNL     1      46.580   6.265  12.976  0.00  0.00    +0.000 A 
ATOM      3  C   UNL     1      47.424   7.381  12.839  0.00  0.00    +0.000 A 
ATOM      4  C   UNL     1      48.478   7.616  13.721  0.00  0.00    +0.000 A 
ATOM      5  C   UNL     1      48.732   6.732  14.763  0.00  0.00    +0.000 A 
ATOM      6  C   UNL     1      47.941   5.596  14.904  0.00  0.00    +0.000 A 
ATOM      7  C   UNL     1      46.865   5.377  14.032  0.00  0.00    +0.000 A 
BRANCH   6   8
ATOM      8  O   UNL     1      48.116   4.653  15.888  0.00  0.00    +0.000 OA
BRANCH   8   9
ATOM      9  C   UNL     1      48.742   5.061  17.131  0.00  0.00    +0.000 C 
ATOM     10  C   UNL     1      49.707   4.066  17.813  0.00  0.00    +0.000 C 
ATOM     11  N   UNL     1      48.950   4.165  19.074  0.00  0.00    +0.000 NA
ATOM     12  C   UNL     1      49.642   5.026  20.028  0.00  0.00    +0.000 C 
ATOM     13  C   UNL     1      47.869   4.902  18.395  0.00  0.00    +0.000 C 
ENDBRANCH   8   9
ENDBRANCH   6   8
ENDBRANCH   1   2
BRANCH   1  15
ATOM     14  C   UNL     1      43.126   5.066  12.987  0.00  0.00    +0.000 C 
ATOM     15  C   UNL     1      44.543   4.782  12.499  0.00  0.00    +0.000 C 
ENDBRANCH   1  15
BRANCH   1  16
ATOM     16  C   UNL     1      45.669   6.063  10.555  0.00  0.00    +0.000 C 
BRANCH  16  17
ATOM     17  O   UNL     1      44.783   5.191   9.854  0.00  0.00    +0.000 OA
BRANCH  17  18
ATOM     18  C   UNL     1      45.253   4.130   9.136  0.00  0.00    +0.000 A 
ATOM     19  C   UNL     1      46.087   4.536   8.084  0.00  0.00    +0.000 A 
ATOM     20  C   UNL     1      46.745   3.599   7.289  0.00  0.00    +0.000 A 
ATOM     21  C   UNL     1      46.537   2.260   7.569  0.00  0.00    +0.000 A 
ATOM     22  N   UNL     1      45.702   1.813   8.538  0.00  0.00    +0.000 NA
ATOM     23  C   UNL     1      45.074   2.754   9.289  0.00  0.00    +0.000 A 
ATOM     24 CL   UNL     1      44.041   1.991  10.433  0.00  0.00    +0.000 Cl
BRANCH  21  25
ATOM     25  C   UNL     1      47.293   1.213   6.807  0.00  0.00    +0.000 C 
ATOM     26  N   UNL     1      48.377   1.675   6.108  0.00  0.00    +0.000 N 
ATOM     27  O   UNL     1      46.963   0.039   6.790  0.00  0.00    +0.000 OA
ATOM     28  H   UNL     1      48.598   2.665   6.119  0.00  0.00    +0.000 HD
ATOM     29  H   UNL     1      48.907   1.039   5.529  0.00  0.00    +0.000 HD
ENDBRANCH  21  25
ENDBRANCH  17  18
ENDBRANCH  16  17
ENDBRANCH   1  16
TORSDOF 8
ENDMDL
MODEL 6
REMARK VINA RESULT:    -6.376      2.650      9.224
REMARK INTER + INTRA:         -10.281
REMARK INTER:                  -9.354
REMARK INTRA:                  -0.927
REMARK UNBOUND:                -0.923
REMARK  Name = 
REMARK  10 active torsions:
REMARK  status: ('A' for Active; 'I' for Inactive)
REMARK    1  A    between atoms: C_1  and  C_2
REMARK    2  A    between atoms: C_2  and  C_3
REMARK    3  A    between atoms: C_3  and  C_4
REMARK    4  A    between atoms: C_3  and  C_16
REMARK    5  A    between atoms: C_4  and  O_5
REMARK    6  A    between atoms: O_5  and  C_6
REMARK    7  A    between atoms: C_9  and  C_10
REMARK    8  A    between atoms: C_20  and  O_21
REMARK    9  A    between atoms: O_21  and  C_22
REMARK   10  A    between atoms: N_24  and  C_25
REMARK                            x       y       z     vdW  Elec       q    Type
REMARK                         _______ _______ _______ _____ _____    ______ ____
ROOT
ATOM      1  C   UNL     1      46.305   5.427  13.666  0.00  0.00    +0.000 C 
ENDROOT
BRANCH   1   2
ATOM      2  C   UNL     1      45.099   5.051  12.786  0.00  0.00    +0.000 A 
ATOM      3  C   UNL     1      43.932   5.833  12.728  0.00  0.00    +0.000 A 
ATOM      4  C   UNL     1      42.886   5.525  11.856  0.00  0.00    +0.000 A 
ATOM      5  C   UNL     1      42.970   4.414  11.025  0.00  0.00    +0.000 A 
ATOM      6  C   UNL     1      44.093   3.597  11.086  0.00  0.00    +0.000 A 
ATOM      7  C   UNL     1      45.154   3.924  11.944  0.00  0.00    +0.000 A 
BRANCH   6   8
ATOM      8  O   UNL     1      44.268   2.469  10.321  0.00  0.00    +0.000 OA
BRANCH   8   9
ATOM      9  C   UNL     1      44.623   2.631   8.924  0.00  0.00    +0.000 C 
ATOM     10  C   UNL     1      45.835   1.835   8.390  0.00  0.00    +0.000 C 
ATOM     11  N   UNL     1      46.449   3.074   7.880  0.00  0.00    +0.000 NA
ATOM     12  C   UNL     1      46.267   3.185   6.435  0.00  0.00    +0.000 C 
ATOM     13  C   UNL     1      45.452   3.891   8.595  0.00  0.00    +0.000 C 
ENDBRANCH   8   9
ENDBRANCH   6   8
ENDBRANCH   1   2
BRANCH   1  15
ATOM     14  C   UNL     1      47.514   7.661  13.143  0.00  0.00    +0.000 C 
ATOM     15  C   UNL     1      47.407   6.166  12.859  0.00  0.00    +0.000 C 
ENDBRANCH   1  15
BRANCH   1  16
ATOM     16  C   UNL     1      46.869   4.246  14.505  0.00  0.00    +0.000 C 
BRANCH  16  17
ATOM     17  O   UNL     1      48.078   4.636  15.154  0.00  0.00    +0.000 OA
BRANCH  17  18
ATOM     18  C   UNL     1      48.088   5.033  16.459  0.00  0.00    +0.000 A 
ATOM     19  C   UNL     1      48.569   6.342  16.606  0.00  0.00    +0.000 A 
ATOM     20  C   UNL     1      48.570   6.970  17.851  0.00  0.00    +0.000 A 
ATOM     21  C   UNL     1      48.090   6.252  18.932  0.00  0.00    +0.000 A 
ATOM     22  N   UNL     1      47.665   4.968  18.856  0.00  0.00    +0.000 NA
ATOM     23  C   UNL     1      47.682   4.388  17.629  0.00  0.00    +0.000 A 
ATOM     24 CL   UNL     1      47.139   2.760  17.748  0.00  0.00    +0.000 Cl
BRANCH  21  25
ATOM     25  C   UNL     1      47.981   6.911  20.275  0.00  0.00    +0.000 C 
ATOM     26  N   UNL     1      48.702   8.068  20.413  0.00  0.00    +0.000 N 
ATOM     27  O   UNL     1      47.317   6.448  21.187  0.00  0.00    +0.000 OA
ATOM     28  H   UNL     1      49.271   8.401  19.641  0.00  0.00    +0.000 HD
ATOM     29  H   UNL     1      48.721   8.543  21.304  0.00  0.00    +0.000 HD
ENDBRANCH  21  25
ENDBRANCH  17  18
ENDBRANCH  16  17
ENDBRANCH   1  16
TORSDOF 8
ENDMDL
MODEL 7
REMARK VINA RESULT:    -6.326      3.737      7.882
REMARK INTER + INTRA:         -10.208
REMARK INTER:                  -8.904
REMARK INTRA:                  -1.304
REMARK UNBOUND:                -0.923
REMARK  Name = 
REMARK  10 active torsions:
REMARK  status: ('A' for Active; 'I' for Inactive)
REMARK    1  A    between atoms: C_1  and  C_2
REMARK    2  A    between atoms: C_2  and  C_3
REMARK    3  A    between atoms: C_3  and  C_4
REMARK    4  A    between atoms: C_3  and  C_16
REMARK    5  A    between atoms: C_4  and  O_5
REMARK    6  A    between atoms: O_5  and  C_6
REMARK    7  A    between atoms: C_9  and  C_10
REMARK    8  A    between atoms: C_20  and  O_21
REMARK    9  A    between atoms: O_21  and  C_22
REMARK   10  A    between atoms: N_24  and  C_25
REMARK                            x       y       z     vdW  Elec       q    Type
REMARK                         _______ _______ _______ _____ _____    ______ ____
ROOT
ATOM      1  C   UNL     1      46.844   4.745  13.486  0.00  0.00    +0.000 C 
ENDROOT
BRANCH   1   2
ATOM      2  C   UNL     1      45.495   4.567  12.764  0.00  0.00    +0.000 A 
ATOM      3  C   UNL     1      44.291   5.086  13.271  0.00  0.00    +0.000 A 
ATOM      4  C   UNL     1      43.095   4.993  12.558  0.00  0.00    +0.000 A 
ATOM      5  C   UNL     1      43.063   4.363  11.319  0.00  0.00    +0.000 A 
ATOM      6  C   UNL     1      44.229   3.803  10.807  0.00  0.00    +0.000 A 
ATOM      7  C   UNL     1      45.434   3.922  11.514  0.00  0.00    +0.000 A 
BRANCH   6   8
ATOM      8  O   UNL     1      44.302   3.147   9.602  0.00  0.00    +0.000 OA
BRANCH   8   9
ATOM      9  C   UNL     1      45.594   3.039   8.953  0.00  0.00    +0.000 C 
ATOM     10  C   UNL     1      45.723   3.570   7.508  0.00  0.00    +0.000 C 
ATOM     11  N   UNL     1      46.265   2.276   7.059  0.00  0.00    +0.000 NA
ATOM     12  C   UNL     1      47.714   2.350   6.895  0.00  0.00    +0.000 C 
ATOM     13  C   UNL     1      45.918   1.655   8.350  0.00  0.00    +0.000 C 
ENDBRANCH   8   9
ENDBRANCH   6   8
ENDBRANCH   1   2
BRANCH   1  15
ATOM     14  C   UNL     1      47.343   4.342  15.998  0.00  0.00    +0.000 C 
ATOM     15  C   UNL     1      47.026   3.723  14.640  0.00  0.00    +0.000 C 
ENDBRANCH   1  15
BRANCH   1  16
ATOM     16  C   UNL     1      47.134   6.207  13.929  0.00  0.00    +0.000 C 
BRANCH  16  17
ATOM     17  O   UNL     1      47.778   6.922  12.875  0.00  0.00    +0.000 OA
BRANCH  17  18
ATOM     18  C   UNL     1      47.307   8.127  12.443  0.00  0.00    +0.000 A 
ATOM     19  C   UNL     1      45.914   8.225  12.576  0.00  0.00    +0.000 A 
ATOM     20  C   UNL     1      45.247   9.412  12.280  0.00  0.00    +0.000 A 
ATOM     21  C   UNL     1      46.006  10.483  11.843  0.00  0.00    +0.000 A 
ATOM     22  N   UNL     1      47.346  10.428  11.646  0.00  0.00    +0.000 NA
ATOM     23  C   UNL     1      47.960   9.253  11.941  0.00  0.00    +0.000 A 
ATOM     24 CL   UNL     1      49.642   9.375  11.596  0.00  0.00    +0.000 Cl
BRANCH  21  25
ATOM     25  C   UNL     1      45.353  11.811  11.601  0.00  0.00    +0.000 C 
ATOM     26  N   UNL     1      46.165  12.764  11.045  0.00  0.00    +0.000 N 
ATOM     27  O   UNL     1      44.191  12.040  11.893  0.00  0.00    +0.000 OA
ATOM     28  H   UNL     1      47.137  12.545  10.850  0.00  0.00    +0.000 HD
ATOM     29  H   UNL     1      45.813  13.699  10.899  0.00  0.00    +0.000 HD
ENDBRANCH  21  25
ENDBRANCH  17  18
ENDBRANCH  16  17
ENDBRANCH   1  16
TORSDOF 8
ENDMDL
MODEL 8
REMARK VINA RESULT:    -6.243      3.246      5.053
REMARK INTER + INTRA:         -10.087
REMARK INTER:                  -8.854
REMARK INTRA:                  -1.233
REMARK UNBOUND:                -0.923
REMARK  Name = 
REMARK  10 active torsions:
REMARK  status: ('A' for Active; 'I' for Inactive)
REMARK    1  A    between atoms: C_1  and  C_2
REMARK    2  A    between atoms: C_2  and  C_3
REMARK    3  A    between atoms: C_3  and  C_4
REMARK    4  A    between atoms: C_3  and  C_16
REMARK    5  A    between atoms: C_4  and  O_5
REMARK    6  A    between atoms: O_5  and  C_6
REMARK    7  A    between atoms: C_9  and  C_10
REMARK    8  A    between atoms: C_20  and  O_21
REMARK    9  A    between atoms: O_21  and  C_22
REMARK   10  A    between atoms: N_24  and  C_25
REMARK                            x       y       z     vdW  Elec       q    Type
REMARK                         _______ _______ _______ _____ _____    ______ ____
ROOT
ATOM      1  C   UNL     1      49.273   7.466  12.827  0.00  0.00    +0.000 C 
ENDROOT
BRANCH   1   2
ATOM      2  C   UNL     1      49.073   7.857  14.303  0.00  0.00    +0.000 A 
ATOM      3  C   UNL     1      48.665   9.144  14.696  0.00  0.00    +0.000 A 
ATOM      4  C   UNL     1      48.401   9.454  16.031  0.00  0.00    +0.000 A 
ATOM      5  C   UNL     1      48.552   8.488  17.018  0.00  0.00    +0.000 A 
ATOM      6  C   UNL     1      48.992   7.215  16.669  0.00  0.00    +0.000 A 
ATOM      7  C   UNL     1      49.230   6.900  15.324  0.00  0.00    +0.000 A 
BRANCH   6   8
ATOM      8  O   UNL     1      49.188   6.195  17.568  0.00  0.00    +0.000 OA
BRANCH   8   9
ATOM      9  C   UNL     1      49.567   4.891  17.059  0.00  0.00    +0.000 C 
ATOM     10  C   UNL     1      48.777   3.662  17.562  0.00  0.00    +0.000 C 
ATOM     11  N   UNL     1      50.028   2.999  17.969  0.00  0.00    +0.000 NA
ATOM     12  C   UNL     1      50.413   1.978  16.999  0.00  0.00    +0.000 C 
ATOM     13  C   UNL     1      50.788   4.242  17.747  0.00  0.00    +0.000 C 
ENDBRANCH   8   9
ENDBRANCH   6   8
ENDBRANCH   1   2
BRANCH   1  15
ATOM     14  C   UNL     1      50.116   9.457  11.397  0.00  0.00    +0.000 C 
ATOM     15  C   UNL     1      50.479   8.204  12.188  0.00  0.00    +0.000 C 
ENDBRANCH   1  15
BRANCH   1  16
ATOM     16  C   UNL     1      47.982   7.569  11.966  0.00  0.00    +0.000 C 
BRANCH  16  17
ATOM     17  O   UNL     1      46.838   7.247  12.755  0.00  0.00    +0.000 OA
BRANCH  17  18
ATOM     18  C   UNL     1      46.101   6.125  12.513  0.00  0.00    +0.000 A 
ATOM     19  C   UNL     1      45.361   6.228  11.326  0.00  0.00    +0.000 A 
ATOM     20  C   UNL     1      44.617   5.151  10.850  0.00  0.00    +0.000 A 
ATOM     21  C   UNL     1      44.626   3.984  11.594  0.00  0.00    +0.000 A 
ATOM     22  N   UNL     1      45.279   3.848  12.773  0.00  0.00    +0.000 NA
ATOM     23  C   UNL     1      45.990   4.920  13.208  0.00  0.00    +0.000 A 
ATOM     24 CL   UNL     1      46.714   4.559  14.727  0.00  0.00    +0.000 Cl
BRANCH  21  25
ATOM     25  C   UNL     1      43.920   2.766  11.080  0.00  0.00    +0.000 C 
ATOM     26  N   UNL     1      44.493   2.185   9.979  0.00  0.00    +0.000 N 
ATOM     27  O   UNL     1      42.899   2.329  11.586  0.00  0.00    +0.000 OA
ATOM     28  H   UNL     1      45.321   2.601   9.565  0.00  0.00    +0.000 HD
ATOM     29  H   UNL     1      44.047   1.391   9.542  0.00  0.00    +0.000 HD
ENDBRANCH  21  25
ENDBRANCH  17  18
ENDBRANCH  16  17
ENDBRANCH   1  16
TORSDOF 8
ENDMDL
MODEL 9
REMARK VINA RESULT:    -6.002      4.291      8.818
REMARK INTER + INTRA:          -9.732
REMARK INTER:                  -8.660
REMARK INTRA:                  -1.071
REMARK UNBOUND:                -0.923
REMARK  Name = 
REMARK  10 active torsions:
REMARK  status: ('A' for Active; 'I' for Inactive)
REMARK    1  A    between atoms: C_1  and  C_2
REMARK    2  A    between atoms: C_2  and  C_3
REMARK    3  A    between atoms: C_3  and  C_4
REMARK    4  A    between atoms: C_3  and  C_16
REMARK    5  A    between atoms: C_4  and  O_5
REMARK    6  A    between atoms: O_5  and  C_6
REMARK    7  A    between atoms: C_9  and  C_10
REMARK    8  A    between atoms: C_20  and  O_21
REMARK    9  A    between atoms: O_21  and  C_22
REMARK   10  A    between atoms: N_24  and  C_25
REMARK                            x       y       z     vdW  Elec       q    Type
REMARK                         _______ _______ _______ _____ _____    ______ ____
ROOT
ATOM      1  C   UNL     1      46.059   5.201  12.383  0.00  0.00    +0.000 C 
ENDROOT
BRANCH   1   2
ATOM      2  C   UNL     1      46.425   6.696  12.337  0.00  0.00    +0.000 A 
ATOM      3  C   UNL     1      47.743   7.148  12.149  0.00  0.00    +0.000 A 
ATOM      4  C   UNL     1      48.042   8.504  12.019  0.00  0.00    +0.000 A 
ATOM      5  C   UNL     1      47.031   9.455  12.086  0.00  0.00    +0.000 A 
ATOM      6  C   UNL     1      45.721   9.046  12.311  0.00  0.00    +0.000 A 
ATOM      7  C   UNL     1      45.420   7.680  12.415  0.00  0.00    +0.000 A 
BRANCH   6   8
ATOM      8  O   UNL     1      44.652   9.904  12.410  0.00  0.00    +0.000 OA
BRANCH   8   9
ATOM      9  C   UNL     1      44.119  10.484  11.193  0.00  0.00    +0.000 C 
ATOM     10  C   UNL     1      43.218  11.733  11.323  0.00  0.00    +0.000 C 
ATOM     11  N   UNL     1      42.156  11.073  10.544  0.00  0.00    +0.000 NA
ATOM     12  C   UNL     1      42.134  11.571   9.171  0.00  0.00    +0.000 C 
ATOM     13  C   UNL     1      42.867   9.784  10.620  0.00  0.00    +0.000 C 
ENDBRANCH   8   9
ENDBRANCH   6   8
ENDBRANCH   1   2
BRANCH   1  15
ATOM     14  C   UNL     1      44.779   3.636  10.760  0.00  0.00    +0.000 C 
ATOM     15  C   UNL     1      44.745   4.900  11.615  0.00  0.00    +0.000 C 
ENDBRANCH   1  15
BRANCH   1  16
ATOM     16  C   UNL     1      46.070   4.592  13.814  0.00  0.00    +0.000 C 
BRANCH  16  17
ATOM     17  O   UNL     1      47.411   4.467  14.284  0.00  0.00    +0.000 OA
BRANCH  17  18
ATOM     18  C   UNL     1      47.733   4.709  15.588  0.00  0.00    +0.000 A 
ATOM     19  C   UNL     1      47.359   3.648  16.426  0.00  0.00    +0.000 A 
ATOM     20  C   UNL     1      47.684   3.657  17.781  0.00  0.00    +0.000 A 
ATOM     21  C   UNL     1      48.378   4.751  18.268  0.00  0.00    +0.000 A 
ATOM     22  N   UNL     1      48.716   5.826  17.515  0.00  0.00    +0.000 NA
ATOM     23  C   UNL     1      48.379   5.783  16.200  0.00  0.00    +0.000 A 
ATOM     24 CL   UNL     1      48.863   7.243  15.429  0.00  0.00    +0.000 Cl
BRANCH  21  25
ATOM     25  C   UNL     1      48.835   4.769  19.696  0.00  0.00    +0.000 C 
ATOM     26  N   UNL     1      48.506   3.656  20.423  0.00  0.00    +0.000 N 
ATOM     27  O   UNL     1      49.438   5.709  20.186  0.00  0.00    +0.000 OA
ATOM     28  H   UNL     1      47.972   2.911  19.989  0.00  0.00    +0.000 HD
ATOM     29  H   UNL     1      48.734   3.614  21.406  0.00  0.00    +0.000 HD
ENDBRANCH  21  25
ENDBRANCH  17  18
ENDBRANCH  16  17
ENDBRANCH   1  16
TORSDOF 8
ENDMDL
