MODEL 1
REMARK VINA RESULT:    -6.707      0.000      0.000
REMARK INTER + INTRA:          -8.444
REMARK INTER:                  -7.884
REMARK INTRA:                  -0.560
REMARK UNBOUND:                -0.560
REMARK  Name = 
REMARK  3 active torsions:
REMARK  status: ('A' for Active; 'I' for Inactive)
REMARK    1  A    between atoms: C_3  and  O_4
REMARK    2  A    between atoms: O_4  and  C_5
REMARK    3  A    between atoms: C_5  and  C_6
REMARK                            x       y       z     vdW  Elec       q    Type
REMARK                         _______ _______ _______ _____ _____    ______ ____
ROOT
ATOM      1  C   UNL     1      44.949   3.841  11.807  0.00  0.00    +0.000 A 
ATOM      2  C   UNL     1      45.719   3.283  12.821  0.00  0.00    +0.000 A 
ATOM      3  C   UNL     1      46.623   4.100  13.471  0.00  0.00    +0.000 A 
ATOM      4  N   UNL     1      46.802   5.405  13.177  0.00  0.00    +0.000 NA
ATOM      5  C   UNL     1      46.030   5.978  12.229  0.00  0.00    +0.000 A 
ATOM      6  N   UNL     1      46.228   7.313  11.958  0.00  0.00    +0.000 N 
ATOM      7  C   UNL     1      47.579   7.855  12.072  0.00  0.00    +0.000 C 
ATOM      8  C   UNL     1      47.563   9.110  12.939  0.00  0.00    +0.000 C 
ATOM      9  C   UNL     1      46.541  10.120  12.422  0.00  0.00    +0.000 C 
ATOM     10  C   UNL     1      45.159   9.480  12.298  0.00  0.00    +0.000 C 
ATOM     11  C   UNL     1      45.192   8.201  11.454  0.00  0.00    +0.000 C 
ATOM     12  C   UNL     1      45.085   5.213  11.543  0.00  0.00    +0.000 A 
ENDROOT
BRANCH   1  13
ATOM     13  C   UNL     1      44.014   2.988  10.989  0.00  0.00    +0.000 C 
BRANCH  13  14
ATOM     14  O   UNL     1      44.007   3.443   9.638  0.00  0.00    +0.000 OA
BRANCH  14  17
ATOM     15  C   UNL     1      46.525   1.392   7.896  0.00  0.00    +0.000 A 
ATOM     16  C   UNL     1      45.483   1.674   8.766  0.00  0.00    +0.000 A 
ATOM     17  C   UNL     1      45.020   2.985   8.836  0.00  0.00    +0.000 A 
ATOM     18  C   UNL     1      45.618   3.954   8.036  0.00  0.00    +0.000 A 
ATOM     19  C   UNL     1      46.652   3.574   7.198  0.00  0.00    +0.000 A 
ATOM     20  N   UNL     1      47.120   2.312   7.110  0.00  0.00    +0.000 NA
ENDBRANCH  14  17
ENDBRANCH  13  14
ENDBRANCH   1  13
TORSDOF 3
ENDMDL
MODEL 2
REMARK VINA RESULT:    -6.665      1.635      2.230
REMARK INTER + INTRA:          -8.395
REMARK INTER:                  -7.887
REMARK INTRA:                  -0.508
REMARK UNBOUND:                -0.560
REMARK  Name = 
REMARK  3 active torsions:
REMARK  status: ('A' for Active; 'I' for Inactive)
REMARK    1  A    between atoms: C_3  and  O_4
REMARK    2  A    between atoms: O_4  and  C_5
REMARK    3  A    between atoms: C_5  and  C_6
REMARK                            x       y       z     vdW  Elec       q    Type
REMARK                         _______ _______ _______ _____ _____    ______ ____
ROOT
ATOM      1  C   UNL     1      44.324   4.860  10.622  0.00  0.00    +0.000 A 
ATOM      2  C   UNL     1      43.401   4.768  11.659  0.00  0.00    +0.000 A 
ATOM      3  C   UNL     1      43.781   5.226  12.905  0.00  0.00    +0.000 A 
ATOM      4  N   UNL     1      44.994   5.755  13.174  0.00  0.00    +0.000 NA
ATOM      5  C   UNL     1      45.886   5.898  12.170  0.00  0.00    +0.000 A 
ATOM      6  N   UNL     1      47.110   6.449  12.472  0.00  0.00    +0.000 N 
ATOM      7  C   UNL     1      47.688   6.187  13.788  0.00  0.00    +0.000 C 
ATOM      8  C   UNL     1      48.111   7.499  14.439  0.00  0.00    +0.000 C 
ATOM      9  C   UNL     1      49.027   8.300  13.517  0.00  0.00    +0.000 C 
ATOM     10  C   UNL     1      48.375   8.511  12.152  0.00  0.00    +0.000 C 
ATOM     11  C   UNL     1      47.924   7.190  11.520  0.00  0.00    +0.000 C 
ATOM     12  C   UNL     1      45.562   5.469  10.882  0.00  0.00    +0.000 A 
ENDROOT
BRANCH   1  13
ATOM     13  C   UNL     1      44.015   4.291   9.262  0.00  0.00    +0.000 C 
BRANCH  13  14
ATOM     14  O   UNL     1      44.428   2.928   9.206  0.00  0.00    +0.000 OA
BRANCH  14  17
ATOM     15  C   UNL     1      47.288   3.106   6.889  0.00  0.00    +0.000 A 
ATOM     16  C   UNL     1      46.223   3.570   7.647  0.00  0.00    +0.000 A 
ATOM     17  C   UNL     1      45.505   2.650   8.406  0.00  0.00    +0.000 A 
ATOM     18  C   UNL     1      45.882   1.310   8.374  0.00  0.00    +0.000 A 
ATOM     19  C   UNL     1      46.960   0.944   7.586  0.00  0.00    +0.000 A 
ATOM     20  N   UNL     1      47.673   1.814   6.841  0.00  0.00    +0.000 NA
ENDBRANCH  14  17
ENDBRANCH  13  14
ENDBRANCH   1  13
TORSDOF 3
ENDMDL
MODEL 3
REMARK VINA RESULT:    -6.506      2.601      4.354
REMARK INTER + INTRA:          -8.207
REMARK INTER:                  -7.742
REMARK INTRA:                  -0.465
REMARK UNBOUND:                -0.560
REMARK  Name = 
REMARK  3 active torsions:
REMARK  status: ('A' for Active; 'I' for Inactive)
REMARK    1  A    between atoms: C_3  and  O_4
REMARK    2  A    between atoms: O_4  and  C_5
REMARK    3  A    between atoms: C_5  and  C_6
REMARK                            x       y       z     vdW  Elec       q    Type
REMARK                         _______ _______ _______ _____ _____    ______ ____
ROOT
ATOM      1  C   UNL     1      46.023   5.495  12.732  0.00  0.00    +0.000 A 
ATOM      2  C   UNL     1      46.936   6.355  12.131  0.00  0.00    +0.000 A 
ATOM      3  C   UNL     1      48.089   6.661  12.824  0.00  0.00    +0.000 A 
ATOM      4  N   UNL     1      48.380   6.178  14.051  0.00  0.00    +0.000 NA
ATOM      5  C   UNL     1      47.530   5.303  14.632  0.00  0.00    +0.000 A 
ATOM      6  N   UNL     1      47.857   4.819  15.877  0.00  0.00    +0.000 N 
ATOM      7  C   UNL     1      48.577   5.694  16.799  0.00  0.00    +0.000 C 
ATOM      8  C   UNL     1      49.802   4.971  17.350  0.00  0.00    +0.000 C 
ATOM      9  C   UNL     1      49.417   3.625  17.959  0.00  0.00    +0.000 C 
ATOM     10  C   UNL     1      48.642   2.775  16.954  0.00  0.00    +0.000 C 
ATOM     11  C   UNL     1      47.433   3.521  16.381  0.00  0.00    +0.000 C 
ATOM     12  C   UNL     1      46.351   4.938  13.978  0.00  0.00    +0.000 A 
ENDROOT
BRANCH   1  13
ATOM     13  C   UNL     1      44.699   5.194  12.079  0.00  0.00    +0.000 C 
BRANCH  13  14
ATOM     14  O   UNL     1      44.778   5.475  10.684  0.00  0.00    +0.000 OA
BRANCH  14  17
ATOM     15  C   UNL     1      44.995   2.133   9.146  0.00  0.00    +0.000 A 
ATOM     16  C   UNL     1      44.655   3.087  10.093  0.00  0.00    +0.000 A 
ATOM     17  C   UNL     1      45.026   4.408   9.860  0.00  0.00    +0.000 A 
ATOM     18  C   UNL     1      45.720   4.717   8.693  0.00  0.00    +0.000 A 
ATOM     19  C   UNL     1      46.014   3.694   7.808  0.00  0.00    +0.000 A 
ATOM     20  N   UNL     1      45.666   2.406   8.009  0.00  0.00    +0.000 NA
ENDBRANCH  14  17
ENDBRANCH  13  14
ENDBRANCH   1  13
TORSDOF 3
ENDMDL
MODEL 4
REMARK VINA RESULT:    -6.268      2.862      4.985
REMARK INTER + INTRA:          -7.927
REMARK INTER:                  -7.410
REMARK INTRA:                  -0.517
REMARK UNBOUND:                -0.560
REMARK  Name = 
REMARK  3 active torsions:
REMARK  status: ('A' for Active; 'I' for Inactive)
REMARK    1  A    between atoms: C_3  and  O_4
REMARK    2  A    between atoms: O_4  and  C_5
REMARK    3  A    between atoms: C_5  and  C_6
REMARK                            x       y       z     vdW  Elec       q    Type
REMARK                         _______ _______ _______ _____ _____    ______ ____
ROOT
ATOM      1  C   UNL     1      46.993   6.837  12.453  0.00  0.00    +0.000 A 
ATOM      2  C   UNL     1      48.195   7.423  12.066  0.00  0.00    +0.000 A 
ATOM      3  C   UNL     1      49.274   7.308  12.920  0.00  0.00    +0.000 A 
ATOM      4  N   UNL     1      49.229   6.665  14.106  0.00  0.00    +0.000 NA
ATOM      5  C   UNL     1      48.086   6.049  14.478  0.00  0.00    +0.000 A 
ATOM      6  N   UNL     1      48.074   5.392  15.687  0.00  0.00    +0.000 N 
ATOM      7  C   UNL     1      48.875   5.932  16.782  0.00  0.00    +0.000 C 
ATOM      8  C   UNL     1      49.742   4.830  17.382  0.00  0.00    +0.000 C 
ATOM      9  C   UNL     1      48.898   3.622  17.780  0.00  0.00    +0.000 C 
ATOM     10  C   UNL     1      48.063   3.129  16.599  0.00  0.00    +0.000 C 
ATOM     11  C   UNL     1      47.221   4.250  15.982  0.00  0.00    +0.000 C 
ATOM     12  C   UNL     1      46.960   6.112  13.654  0.00  0.00    +0.000 A 
ENDROOT
BRANCH   1  13
ATOM     13  C   UNL     1      45.750   7.005  11.620  0.00  0.00    +0.000 C 
BRANCH  13  14
ATOM     14  O   UNL     1      45.763   6.072  10.544  0.00  0.00    +0.000 OA
BRANCH  14  17
ATOM     15  C   UNL     1      44.176   2.758  10.256  0.00  0.00    +0.000 A 
ATOM     16  C   UNL     1      45.084   3.771   9.985  0.00  0.00    +0.000 A 
ATOM     17  C   UNL     1      44.962   4.968  10.684  0.00  0.00    +0.000 A 
ATOM     18  C   UNL     1      43.941   5.101  11.621  0.00  0.00    +0.000 A 
ATOM     19  C   UNL     1      43.084   4.032  11.821  0.00  0.00    +0.000 A 
ATOM     20  N   UNL     1      43.179   2.861  11.158  0.00  0.00    +0.000 NA
ENDBRANCH  14  17
ENDBRANCH  13  14
ENDBRANCH   1  13
TORSDOF 3
ENDMDL
MODEL 5
REMARK VINA RESULT:    -6.167      3.382      5.618
REMARK INTER + INTRA:          -7.809
REMARK INTER:                  -7.359
REMARK INTRA:                  -0.450
REMARK UNBOUND:                -0.560
REMARK  Name = 
REMARK  3 active torsions:
REMARK  status: ('A' for Active; 'I' for Inactive)
REMARK    1  A    between atoms: C_3  and  O_4
REMARK    2  A    between atoms: O_4  and  C_5
REMARK    3  A    between atoms: C_5  and  C_6
REMARK                            x       y       z     vdW  Elec       q    Type
REMARK                         _______ _______ _______ _____ _____    ______ ____
ROOT
ATOM      1  C   UNL     1      46.724   1.938   7.326  0.00  0.00    +0.000 A 
ATOM      2  C   UNL     1      47.256   3.099   6.774  0.00  0.00    +0.000 A 
ATOM      3  C   UNL     1      46.832   4.310   7.282  0.00  0.00    +0.000 A 
ATOM      4  N   UNL     1      45.931   4.432   8.280  0.00  0.00    +0.000 NA
ATOM      5  C   UNL     1      45.439   3.317   8.863  0.00  0.00    +0.000 A 
ATOM      6  N   UNL     1      44.531   3.473   9.884  0.00  0.00    +0.000 N 
ATOM      7  C   UNL     1      43.611   4.607   9.834  0.00  0.00    +0.000 C 
ATOM      8  C   UNL     1      43.647   5.363  11.158  0.00  0.00    +0.000 C 
ATOM      9  C   UNL     1      43.395   4.422  12.334  0.00  0.00    +0.000 C 
ATOM     10  C   UNL     1      44.368   3.245  12.308  0.00  0.00    +0.000 C 
ATOM     11  C   UNL     1      44.349   2.512  10.963  0.00  0.00    +0.000 C 
ATOM     12  C   UNL     1      45.838   2.059   8.407  0.00  0.00    +0.000 A 
ENDROOT
BRANCH   1  13
ATOM     13  C   UNL     1      47.066   0.586   6.757  0.00  0.00    +0.000 C 
BRANCH  13  14
ATOM     14  O   UNL     1      47.680   0.743   5.481  0.00  0.00    +0.000 OA
BRANCH  14  17
ATOM     15  C   UNL     1      46.201  -1.453   2.917  0.00  0.00    +0.000 A 
ATOM     16  C   UNL     1      46.941  -1.113   4.040  0.00  0.00    +0.000 A 
ATOM     17  C   UNL     1      46.998   0.228   4.409  0.00  0.00    +0.000 A 
ATOM     18  C   UNL     1      46.316   1.168   3.641  0.00  0.00    +0.000 A 
ATOM     19  C   UNL     1      45.604   0.731   2.537  0.00  0.00    +0.000 A 
ATOM     20  N   UNL     1      45.531  -0.562   2.157  0.00  0.00    +0.000 NA
ENDBRANCH  14  17
ENDBRANCH  13  14
ENDBRANCH   1  13
TORSDOF 3
ENDMDL
MODEL 6
REMARK VINA RESULT:    -5.699      3.518      7.092
REMARK INTER + INTRA:          -7.259
REMARK INTER:                  -6.775
REMARK INTRA:                  -0.484
REMARK UNBOUND:                -0.560
REMARK  Name = 
REMARK  3 active torsions:
REMARK  status: ('A' for Active; 'I' for Inactive)
REMARK    1  A    between atoms: C_3  and  O_4
REMARK    2  A    between atoms: O_4  and  C_5
REMARK    3  A    between atoms: C_5  and  C_6
REMARK                            x       y       z     vdW  Elec       q    Type
REMARK                         _______ _______ _______ _____ _____    ______ ____
ROOT
ATOM      1  C   UNL     1      47.850   7.065  14.037  0.00  0.00    +0.000 A 
ATOM      2  C   UNL     1      47.334   8.324  13.749  0.00  0.00    +0.000 A 
ATOM      3  C   UNL     1      46.272   8.402  12.870  0.00  0.00    +0.000 A 
ATOM      4  N   UNL     1      45.708   7.329  12.275  0.00  0.00    +0.000 NA
ATOM      5  C   UNL     1      46.163   6.094  12.579  0.00  0.00    +0.000 A 
ATOM      6  N   UNL     1      45.562   5.019  11.965  0.00  0.00    +0.000 N 
ATOM      7  C   UNL     1      45.066   5.182  10.601  0.00  0.00    +0.000 C 
ATOM      8  C   UNL     1      43.621   4.702  10.514  0.00  0.00    +0.000 C 
ATOM      9  C   UNL     1      43.483   3.279  11.049  0.00  0.00    +0.000 C 
ATOM     10  C   UNL     1      44.049   3.172  12.464  0.00  0.00    +0.000 C 
ATOM     11  C   UNL     1      45.489   3.688  12.548  0.00  0.00    +0.000 C 
ATOM     12  C   UNL     1      47.225   5.942  13.472  0.00  0.00    +0.000 A 
ENDROOT
BRANCH   1  13
ATOM     13  C   UNL     1      49.070   6.911  14.908  0.00  0.00    +0.000 C 
BRANCH  13  14
ATOM     14  O   UNL     1      48.671   6.716  16.262  0.00  0.00    +0.000 OA
BRANCH  14  17
ATOM     15  C   UNL     1      48.032   3.237  17.295  0.00  0.00    +0.000 A 
ATOM     16  C   UNL     1      47.754   4.484  16.756  0.00  0.00    +0.000 A 
ATOM     17  C   UNL     1      48.768   5.438  16.748  0.00  0.00    +0.000 A 
ATOM     18  C   UNL     1      50.011   5.105  17.279  0.00  0.00    +0.000 A 
ATOM     19  C   UNL     1      50.191   3.833  17.795  0.00  0.00    +0.000 A 
ATOM     20  N   UNL     1      49.227   2.889  17.814  0.00  0.00    +0.000 NA
ENDBRANCH  14  17
ENDBRANCH  13  14
ENDBRANCH   1  13
TORSDOF 3
ENDMDL
MODEL 7
REMARK VINA RESULT:    -5.641      2.275      6.718
REMARK INTER + INTRA:          -7.190
REMARK INTER:                  -6.743
REMARK INTRA:                  -0.447
REMARK UNBOUND:                -0.560
REMARK  Name = 
REMARK  3 active torsions:
REMARK  status: ('A' for Active; 'I' for Inactive)
REMARK    1  A    between atoms: C_3  and  O_4
REMARK    2  A    between atoms: O_4  and  C_5
REMARK    3  A    between atoms: C_5  and  C_6
REMARK                            x       y       z     vdW  Elec       q    Type
REMARK                         _______ _______ _______ _____ _____    ______ ____
ROOT
ATOM      1  C   UNL     1      46.667   6.539  13.060  0.00  0.00    +0.000 A 
ATOM      2  C   UNL     1      46.831   5.572  14.046  0.00  0.00    +0.000 A 
ATOM      3  C   UNL     1      46.421   4.284  13.764  0.00  0.00    +0.000 A 
ATOM      4  N   UNL     1      45.870   3.911  12.590  0.00  0.00    +0.000 NA
ATOM      5  C   UNL     1      45.746   4.824  11.601  0.00  0.00    +0.000 A 
ATOM      6  N   UNL     1      45.190   4.412  10.412  0.00  0.00    +0.000 N 
ATOM      7  C   UNL     1      44.152   3.385  10.445  0.00  0.00    +0.000 C 
ATOM      8  C   UNL     1      44.494   2.270   9.463  0.00  0.00    +0.000 C 
ATOM      9  C   UNL     1      44.756   2.830   8.067  0.00  0.00    +0.000 C 
ATOM     10  C   UNL     1      45.827   3.918   8.109  0.00  0.00    +0.000 C 
ATOM     11  C   UNL     1      45.492   5.016   9.123  0.00  0.00    +0.000 C 
ATOM     12  C   UNL     1      46.155   6.141  11.814  0.00  0.00    +0.000 A 
ENDROOT
BRANCH   1  13
ATOM     13  C   UNL     1      46.999   7.983  13.331  0.00  0.00    +0.000 C 
BRANCH  13  14
ATOM     14  O   UNL     1      47.116   8.688  12.098  0.00  0.00    +0.000 OA
BRANCH  14  17
ATOM     15  C   UNL     1      45.934  12.165  11.789  0.00  0.00    +0.000 A 
ATOM     16  C   UNL     1      46.848  11.130  11.910  0.00  0.00    +0.000 A 
ATOM     17  C   UNL     1      46.363   9.827  11.974  0.00  0.00    +0.000 A 
ATOM     18  C   UNL     1      44.988   9.616  11.915  0.00  0.00    +0.000 A 
ATOM     19  C   UNL     1      44.155  10.715  11.793  0.00  0.00    +0.000 A 
ATOM     20  N   UNL     1      44.598  11.988  11.728  0.00  0.00    +0.000 NA
ENDBRANCH  14  17
ENDBRANCH  13  14
ENDBRANCH   1  13
TORSDOF 3
ENDMDL
MODEL 8
REMARK VINA RESULT:    -5.407      5.052      6.526
REMARK INTER + INTRA:          -6.915
REMARK INTER:                  -6.582
REMARK INTRA:                  -0.333
REMARK UNBOUND:                -0.560
REMARK  Name = 
REMARK  3 active torsions:
REMARK  status: ('A' for Active; 'I' for Inactive)
REMARK    1  A    between atoms: C_3  and  O_4
REMARK    2  A    between atoms: O_4  and  C_5
REMARK    3  A    between atoms: C_5  and  C_6
REMARK                            x       y       z     vdW  Elec       q    Type
REMARK                         _______ _______ _______ _____ _____    ______ ____
ROOT
ATOM      1  C   UNL     1      47.602   4.298  15.875  0.00  0.00    +0.000 A 
ATOM      2  C   UNL     1      48.014   2.970  15.918  0.00  0.00    +0.000 A 
ATOM      3  C   UNL     1      48.581   2.505  17.088  0.00  0.00    +0.000 A 
ATOM      4  N   UNL     1      48.759   3.265  18.190  0.00  0.00    +0.000 NA
ATOM      5  C   UNL     1      48.321   4.543  18.186  0.00  0.00    +0.000 A 
ATOM      6  N   UNL     1      48.507   5.290  19.326  0.00  0.00    +0.000 N 
ATOM      7  C   UNL     1      49.696   5.041  20.138  0.00  0.00    +0.000 C 
ATOM      8  C   UNL     1      49.295   4.838  21.595  0.00  0.00    +0.000 C 
ATOM      9  C   UNL     1      48.446   6.003  22.098  0.00  0.00    +0.000 C 
ATOM     10  C   UNL     1      47.239   6.228  21.188  0.00  0.00    +0.000 C 
ATOM     11  C   UNL     1      47.648   6.396  19.721  0.00  0.00    +0.000 C 
ATOM     12  C   UNL     1      47.725   5.072  17.040  0.00  0.00    +0.000 A 
ENDROOT
BRANCH   1  13
ATOM     13  C   UNL     1      47.067   4.900  14.602  0.00  0.00    +0.000 C 
BRANCH  13  14
ATOM     14  O   UNL     1      45.983   4.113  14.117  0.00  0.00    +0.000 OA
BRANCH  14  17
ATOM     15  C   UNL     1      44.806   3.663  10.654  0.00  0.00    +0.000 A 
ATOM     16  C   UNL     1      45.064   3.322  11.973  0.00  0.00    +0.000 A 
ATOM     17  C   UNL     1      45.654   4.276  12.797  0.00  0.00    +0.000 A 
ATOM     18  C   UNL     1      45.960   5.526  12.267  0.00  0.00    +0.000 A 
ATOM     19  C   UNL     1      45.664   5.773  10.937  0.00  0.00    +0.000 A 
ATOM     20  N   UNL     1      45.092   4.867  10.117  0.00  0.00    +0.000 NA
ENDBRANCH  14  17
ENDBRANCH  13  14
ENDBRANCH   1  13
TORSDOF 3
ENDMDL
MODEL 9
REMARK VINA RESULT:    -5.400      3.030      3.928
REMARK INTER + INTRA:          -6.908
REMARK INTER:                  -6.541
REMARK INTRA:                  -0.367
REMARK UNBOUND:                -0.560
REMARK  Name = 
REMARK  3 active torsions:
REMARK  status: ('A' for Active; 'I' for Inactive)
REMARK    1  A    between atoms: C_3  and  O_4
REMARK    2  A    between atoms: O_4  and  C_5
REMARK    3  A    between atoms: C_5  and  C_6
REMARK                            x       y       z     vdW  Elec       q    Type
REMARK                         _______ _______ _______ _____ _____    ______ ____
ROOT
ATOM      1  C   UNL     1      46.896   5.789  13.040  0.00  0.00    +0.000 A 
ATOM      2  C   UNL     1      46.558   4.577  13.633  0.00  0.00    +0.000 A 
ATOM      3  C   UNL     1      47.113   4.282  14.862  0.00  0.00    +0.000 A 
ATOM      4  N   UNL     1      47.965   5.099  15.518  0.00  0.00    +0.000 NA
ATOM      5  C   UNL     1      48.267   6.301  14.981  0.00  0.00    +0.000 A 
ATOM      6  N   UNL     1      49.129   7.117  15.677  0.00  0.00    +0.000 N 
ATOM      7  C   UNL     1      50.196   6.498  16.461  0.00  0.00    +0.000 C 
ATOM      8  C   UNL     1      50.188   7.059  17.880  0.00  0.00    +0.000 C 
ATOM      9  C   UNL     1      50.244   8.584  17.868  0.00  0.00    +0.000 C 
ATOM     10  C   UNL     1      49.123   9.163  17.006  0.00  0.00    +0.000 C 
ATOM     11  C   UNL     1      49.118   8.570  15.594  0.00  0.00    +0.000 C 
ATOM     12  C   UNL     1      47.728   6.670  13.748  0.00  0.00    +0.000 A 
ENDROOT
BRANCH   1  13
ATOM     13  C   UNL     1      46.407   6.134  11.657  0.00  0.00    +0.000 C 
BRANCH  13  14
ATOM     14  O   UNL     1      45.107   5.586  11.457  0.00  0.00    +0.000 OA
BRANCH  14  17
ATOM     15  C   UNL     1      44.397   2.499   9.571  0.00  0.00    +0.000 A 
ATOM     16  C   UNL     1      44.415   3.360  10.658  0.00  0.00    +0.000 A 
ATOM     17  C   UNL     1      44.997   4.614  10.496  0.00  0.00    +0.000 A 
ATOM     18  C   UNL     1      45.535   4.952   9.257  0.00  0.00    +0.000 A 
ATOM     19  C   UNL     1      45.469   4.024   8.232  0.00  0.00    +0.000 A 
ATOM     20  N   UNL     1      44.911   2.802   8.361  0.00  0.00    +0.000 NA
ENDBRANCH  14  17
ENDBRANCH  13  14
ENDBRANCH   1  13
TORSDOF 3
ENDMDL
