MODEL 1
REMARK VINA RESULT:    -7.829      0.000      0.000
REMARK INTER + INTRA:         -13.032
REMARK INTER:                 -11.948
REMARK INTRA:                  -1.085
REMARK UNBOUND:                -1.085
REMARK  Name = 
REMARK  9 active torsions:
REMARK  status: ('A' for Active; 'I' for Inactive)
REMARK    1  A    between atoms: C_2  and  C_3
REMARK    2  A    between atoms: C_3  and  C_4
REMARK    3  A    between atoms: C_3  and  N_11
REMARK    4  A    between atoms: C_4  and  C_5
REMARK    5  A    between atoms: N_11  and  C_12
REMARK    6  A    between atoms: C_12  and  C_13
REMARK    7  A    between atoms: C_16  and  C_17
REMARK    8  A    between atoms: C_17  and  N_18
REMARK    9  A    between atoms: C_19  and  C_21
REMARK                            x       y       z     vdW  Elec       q    Type
REMARK                         _______ _______ _______ _____ _____    ______ ____
ROOT
ATOM      1  C   UNL     1      45.372   6.046  12.341  0.00  0.00    +0.000 A 
ATOM      2  C   UNL     1      45.809   5.086  13.264  0.00  0.00    +0.000 A 
ATOM      3  C   UNL     1      46.947   5.314  14.037  0.00  0.00    +0.000 A 
ATOM      4  C   UNL     1      47.664   6.510  13.904  0.00  0.00    +0.000 A 
ATOM      5  C   UNL     1      47.259   7.444  12.942  0.00  0.00    +0.000 A 
ATOM      6  C   UNL     1      46.120   7.219  12.169  0.00  0.00    +0.000 A 
ENDROOT
BRANCH   1   7
ATOM      7  C   UNL     1      44.068   5.851  11.608  0.00  0.00    +0.000 C 
BRANCH   7   8
ATOM      8  N   UNL     1      44.270   5.499  10.195  0.00  0.00    +0.000 NA
ATOM      9  H   UNL     1      43.405   5.679   9.686  0.00  0.00    +0.000 HD
BRANCH   8  10
ATOM     10  C   UNL     1      44.675   4.084   9.995  0.00  0.00    +0.000 C 
BRANCH  10  12
ATOM     11  N   UNL     1      43.058   2.377  11.481  0.00  0.00    +0.000 NA
ATOM     12  C   UNL     1      43.791   3.151  10.807  0.00  0.00    +0.000 C 
ENDBRANCH  10  12
BRANCH  10  13
ATOM     13  C   UNL     1      44.556   3.681   8.506  0.00  0.00    +0.000 C 
BRANCH  13  14
ATOM     14  C   UNL     1      45.728   2.894   7.968  0.00  0.00    +0.000 A 
ATOM     15  C   UNL     1      45.894   1.539   8.264  0.00  0.00    +0.000 A 
ATOM     16  C   UNL     1      46.994   0.873   7.744  0.00  0.00    +0.000 A 
ATOM     17  N   UNL     1      47.921   1.454   6.953  0.00  0.00    +0.000 NA
ATOM     18  C   UNL     1      47.740   2.762   6.673  0.00  0.00    +0.000 A 
ATOM     19  C   UNL     1      46.675   3.513   7.146  0.00  0.00    +0.000 A 
ENDBRANCH  13  14
ENDBRANCH  10  13
ENDBRANCH   8  10
ENDBRANCH   7   8
ENDBRANCH   1   7
BRANCH   4  20
ATOM     20  C   UNL     1      48.895   6.764  14.734  0.00  0.00    +0.000 C 
BRANCH  20  21
ATOM     21  N   UNL     1      48.603   6.552  16.124  0.00  0.00    +0.000 N 
ATOM     22  C   UNL     1      49.497   5.951  16.970  0.00  0.00    +0.000 C 
ATOM     23  O   UNL     1      50.615   5.605  16.602  0.00  0.00    +0.000 OA
ATOM     24  H   UNL     1      47.627   6.609  16.393  0.00  0.00    +0.000 HD
BRANCH  22  25
ATOM     25  C   UNL     1      49.062   5.815  18.364  0.00  0.00    +0.000 A 
ATOM     26  C   UNL     1      49.244   4.610  19.030  0.00  0.00    +0.000 A 
ATOM     27  S   UNL     1      48.769   4.658  20.668  0.00  0.00    +0.000 S 
ATOM     28  C   UNL     1      48.253   6.274  20.529  0.00  0.00    +0.000 A 
ATOM     29  N   UNL     1      47.723   6.933  21.594  0.00  0.00    +0.000 NA
ATOM     30  C   UNL     1      47.349   8.143  21.339  0.00  0.00    +0.000 A 
ATOM     31  N   UNL     1      47.455   8.754  20.116  0.00  0.00    +0.000 N 
ATOM     32  C   UNL     1      47.991   8.129  19.018  0.00  0.00    +0.000 A 
ATOM     33  O   UNL     1      48.079   8.709  17.939  0.00  0.00    +0.000 OA
ATOM     34  C   UNL     1      48.440   6.769  19.252  0.00  0.00    +0.000 A 
ATOM     35  H   UNL     1      47.140   9.703  19.982  0.00  0.00    +0.000 HD
ENDBRANCH  22  25
ENDBRANCH  20  21
ENDBRANCH   4  20
TORSDOF 9
ENDMDL
MODEL 2
REMARK VINA RESULT:    -7.774      2.160      2.856
REMARK INTER + INTRA:         -12.949
REMARK INTER:                 -12.591
REMARK INTRA:                  -0.357
REMARK UNBOUND:                -1.085
REMARK  Name = 
REMARK  9 active torsions:
REMARK  status: ('A' for Active; 'I' for Inactive)
REMARK    1  A    between atoms: C_2  and  C_3
REMARK    2  A    between atoms: C_3  and  C_4
REMARK    3  A    between atoms: C_3  and  N_11
REMARK    4  A    between atoms: C_4  and  C_5
REMARK    5  A    between atoms: N_11  and  C_12
REMARK    6  A    between atoms: C_12  and  C_13
REMARK    7  A    between atoms: C_16  and  C_17
REMARK    8  A    between atoms: C_17  and  N_18
REMARK    9  A    between atoms: C_19  and  C_21
REMARK                            x       y       z     vdW  Elec       q    Type
REMARK                         _______ _______ _______ _____ _____    ______ ____
ROOT
ATOM      1  C   UNL     1      44.397   6.292  11.429  0.00  0.00    +0.000 A 
ATOM      2  C   UNL     1      45.467   5.631  12.048  0.00  0.00    +0.000 A 
ATOM      3  C   UNL     1      46.436   6.352  12.745  0.00  0.00    +0.000 A 
ATOM      4  C   UNL     1      46.348   7.747  12.840  0.00  0.00    +0.000 A 
ATOM      5  C   UNL     1      45.309   8.410  12.174  0.00  0.00    +0.000 A 
ATOM      6  C   UNL     1      44.337   7.691  11.479  0.00  0.00    +0.000 A 
ENDROOT
BRANCH   1   7
ATOM      7  C   UNL     1      43.283   5.497  10.795  0.00  0.00    +0.000 C 
BRANCH   7   8
ATOM      8  N   UNL     1      43.754   4.677   9.669  0.00  0.00    +0.000 NA
ATOM      9  H   UNL     1      42.953   4.423   9.091  0.00  0.00    +0.000 HD
BRANCH   8  10
ATOM     10  C   UNL     1      44.463   3.444  10.098  0.00  0.00    +0.000 C 
BRANCH  10  12
ATOM     11  N   UNL     1      43.265   2.354  12.359  0.00  0.00    +0.000 NA
ATOM     12  C   UNL     1      43.808   2.848  11.334  0.00  0.00    +0.000 C 
ENDBRANCH  10  12
BRANCH  10  13
ATOM     13  C   UNL     1      44.436   2.375   8.981  0.00  0.00    +0.000 C 
BRANCH  13  14
ATOM     14  C   UNL     1      45.713   2.264   8.181  0.00  0.00    +0.000 A 
ATOM     15  C   UNL     1      46.323   3.391   7.623  0.00  0.00    +0.000 A 
ATOM     16  C   UNL     1      47.492   3.223   6.894  0.00  0.00    +0.000 A 
ATOM     17  N   UNL     1      48.091   2.030   6.695  0.00  0.00    +0.000 NA
ATOM     18  C   UNL     1      47.491   0.955   7.249  0.00  0.00    +0.000 A 
ATOM     19  C   UNL     1      46.321   1.020   7.991  0.00  0.00    +0.000 A 
ENDBRANCH  13  14
ENDBRANCH  10  13
ENDBRANCH   8  10
ENDBRANCH   7   8
ENDBRANCH   1   7
BRANCH   4  20
ATOM     20  C   UNL     1      47.391   8.533  13.589  0.00  0.00    +0.000 C 
BRANCH  20  21
ATOM     21  N   UNL     1      47.734   7.858  14.810  0.00  0.00    +0.000 N 
ATOM     22  C   UNL     1      48.844   7.063  14.913  0.00  0.00    +0.000 C 
ATOM     23  O   UNL     1      49.635   6.922  13.986  0.00  0.00    +0.000 OA
ATOM     24  H   UNL     1      46.994   7.767  15.497  0.00  0.00    +0.000 HD
BRANCH  22  25
ATOM     25  C   UNL     1      49.069   6.450  16.226  0.00  0.00    +0.000 A 
ATOM     26  C   UNL     1      49.866   7.093  17.162  0.00  0.00    +0.000 A 
ATOM     27  S   UNL     1      49.940   6.287  18.664  0.00  0.00    +0.000 S 
ATOM     28  C   UNL     1      48.955   5.021  18.096  0.00  0.00    +0.000 A 
ATOM     29  N   UNL     1      48.627   3.975  18.901  0.00  0.00    +0.000 NA
ATOM     30  C   UNL     1      47.895   3.074  18.332  0.00  0.00    +0.000 A 
ATOM     31  N   UNL     1      47.464   3.122  17.031  0.00  0.00    +0.000 N 
ATOM     32  C   UNL     1      47.765   4.163  16.188  0.00  0.00    +0.000 A 
ATOM     33  O   UNL     1      47.354   4.179  15.031  0.00  0.00    +0.000 OA
ATOM     34  C   UNL     1      48.574   5.211  16.781  0.00  0.00    +0.000 A 
ATOM     35  H   UNL     1      46.898   2.383  16.646  0.00  0.00    +0.000 HD
ENDBRANCH  22  25
ENDBRANCH  20  21
ENDBRANCH   4  20
TORSDOF 9
ENDMDL
MODEL 3
REMARK VINA RESULT:    -7.572      1.790      2.275
REMARK INTER + INTRA:         -12.641
REMARK INTER:                 -11.440
REMARK INTRA:                  -1.201
REMARK UNBOUND:                -1.085
REMARK  Name = 
REMARK  9 active torsions:
REMARK  status: ('A' for Active; 'I' for Inactive)
REMARK    1  A    between atoms: C_2  and  C_3
REMARK    2  A    between atoms: C_3  and  C_4
REMARK    3  A    between atoms: C_3  and  N_11
REMARK    4  A    between atoms: C_4  and  C_5
REMARK    5  A    between atoms: N_11  and  C_12
REMARK    6  A    between atoms: C_12  and  C_13
REMARK    7  A    between atoms: C_16  and  C_17
REMARK    8  A    between atoms: C_17  and  N_18
REMARK    9  A    between atoms: C_19  and  C_21
REMARK                            x       y       z     vdW  Elec       q    Type
REMARK                         _______ _______ _______ _____ _____    ______ ____
ROOT
ATOM      1  C   UNL     1      46.046   6.325  12.164  0.00  0.00    +0.000 A 
ATOM      2  C   UNL     1      46.875   7.320  11.628  0.00  0.00    +0.000 A 
ATOM      3  C   UNL     1      48.090   7.633  12.236  0.00  0.00    +0.000 A 
ATOM      4  C   UNL     1      48.500   6.953  13.389  0.00  0.00    +0.000 A 
ATOM      5  C   UNL     1      47.645   5.997  13.956  0.00  0.00    +0.000 A 
ATOM      6  C   UNL     1      46.431   5.681  13.348  0.00  0.00    +0.000 A 
ENDROOT
BRANCH   1   7
ATOM      7  C   UNL     1      44.802   5.899  11.427  0.00  0.00    +0.000 C 
BRANCH   7   8
ATOM      8  N   UNL     1      45.081   5.517  10.035  0.00  0.00    +0.000 NA
ATOM      9  H   UNL     1      44.381   5.946   9.431  0.00  0.00    +0.000 HD
BRANCH   8  10
ATOM     10  C   UNL     1      45.084   4.047   9.820  0.00  0.00    +0.000 C 
BRANCH  10  12
ATOM     11  N   UNL     1      43.106   2.823  11.345  0.00  0.00    +0.000 NA
ATOM     12  C   UNL     1      44.003   3.378  10.653  0.00  0.00    +0.000 C 
ENDBRANCH  10  12
BRANCH  10  13
ATOM     13  C   UNL     1      44.822   3.706   8.334  0.00  0.00    +0.000 C 
BRANCH  13  14
ATOM     14  C   UNL     1      45.891   2.861   7.681  0.00  0.00    +0.000 A 
ATOM     15  C   UNL     1      46.175   1.570   8.132  0.00  0.00    +0.000 A 
ATOM     16  C   UNL     1      47.172   0.846   7.494  0.00  0.00    +0.000 A 
ATOM     17  N   UNL     1      47.887   1.310   6.447  0.00  0.00    +0.000 NA
ATOM     18  C   UNL     1      47.592   2.556   6.021  0.00  0.00    +0.000 A 
ATOM     19  C   UNL     1      46.616   3.358   6.594  0.00  0.00    +0.000 A 
ENDBRANCH  13  14
ENDBRANCH  10  13
ENDBRANCH   8  10
ENDBRANCH   7   8
ENDBRANCH   1   7
BRANCH   4  20
ATOM     20  C   UNL     1      49.809   7.286  14.053  0.00  0.00    +0.000 C 
BRANCH  20  21
ATOM     21  N   UNL     1      49.714   7.063  15.469  0.00  0.00    +0.000 N 
ATOM     22  C   UNL     1      50.823   6.883  16.251  0.00  0.00    +0.000 C 
ATOM     23  O   UNL     1      51.962   6.950  15.798  0.00  0.00    +0.000 OA
ATOM     24  H   UNL     1      48.808   6.772  15.819  0.00  0.00    +0.000 HD
BRANCH  22  25
ATOM     25  C   UNL     1      50.568   6.676  17.681  0.00  0.00    +0.000 A 
ATOM     26  C   UNL     1      51.115   7.547  18.614  0.00  0.00    +0.000 A 
ATOM     27  S   UNL     1      50.638   7.215  20.218  0.00  0.00    +0.000 S 
ATOM     28  C   UNL     1      49.729   5.863  19.727  0.00  0.00    +0.000 A 
ATOM     29  N   UNL     1      49.053   5.108  20.634  0.00  0.00    +0.000 NA
ATOM     30  C   UNL     1      48.427   4.098  20.126  0.00  0.00    +0.000 A 
ATOM     31  N   UNL     1      48.418   3.773  18.794  0.00  0.00    +0.000 N 
ATOM     32  C   UNL     1      49.078   4.512  17.844  0.00  0.00    +0.000 A 
ATOM     33  O   UNL     1      49.040   4.197  16.658  0.00  0.00    +0.000 OA
ATOM     34  C   UNL     1      49.788   5.668  18.360  0.00  0.00    +0.000 A 
ATOM     35  H   UNL     1      47.912   2.966  18.461  0.00  0.00    +0.000 HD
ENDBRANCH  22  25
ENDBRANCH  20  21
ENDBRANCH   4  20
TORSDOF 9
ENDMDL
MODEL 4
REMARK VINA RESULT:    -7.328      3.965      9.570
REMARK INTER + INTRA:         -12.268
REMARK INTER:                  -9.353
REMARK INTRA:                  -2.915
REMARK UNBOUND:                -1.085
REMARK  Name = 
REMARK  9 active torsions:
REMARK  status: ('A' for Active; 'I' for Inactive)
REMARK    1  A    between atoms: C_2  and  C_3
REMARK    2  A    between atoms: C_3  and  C_4
REMARK    3  A    between atoms: C_3  and  N_11
REMARK    4  A    between atoms: C_4  and  C_5
REMARK    5  A    between atoms: N_11  and  C_12
REMARK    6  A    between atoms: C_12  and  C_13
REMARK    7  A    between atoms: C_16  and  C_17
REMARK    8  A    between atoms: C_17  and  N_18
REMARK    9  A    between atoms: C_19  and  C_21
REMARK                            x       y       z     vdW  Elec       q    Type
REMARK                         _______ _______ _______ _____ _____    ______ ____
ROOT
ATOM      1  C   UNL     1      48.228   5.695  20.474  0.00  0.00    +0.000 A 
ATOM      2  C   UNL     1      49.025   4.611  20.083  0.00  0.00    +0.000 A 
ATOM      3  C   UNL     1      48.781   3.951  18.880  0.00  0.00    +0.000 A 
ATOM      4  C   UNL     1      47.739   4.368  18.043  0.00  0.00    +0.000 A 
ATOM      5  C   UNL     1      46.908   5.417  18.461  0.00  0.00    +0.000 A 
ATOM      6  C   UNL     1      47.152   6.079  19.663  0.00  0.00    +0.000 A 
ENDROOT
BRANCH   1   7
ATOM      7  C   UNL     1      48.582   6.487  21.708  0.00  0.00    +0.000 C 
BRANCH   7   8
ATOM      8  N   UNL     1      49.812   7.272  21.534  0.00  0.00    +0.000 NA
ATOM      9  H   UNL     1      50.117   7.610  22.446  0.00  0.00    +0.000 HD
BRANCH   8  10
ATOM     10  C   UNL     1      49.647   8.425  20.611  0.00  0.00    +0.000 C 
BRANCH  10  12
ATOM     11  N   UNL     1      49.763  10.829  22.006  0.00  0.00    +0.000 NA
ATOM     12  C   UNL     1      49.710   9.739  21.374  0.00  0.00    +0.000 C 
ENDBRANCH  10  12
BRANCH  10  13
ATOM     13  C   UNL     1      50.763   8.439  19.541  0.00  0.00    +0.000 C 
BRANCH  13  14
ATOM     14  C   UNL     1      50.416   7.724  18.256  0.00  0.00    +0.000 A 
ATOM     15  C   UNL     1      49.335   8.126  17.468  0.00  0.00    +0.000 A 
ATOM     16  C   UNL     1      49.065   7.426  16.301  0.00  0.00    +0.000 A 
ATOM     17  N   UNL     1      49.793   6.374  15.868  0.00  0.00    +0.000 NA
ATOM     18  C   UNL     1      50.838   6.006  16.639  0.00  0.00    +0.000 A 
ATOM     19  C   UNL     1      51.187   6.642  17.821  0.00  0.00    +0.000 A 
ENDBRANCH  13  14
ENDBRANCH  10  13
ENDBRANCH   8  10
ENDBRANCH   7   8
ENDBRANCH   1   7
BRANCH   4  20
ATOM     20  C   UNL     1      47.468   3.660  16.742  0.00  0.00    +0.000 C 
BRANCH  20  21
ATOM     21  N   UNL     1      46.986   4.594  15.764  0.00  0.00    +0.000 N 
ATOM     22  C   UNL     1      46.894   4.273  14.436  0.00  0.00    +0.000 C 
ATOM     23  O   UNL     1      47.170   3.154  14.013  0.00  0.00    +0.000 OA
ATOM     24  H   UNL     1      46.978   5.570  16.039  0.00  0.00    +0.000 HD
BRANCH  22  25
ATOM     25  C   UNL     1      46.374   5.328  13.559  0.00  0.00    +0.000 A 
ATOM     26  C   UNL     1      47.149   6.447  13.290  0.00  0.00    +0.000 A 
ATOM     27  S   UNL     1      46.430   7.523  12.179  0.00  0.00    +0.000 S 
ATOM     28  C   UNL     1      45.033   6.557  12.062  0.00  0.00    +0.000 A 
ATOM     29  N   UNL     1      43.997   6.920  11.260  0.00  0.00    +0.000 NA
ATOM     30  C   UNL     1      42.992   6.108  11.288  0.00  0.00    +0.000 A 
ATOM     31  N   UNL     1      42.928   4.968  12.047  0.00  0.00    +0.000 N 
ATOM     32  C   UNL     1      43.954   4.560  12.862  0.00  0.00    +0.000 A 
ATOM     33  O   UNL     1      43.867   3.528  13.521  0.00  0.00    +0.000 OA
ATOM     34  C   UNL     1      45.115   5.431  12.858  0.00  0.00    +0.000 A 
ATOM     35  H   UNL     1      42.110   4.378  12.027  0.00  0.00    +0.000 HD
ENDBRANCH  22  25
ENDBRANCH  20  21
ENDBRANCH   4  20
TORSDOF 9
ENDMDL
MODEL 5
REMARK VINA RESULT:    -7.258      2.506      3.583
REMARK INTER + INTRA:         -12.162
REMARK INTER:                 -11.238
REMARK INTRA:                  -0.924
REMARK UNBOUND:                -1.085
REMARK  Name = 
REMARK  9 active torsions:
REMARK  status: ('A' for Active; 'I' for Inactive)
REMARK    1  A    between atoms: C_2  and  C_3
REMARK    2  A    between atoms: C_3  and  C_4
REMARK    3  A    between atoms: C_3  and  N_11
REMARK    4  A    between atoms: C_4  and  C_5
REMARK    5  A    between atoms: N_11  and  C_12
REMARK    6  A    between atoms: C_12  and  C_13
REMARK    7  A    between atoms: C_16  and  C_17
REMARK    8  A    between atoms: C_17  and  N_18
REMARK    9  A    between atoms: C_19  and  C_21
REMARK                            x       y       z     vdW  Elec       q    Type
REMARK                         _______ _______ _______ _____ _____    ______ ____
ROOT
ATOM      1  C   UNL     1      46.201   5.590  12.820  0.00  0.00    +0.000 A 
ATOM      2  C   UNL     1      46.720   4.874  13.907  0.00  0.00    +0.000 A 
ATOM      3  C   UNL     1      47.651   5.461  14.762  0.00  0.00    +0.000 A 
ATOM      4  C   UNL     1      48.076   6.779  14.547  0.00  0.00    +0.000 A 
ATOM      5  C   UNL     1      47.600   7.474  13.428  0.00  0.00    +0.000 A 
ATOM      6  C   UNL     1      46.666   6.889  12.573  0.00  0.00    +0.000 A 
ENDROOT
BRANCH   1   7
ATOM      7  C   UNL     1      45.096   4.997  11.982  0.00  0.00    +0.000 C 
BRANCH   7   8
ATOM      8  N   UNL     1      45.525   4.733  10.600  0.00  0.00    +0.000 NA
ATOM      9  H   UNL     1      45.094   5.424   9.987  0.00  0.00    +0.000 HD
BRANCH   8  10
ATOM     10  C   UNL     1      45.175   3.369  10.128  0.00  0.00    +0.000 C 
BRANCH  10  12
ATOM     11  N   UNL     1      42.957   2.392  11.492  0.00  0.00    +0.000 NA
ATOM     12  C   UNL     1      43.963   2.835  10.873  0.00  0.00    +0.000 C 
ENDBRANCH  10  12
BRANCH  10  13
ATOM     13  C   UNL     1      44.844   3.376   8.618  0.00  0.00    +0.000 C 
BRANCH  13  14
ATOM     14  C   UNL     1      45.872   2.698   7.742  0.00  0.00    +0.000 A 
ATOM     15  C   UNL     1      46.388   1.441   8.063  0.00  0.00    +0.000 A 
ATOM     16  C   UNL     1      47.333   0.873   7.221  0.00  0.00    +0.000 A 
ATOM     17  N   UNL     1      47.785   1.460   6.093  0.00  0.00    +0.000 NA
ATOM     18  C   UNL     1      47.269   2.671   5.795  0.00  0.00    +0.000 A 
ATOM     19  C   UNL     1      46.322   3.320   6.573  0.00  0.00    +0.000 A 
ENDBRANCH  13  14
ENDBRANCH  10  13
ENDBRANCH   8  10
ENDBRANCH   7   8
ENDBRANCH   1   7
BRANCH   4  20
ATOM     20  C   UNL     1      49.083   7.420  15.465  0.00  0.00    +0.000 C 
BRANCH  20  21
ATOM     21  N   UNL     1      50.058   6.451  15.881  0.00  0.00    +0.000 N 
ATOM     22  C   UNL     1      50.338   6.224  17.202  0.00  0.00    +0.000 C 
ATOM     23  O   UNL     1      49.739   6.799  18.106  0.00  0.00    +0.000 OA
ATOM     24  H   UNL     1      50.717   6.144  15.174  0.00  0.00    +0.000 HD
BRANCH  22  25
ATOM     25  C   UNL     1      51.349   5.196  17.472  0.00  0.00    +0.000 A 
ATOM     26  C   UNL     1      52.636   5.570  17.832  0.00  0.00    +0.000 A 
ATOM     27  S   UNL     1      53.652   4.250  18.201  0.00  0.00    +0.000 S 
ATOM     28  C   UNL     1      52.423   3.130  17.837  0.00  0.00    +0.000 A 
ATOM     29  N   UNL     1      52.641   1.793  17.944  0.00  0.00    +0.000 NA
ATOM     30  C   UNL     1      51.630   1.060  17.611  0.00  0.00    +0.000 A 
ATOM     31  N   UNL     1      50.422   1.543  17.180  0.00  0.00    +0.000 N 
ATOM     32  C   UNL     1      50.156   2.885  17.066  0.00  0.00    +0.000 A 
ATOM     33  O   UNL     1      49.058   3.283  16.686  0.00  0.00    +0.000 OA
ATOM     34  C   UNL     1      51.255   3.755  17.441  0.00  0.00    +0.000 A 
ATOM     35  H   UNL     1      49.672   0.915  16.931  0.00  0.00    +0.000 HD
ENDBRANCH  22  25
ENDBRANCH  20  21
ENDBRANCH   4  20
TORSDOF 9
ENDMDL
MODEL 6
REMARK VINA RESULT:    -7.247      3.977      5.973
REMARK INTER + INTRA:         -12.144
REMARK INTER:                 -10.828
REMARK INTRA:                  -1.317
REMARK UNBOUND:                -1.085
REMARK  Name = 
REMARK  9 active torsions:
REMARK  status: ('A' for Active; 'I' for Inactive)
REMARK    1  A    between atoms: C_2  and  C_3
REMARK    2  A    between atoms: C_3  and  C_4
REMARK    3  A    between atoms: C_3  and  N_11
REMARK    4  A    between atoms: C_4  and  C_5
REMARK    5  A    between atoms: N_11  and  C_12
REMARK    6  A    between atoms: C_12  and  C_13
REMARK    7  A    between atoms: C_16  and  C_17
REMARK    8  A    between atoms: C_17  and  N_18
REMARK    9  A    between atoms: C_19  and  C_21
REMARK                            x       y       z     vdW  Elec       q    Type
REMARK                         _______ _______ _______ _____ _____    ______ ____
ROOT
ATOM      1  C   UNL     1      45.898   6.299  12.369  0.00  0.00    +0.000 A 
ATOM      2  C   UNL     1      46.415   5.329  13.238  0.00  0.00    +0.000 A 
ATOM      3  C   UNL     1      47.508   5.619  14.053  0.00  0.00    +0.000 A 
ATOM      4  C   UNL     1      48.100   6.888  14.017  0.00  0.00    +0.000 A 
ATOM      5  C   UNL     1      47.618   7.839  13.108  0.00  0.00    +0.000 A 
ATOM      6  C   UNL     1      46.523   7.551  12.294  0.00  0.00    +0.000 A 
ENDROOT
BRANCH   1   7
ATOM      7  C   UNL     1      44.635   6.022  11.592  0.00  0.00    +0.000 C 
BRANCH   7   8
ATOM      8  N   UNL     1      44.907   5.693  10.185  0.00  0.00    +0.000 NA
ATOM      9  H   UNL     1      44.156   6.073   9.610  0.00  0.00    +0.000 HD
BRANCH   8  10
ATOM     10  C   UNL     1      45.029   4.234   9.937  0.00  0.00    +0.000 C 
BRANCH  10  12
ATOM     11  N   UNL     1      43.096   2.828  11.359  0.00  0.00    +0.000 NA
ATOM     12  C   UNL     1      43.973   3.465  10.715  0.00  0.00    +0.000 C 
ENDBRANCH  10  12
BRANCH  10  13
ATOM     13  C   UNL     1      44.846   3.912   8.436  0.00  0.00    +0.000 C 
BRANCH  13  14
ATOM     14  C   UNL     1      45.899   2.999   7.852  0.00  0.00    +0.000 A 
ATOM     15  C   UNL     1      46.831   3.463   6.920  0.00  0.00    +0.000 A 
ATOM     16  C   UNL     1      47.769   2.575   6.417  0.00  0.00    +0.000 A 
ATOM     17  N   UNL     1      47.848   1.277   6.780  0.00  0.00    +0.000 NA
ATOM     18  C   UNL     1      46.945   0.849   7.687  0.00  0.00    +0.000 A 
ATOM     19  C   UNL     1      45.968   1.659   8.246  0.00  0.00    +0.000 A 
ENDBRANCH  13  14
ENDBRANCH  10  13
ENDBRANCH   8  10
ENDBRANCH   7   8
ENDBRANCH   1   7
BRANCH   4  20
ATOM     20  C   UNL     1      49.282   7.209  14.893  0.00  0.00    +0.000 C 
BRANCH  20  21
ATOM     21  N   UNL     1      50.440   7.467  14.083  0.00  0.00    +0.000 N 
ATOM     22  C   UNL     1      50.905   8.736  13.865  0.00  0.00    +0.000 C 
ATOM     23  O   UNL     1      50.392   9.721  14.388  0.00  0.00    +0.000 OA
ATOM     24  H   UNL     1      50.731   6.719  13.463  0.00  0.00    +0.000 HD
BRANCH  22  25
ATOM     25  C   UNL     1      52.103   8.840  13.025  0.00  0.00    +0.000 A 
ATOM     26  C   UNL     1      53.226   9.504  13.500  0.00  0.00    +0.000 A 
ATOM     27  S   UNL     1      54.555   9.446  12.433  0.00  0.00    +0.000 S 
ATOM     28  C   UNL     1      53.660   8.579  11.274  0.00  0.00    +0.000 A 
ATOM     29  N   UNL     1      54.219   8.207  10.093  0.00  0.00    +0.000 NA
ATOM     30  C   UNL     1      53.417   7.578   9.298  0.00  0.00    +0.000 A 
ATOM     31  N   UNL     1      52.106   7.290   9.577  0.00  0.00    +0.000 N 
ATOM     32  C   UNL     1      51.504   7.639  10.760  0.00  0.00    +0.000 A 
ATOM     33  O   UNL     1      50.329   7.357  10.980  0.00  0.00    +0.000 OA
ATOM     34  C   UNL     1      52.365   8.338  11.696  0.00  0.00    +0.000 A 
ATOM     35  H   UNL     1      51.531   6.799   8.909  0.00  0.00    +0.000 HD
ENDBRANCH  22  25
ENDBRANCH  20  21
ENDBRANCH   4  20
TORSDOF 9
ENDMDL
MODEL 7
REMARK VINA RESULT:    -7.176      2.273      2.929
REMARK INTER + INTRA:         -12.037
REMARK INTER:                 -10.806
REMARK INTRA:                  -1.231
REMARK UNBOUND:                -1.085
REMARK  Name = 
REMARK  9 active torsions:
REMARK  status: ('A' for Active; 'I' for Inactive)
REMARK    1  A    between atoms: C_2  and  C_3
REMARK    2  A    between atoms: C_3  and  C_4
REMARK    3  A    between atoms: C_3  and  N_11
REMARK    4  A    between atoms: C_4  and  C_5
REMARK    5  A    between atoms: N_11  and  C_12
REMARK    6  A    between atoms: C_12  and  C_13
REMARK    7  A    between atoms: C_16  and  C_17
REMARK    8  A    between atoms: C_17  and  N_18
REMARK    9  A    between atoms: C_19  and  C_21
REMARK                            x       y       z     vdW  Elec       q    Type
REMARK                         _______ _______ _______ _____ _____    ______ ____
ROOT
ATOM      1  C   UNL     1      45.685   7.768  11.876  0.00  0.00    +0.000 A 
ATOM      2  C   UNL     1      45.850   8.690  12.919  0.00  0.00    +0.000 A 
ATOM      3  C   UNL     1      47.073   8.800  13.580  0.00  0.00    +0.000 A 
ATOM      4  C   UNL     1      48.155   7.993  13.204  0.00  0.00    +0.000 A 
ATOM      5  C   UNL     1      47.973   7.034  12.199  0.00  0.00    +0.000 A 
ATOM      6  C   UNL     1      46.751   6.924  11.536  0.00  0.00    +0.000 A 
ENDROOT
BRANCH   1   7
ATOM      7  C   UNL     1      44.405   7.750  11.079  0.00  0.00    +0.000 C 
BRANCH   7   8
ATOM      8  N   UNL     1      43.537   6.621  11.445  0.00  0.00    +0.000 NA
ATOM      9  H   UNL     1      43.290   6.705  12.431  0.00  0.00    +0.000 HD
BRANCH   8  10
ATOM     10  C   UNL     1      44.164   5.296  11.203  0.00  0.00    +0.000 C 
BRANCH  10  12
ATOM     11  N   UNL     1      43.637   3.558  13.309  0.00  0.00    +0.000 NA
ATOM     12  C   UNL     1      43.875   4.346  12.354  0.00  0.00    +0.000 C 
ENDBRANCH  10  12
BRANCH  10  13
ATOM     13  C   UNL     1      43.617   4.656   9.906  0.00  0.00    +0.000 C 
BRANCH  13  14
ATOM     14  C   UNL     1      44.612   3.803   9.154  0.00  0.00    +0.000 A 
ATOM     15  C   UNL     1      44.673   2.420   9.338  0.00  0.00    +0.000 A 
ATOM     16  C   UNL     1      45.612   1.692   8.622  0.00  0.00    +0.000 A 
ATOM     17  N   UNL     1      46.476   2.240   7.741  0.00  0.00    +0.000 NA
ATOM     18  C   UNL     1      46.397   3.576   7.570  0.00  0.00    +0.000 A 
ATOM     19  C   UNL     1      45.494   4.389   8.241  0.00  0.00    +0.000 A 
ENDBRANCH  13  14
ENDBRANCH  10  13
ENDBRANCH   8  10
ENDBRANCH   7   8
ENDBRANCH   1   7
BRANCH   4  20
ATOM     20  C   UNL     1      49.478   8.104  13.913  0.00  0.00    +0.000 C 
BRANCH  20  21
ATOM     21  N   UNL     1      49.546   7.148  14.982  0.00  0.00    +0.000 N 
ATOM     22  C   UNL     1      49.235   7.479  16.274  0.00  0.00    +0.000 C 
ATOM     23  O   UNL     1      48.833   8.597  16.584  0.00  0.00    +0.000 OA
ATOM     24  H   UNL     1      50.087   6.310  14.802  0.00  0.00    +0.000 HD
BRANCH  22  25
ATOM     25  C   UNL     1      49.341   6.393  17.254  0.00  0.00    +0.000 A 
ATOM     26  C   UNL     1      50.142   6.550  18.376  0.00  0.00    +0.000 A 
ATOM     27  S   UNL     1      50.073   5.230  19.454  0.00  0.00    +0.000 S 
ATOM     28  C   UNL     1      49.013   4.378  18.431  0.00  0.00    +0.000 A 
ATOM     29  N   UNL     1      48.557   3.142  18.768  0.00  0.00    +0.000 NA
ATOM     30  C   UNL     1      47.781   2.602  17.888  0.00  0.00    +0.000 A 
ATOM     31  N   UNL     1      47.421   3.184  16.699  0.00  0.00    +0.000 N 
ATOM     32  C   UNL     1      47.851   4.432  16.324  0.00  0.00    +0.000 A 
ATOM     33  O   UNL     1      47.500   4.927  15.256  0.00  0.00    +0.000 OA
ATOM     34  C   UNL     1      48.716   5.091  17.284  0.00  0.00    +0.000 A 
ATOM     35  H   UNL     1      46.814   2.705  16.052  0.00  0.00    +0.000 HD
ENDBRANCH  22  25
ENDBRANCH  20  21
ENDBRANCH   4  20
TORSDOF 9
ENDMDL
MODEL 8
REMARK VINA RESULT:    -7.166      3.252      9.234
REMARK INTER + INTRA:         -12.022
REMARK INTER:                 -10.076
REMARK INTRA:                  -1.946
REMARK UNBOUND:                -1.085
REMARK  Name = 
REMARK  9 active torsions:
REMARK  status: ('A' for Active; 'I' for Inactive)
REMARK    1  A    between atoms: C_2  and  C_3
REMARK    2  A    between atoms: C_3  and  C_4
REMARK    3  A    between atoms: C_3  and  N_11
REMARK    4  A    between atoms: C_4  and  C_5
REMARK    5  A    between atoms: N_11  and  C_12
REMARK    6  A    between atoms: C_12  and  C_13
REMARK    7  A    between atoms: C_16  and  C_17
REMARK    8  A    between atoms: C_17  and  N_18
REMARK    9  A    between atoms: C_19  and  C_21
REMARK                            x       y       z     vdW  Elec       q    Type
REMARK                         _______ _______ _______ _____ _____    ______ ____
ROOT
ATOM      1  C   UNL     1      48.853   7.994  16.181  0.00  0.00    +0.000 A 
ATOM      2  C   UNL     1      49.077   6.826  15.440  0.00  0.00    +0.000 A 
ATOM      3  C   UNL     1      48.690   6.751  14.103  0.00  0.00    +0.000 A 
ATOM      4  C   UNL     1      48.078   7.846  13.481  0.00  0.00    +0.000 A 
ATOM      5  C   UNL     1      47.804   8.994  14.238  0.00  0.00    +0.000 A 
ATOM      6  C   UNL     1      48.193   9.071  15.575  0.00  0.00    +0.000 A 
ENDROOT
BRANCH   1   7
ATOM      7  C   UNL     1      49.395   8.116  17.584  0.00  0.00    +0.000 C 
BRANCH   7   8
ATOM      8  N   UNL     1      48.355   7.909  18.602  0.00  0.00    +0.000 NA
ATOM      9  H   UNL     1      48.429   8.648  19.300  0.00  0.00    +0.000 HD
BRANCH   8  10
ATOM     10  C   UNL     1      48.446   6.586  19.273  0.00  0.00    +0.000 C 
BRANCH  10  12
ATOM     11  N   UNL     1      47.638   6.771  21.928  0.00  0.00    +0.000 NA
ATOM     12  C   UNL     1      48.004   6.687  20.724  0.00  0.00    +0.000 C 
ENDBRANCH  10  12
BRANCH  10  13
ATOM     13  C   UNL     1      47.542   5.547  18.569  0.00  0.00    +0.000 C 
BRANCH  13  14
ATOM     14  C   UNL     1      48.283   4.400  17.923  0.00  0.00    +0.000 A 
ATOM     15  C   UNL     1      47.623   3.467  17.119  0.00  0.00    +0.000 A 
ATOM     16  C   UNL     1      48.357   2.433  16.558  0.00  0.00    +0.000 A 
ATOM     17  N   UNL     1      49.686   2.273  16.732  0.00  0.00    +0.000 NA
ATOM     18  C   UNL     1      50.308   3.188  17.505  0.00  0.00    +0.000 A 
ATOM     19  C   UNL     1      49.661   4.255  18.110  0.00  0.00    +0.000 A 
ENDBRANCH  13  14
ENDBRANCH  10  13
ENDBRANCH   8  10
ENDBRANCH   7   8
ENDBRANCH   1   7
BRANCH   4  20
ATOM     20  C   UNL     1      47.656   7.773  12.038  0.00  0.00    +0.000 C 
BRANCH  20  21
ATOM     21  N   UNL     1      46.949   6.547  11.793  0.00  0.00    +0.000 N 
ATOM     22  C   UNL     1      45.584   6.468  11.865  0.00  0.00    +0.000 C 
ATOM     23  O   UNL     1      44.884   7.450  12.093  0.00  0.00    +0.000 OA
ATOM     24  H   UNL     1      47.498   5.695  11.837  0.00  0.00    +0.000 HD
BRANCH  22  25
ATOM     25  C   UNL     1      45.005   5.151  11.578  0.00  0.00    +0.000 A 
ATOM     26  C   UNL     1      44.320   4.466  12.572  0.00  0.00    +0.000 A 
ATOM     27  S   UNL     1      43.633   2.999  12.040  0.00  0.00    +0.000 S 
ATOM     28  C   UNL     1      44.275   3.200  10.477  0.00  0.00    +0.000 A 
ATOM     29  N   UNL     1      44.059   2.273   9.506  0.00  0.00    +0.000 NA
ATOM     30  C   UNL     1      44.626   2.541   8.377  0.00  0.00    +0.000 A 
ATOM     31  N   UNL     1      45.392   3.651   8.130  0.00  0.00    +0.000 N 
ATOM     32  C   UNL     1      45.629   4.616   9.077  0.00  0.00    +0.000 A 
ATOM     33  O   UNL     1      46.312   5.603   8.819  0.00  0.00    +0.000 OA
ATOM     34  C   UNL     1      45.002   4.371  10.363  0.00  0.00    +0.000 A 
ATOM     35  H   UNL     1      45.812   3.800   7.225  0.00  0.00    +0.000 HD
ENDBRANCH  22  25
ENDBRANCH  20  21
ENDBRANCH   4  20
TORSDOF 9
ENDMDL
MODEL 9
REMARK VINA RESULT:    -6.631      4.111      9.415
REMARK INTER + INTRA:         -11.204
REMARK INTER:                  -8.858
REMARK INTRA:                  -2.346
REMARK UNBOUND:                -1.085
REMARK  Name = 
REMARK  9 active torsions:
REMARK  status: ('A' for Active; 'I' for Inactive)
REMARK    1  A    between atoms: C_2  and  C_3
REMARK    2  A    between atoms: C_3  and  C_4
REMARK    3  A    between atoms: C_3  and  N_11
REMARK    4  A    between atoms: C_4  and  C_5
REMARK    5  A    between atoms: N_11  and  C_12
REMARK    6  A    between atoms: C_12  and  C_13
REMARK    7  A    between atoms: C_16  and  C_17
REMARK    8  A    between atoms: C_17  and  N_18
REMARK    9  A    between atoms: C_19  and  C_21
REMARK                            x       y       z     vdW  Elec       q    Type
REMARK                         _______ _______ _______ _____ _____    ______ ____
ROOT
ATOM      1  C   UNL     1      50.926   4.294  18.868  0.00  0.00    +0.000 A 
ATOM      2  C   UNL     1      50.888   3.449  17.750  0.00  0.00    +0.000 A 
ATOM      3  C   UNL     1      49.678   3.158  17.123  0.00  0.00    +0.000 A 
ATOM      4  C   UNL     1      48.483   3.712  17.599  0.00  0.00    +0.000 A 
ATOM      5  C   UNL     1      48.514   4.511  18.750  0.00  0.00    +0.000 A 
ATOM      6  C   UNL     1      49.725   4.805  19.377  0.00  0.00    +0.000 A 
ENDROOT
BRANCH   1   7
ATOM      7  C   UNL     1      52.250   4.711  19.456  0.00  0.00    +0.000 C 
BRANCH   7   8
ATOM      8  N   UNL     1      52.324   6.160  19.691  0.00  0.00    +0.000 NA
ATOM      9  H   UNL     1      51.413   6.571  19.490  0.00  0.00    +0.000 HD
BRANCH   8  10
ATOM     10  C   UNL     1      53.362   6.836  18.871  0.00  0.00    +0.000 C 
BRANCH  10  12
ATOM     11  N   UNL     1      54.530   5.045  17.091  0.00  0.00    +0.000 NA
ATOM     12  C   UNL     1      54.001   5.857  17.898  0.00  0.00    +0.000 C 
ENDBRANCH  10  12
BRANCH  10  13
ATOM     13  C   UNL     1      52.749   7.994  18.050  0.00  0.00    +0.000 C 
BRANCH  13  14
ATOM     14  C   UNL     1      51.369   7.718  17.500  0.00  0.00    +0.000 A 
ATOM     15  C   UNL     1      51.180   6.901  16.382  0.00  0.00    +0.000 A 
ATOM     16  C   UNL     1      49.889   6.689  15.921  0.00  0.00    +0.000 A 
ATOM     17  N   UNL     1      48.789   7.220  16.496  0.00  0.00    +0.000 NA
ATOM     18  C   UNL     1      48.990   7.999  17.579  0.00  0.00    +0.000 A 
ATOM     19  C   UNL     1      50.241   8.271  18.113  0.00  0.00    +0.000 A 
ENDBRANCH  13  14
ENDBRANCH  10  13
ENDBRANCH   8  10
ENDBRANCH   7   8
ENDBRANCH   1   7
BRANCH   4  20
ATOM     20  C   UNL     1      47.171   3.401  16.929  0.00  0.00    +0.000 C 
BRANCH  20  21
ATOM     21  N   UNL     1      46.887   4.385  15.922  0.00  0.00    +0.000 N 
ATOM     22  C   UNL     1      47.015   4.115  14.587  0.00  0.00    +0.000 C 
ATOM     23  O   UNL     1      47.330   3.004  14.171  0.00  0.00    +0.000 OA
ATOM     24  H   UNL     1      46.858   5.350  16.232  0.00  0.00    +0.000 HD
BRANCH  22  25
ATOM     25  C   UNL     1      46.679   5.217  13.678  0.00  0.00    +0.000 A 
ATOM     26  C   UNL     1      47.615   6.208  13.418  0.00  0.00    +0.000 A 
ATOM     27  S   UNL     1      47.092   7.355  12.269  0.00  0.00    +0.000 S 
ATOM     28  C   UNL     1      45.575   6.598  12.120  0.00  0.00    +0.000 A 
ATOM     29  N   UNL     1      44.626   7.090  11.280  0.00  0.00    +0.000 NA
ATOM     30  C   UNL     1      43.514   6.432  11.288  0.00  0.00    +0.000 A 
ATOM     31  N   UNL     1      43.264   5.328  12.060  0.00  0.00    +0.000 N 
ATOM     32  C   UNL     1      44.196   4.792  12.914  0.00  0.00    +0.000 A 
ATOM     33  O   UNL     1      43.941   3.795  13.585  0.00  0.00    +0.000 OA
ATOM     34  C   UNL     1      45.470   5.486  12.935  0.00  0.00    +0.000 A 
ATOM     35  H   UNL     1      42.371   4.861  12.022  0.00  0.00    +0.000 HD
ENDBRANCH  22  25
ENDBRANCH  20  21
ENDBRANCH   4  20
TORSDOF 9
ENDMDL
