MODEL 1
REMARK VINA RESULT:    -7.400      0.000      0.000
REMARK INTER + INTRA:         -10.844
REMARK INTER:                 -10.213
REMARK INTRA:                  -0.631
REMARK UNBOUND:                -0.631
REMARK  Name = 
REMARK  7 active torsions:
REMARK  status: ('A' for Active; 'I' for Inactive)
REMARK    1  A    between atoms: N_1  and  C_2
REMARK    2  A    between atoms: C_2  and  C_3
REMARK    3  A    between atoms: C_7  and  C_8
REMARK    4  A    between atoms: C_8  and  C_9
REMARK    5  A    between atoms: C_9  and  O_10
REMARK    6  A    between atoms: O_10  and  C_11
REMARK    7  A    between atoms: C_15  and  C_16
REMARK                            x       y       z     vdW  Elec       q    Type
REMARK                         _______ _______ _______ _____ _____    ______ ____
ROOT
ATOM      1  C   UNL     1      43.951   2.789  11.980  0.00  0.00    +0.000 C 
ENDROOT
BRANCH   1   2
ATOM      2  C   UNL     1      43.587   3.980  12.863  0.00  0.00    +0.000 C 
BRANCH   2   7
ATOM      3  C   UNL     1      45.442   7.286  12.365  0.00  0.00    +0.000 A 
ATOM      4  C   UNL     1      46.687   6.979  12.929  0.00  0.00    +0.000 A 
ATOM      5  C   UNL     1      46.936   5.705  13.444  0.00  0.00    +0.000 A 
ATOM      6  C   UNL     1      45.943   4.725  13.402  0.00  0.00    +0.000 A 
ATOM      7  C   UNL     1      44.693   5.007  12.840  0.00  0.00    +0.000 A 
ATOM      8  C   UNL     1      44.454   6.289  12.323  0.00  0.00    +0.000 A 
BRANCH   3   9
ATOM      9  C   UNL     1      45.170   8.657  11.800  0.00  0.00    +0.000 C 
BRANCH   9  10
ATOM     10  N   UNL     1      44.739   9.591  12.834  0.00  0.00    +0.000 NA
ATOM     11  H   UNL     1      44.206   9.084  13.538  0.00  0.00    +0.000 HD
ATOM     12  H   UNL     1      44.097  10.264  12.418  0.00  0.00    +0.000 HD
ENDBRANCH   9  10
ENDBRANCH   3   9
ENDBRANCH   2   7
ENDBRANCH   1   2
BRANCH   1  13
ATOM     13  O   UNL     1      43.435   2.976  10.656  0.00  0.00    +0.000 OA
BRANCH  13  14
ATOM     14  C   UNL     1      44.382   3.084   9.672  0.00  0.00    +0.000 A 
ATOM     15  C   UNL     1      44.605   4.349   9.141  0.00  0.00    +0.000 A 
ATOM     16  N   UNL     1      45.509   4.620   8.167  0.00  0.00    +0.000 NA
ATOM     17  C   UNL     1      46.228   3.570   7.696  0.00  0.00    +0.000 A 
ATOM     18  C   UNL     1      46.088   2.269   8.151  0.00  0.00    +0.000 A 
ATOM     19  C   UNL     1      45.142   2.036   9.157  0.00  0.00    +0.000 A 
BRANCH  18  20
ATOM     20  C   UNL     1      46.871   1.115   7.647  0.00  0.00    +0.000 C 
ATOM     21  N   UNL     1      47.939   1.334   6.826  0.00  0.00    +0.000 N 
ATOM     22  O   UNL     1      46.575  -0.034   7.958  0.00  0.00    +0.000 OA
ATOM     23  H   UNL     1      48.266   2.230   6.501  0.00  0.00    +0.000 HD
ATOM     24  H   UNL     1      48.435   0.510   6.511  0.00  0.00    +0.000 HD
ENDBRANCH  18  20
ENDBRANCH  13  14
ENDBRANCH   1  13
TORSDOF 7
ENDMDL
MODEL 2
REMARK VINA RESULT:    -7.247      2.062      6.530
REMARK INTER + INTRA:         -10.632
REMARK INTER:                  -9.894
REMARK INTRA:                  -0.738
REMARK UNBOUND:                -0.631
REMARK  Name = 
REMARK  7 active torsions:
REMARK  status: ('A' for Active; 'I' for Inactive)
REMARK    1  A    between atoms: N_1  and  C_2
REMARK    2  A    between atoms: C_2  and  C_3
REMARK    3  A    between atoms: C_7  and  C_8
REMARK    4  A    between atoms: C_8  and  C_9
REMARK    5  A    between atoms: C_9  and  O_10
REMARK    6  A    between atoms: O_10  and  C_11
REMARK    7  A    between atoms: C_15  and  C_16
REMARK                            x       y       z     vdW  Elec       q    Type
REMARK                         _______ _______ _______ _____ _____    ______ ____
ROOT
ATOM      1  C   UNL     1      43.639   3.317  11.326  0.00  0.00    +0.000 C 
ENDROOT
BRANCH   1   2
ATOM      2  C   UNL     1      44.000   2.199  10.350  0.00  0.00    +0.000 C 
BRANCH   2   7
ATOM      3  C   UNL     1      46.613   2.221   7.559  0.00  0.00    +0.000 A 
ATOM      4  C   UNL     1      46.729   3.595   7.315  0.00  0.00    +0.000 A 
ATOM      5  C   UNL     1      45.987   4.512   8.063  0.00  0.00    +0.000 A 
ATOM      6  C   UNL     1      45.121   4.065   9.062  0.00  0.00    +0.000 A 
ATOM      7  C   UNL     1      44.993   2.697   9.328  0.00  0.00    +0.000 A 
ATOM      8  C   UNL     1      45.744   1.785   8.572  0.00  0.00    +0.000 A 
BRANCH   3   9
ATOM      9  C   UNL     1      47.418   1.227   6.761  0.00  0.00    +0.000 C 
BRANCH   9  10
ATOM     10  N   UNL     1      48.492   1.876   6.017  0.00  0.00    +0.000 NA
ATOM     11  H   UNL     1      48.330   1.750   5.020  0.00  0.00    +0.000 HD
ATOM     12  H   UNL     1      49.368   1.401   6.229  0.00  0.00    +0.000 HD
ENDBRANCH   9  10
ENDBRANCH   3   9
ENDBRANCH   2   7
ENDBRANCH   1   2
BRANCH   1  13
ATOM     13  O   UNL     1      44.366   3.160  12.551  0.00  0.00    +0.000 OA
BRANCH  13  14
ATOM     14  C   UNL     1      45.270   4.154  12.823  0.00  0.00    +0.000 A 
ATOM     15  C   UNL     1      46.503   3.767  13.335  0.00  0.00    +0.000 A 
ATOM     16  N   UNL     1      47.503   4.628  13.651  0.00  0.00    +0.000 NA
ATOM     17  C   UNL     1      47.257   5.947  13.445  0.00  0.00    +0.000 A 
ATOM     18  C   UNL     1      46.065   6.443  12.940  0.00  0.00    +0.000 A 
ATOM     19  C   UNL     1      45.062   5.517  12.629  0.00  0.00    +0.000 A 
BRANCH  18  20
ATOM     20  C   UNL     1      45.787   7.881  12.707  0.00  0.00    +0.000 C 
ATOM     21  N   UNL     1      46.202   8.803  13.623  0.00  0.00    +0.000 N 
ATOM     22  O   UNL     1      45.190   8.254  11.702  0.00  0.00    +0.000 OA
ATOM     23  H   UNL     1      46.690   8.611  14.483  0.00  0.00    +0.000 HD
ATOM     24  H   UNL     1      45.983   9.769  13.413  0.00  0.00    +0.000 HD
ENDBRANCH  18  20
ENDBRANCH  13  14
ENDBRANCH   1  13
TORSDOF 7
ENDMDL
MODEL 3
REMARK VINA RESULT:    -7.011      1.501      2.058
REMARK INTER + INTRA:         -10.307
REMARK INTER:                  -9.788
REMARK INTRA:                  -0.519
REMARK UNBOUND:                -0.631
REMARK  Name = 
REMARK  7 active torsions:
REMARK  status: ('A' for Active; 'I' for Inactive)
REMARK    1  A    between atoms: N_1  and  C_2
REMARK    2  A    between atoms: C_2  and  C_3
REMARK    3  A    between atoms: C_7  and  C_8
REMARK    4  A    between atoms: C_8  and  C_9
REMARK    5  A    between atoms: C_9  and  O_10
REMARK    6  A    between atoms: O_10  and  C_11
REMARK    7  A    between atoms: C_15  and  C_16
REMARK                            x       y       z     vdW  Elec       q    Type
REMARK                         _______ _______ _______ _____ _____    ______ ____
ROOT
ATOM      1  C   UNL     1      43.582   3.956  11.283  0.00  0.00    +0.000 C 
ENDROOT
BRANCH   1   2
ATOM      2  C   UNL     1      44.622   3.888  12.400  0.00  0.00    +0.000 C 
BRANCH   2   7
ATOM      3  C   UNL     1      47.126   6.565  13.484  0.00  0.00    +0.000 A 
ATOM      4  C   UNL     1      46.636   7.681  12.795  0.00  0.00    +0.000 A 
ATOM      5  C   UNL     1      45.490   7.578  12.004  0.00  0.00    +0.000 A 
ATOM      6  C   UNL     1      44.821   6.358  11.894  0.00  0.00    +0.000 A 
ATOM      7  C   UNL     1      45.290   5.230  12.577  0.00  0.00    +0.000 A 
ATOM      8  C   UNL     1      46.441   5.345  13.370  0.00  0.00    +0.000 A 
BRANCH   3   9
ATOM      9  C   UNL     1      48.359   6.673  14.346  0.00  0.00    +0.000 C 
BRANCH   9  10
ATOM     10  N   UNL     1      48.250   5.850  15.546  0.00  0.00    +0.000 NA
ATOM     11  H   UNL     1      47.997   4.902  15.278  0.00  0.00    +0.000 HD
ATOM     12  H   UNL     1      47.481   6.204  16.114  0.00  0.00    +0.000 HD
ENDBRANCH   9  10
ENDBRANCH   3   9
ENDBRANCH   2   7
ENDBRANCH   1   2
BRANCH   1  13
ATOM     13  O   UNL     1      43.703   2.816  10.424  0.00  0.00    +0.000 OA
BRANCH  13  14
ATOM     14  C   UNL     1      44.633   2.935   9.425  0.00  0.00    +0.000 A 
ATOM     15  C   UNL     1      44.876   4.212   8.932  0.00  0.00    +0.000 A 
ATOM     16  N   UNL     1      45.767   4.495   7.950  0.00  0.00    +0.000 NA
ATOM     17  C   UNL     1      46.452   3.445   7.429  0.00  0.00    +0.000 A 
ATOM     18  C   UNL     1      46.289   2.133   7.844  0.00  0.00    +0.000 A 
ATOM     19  C   UNL     1      45.358   1.888   8.860  0.00  0.00    +0.000 A 
BRANCH  18  20
ATOM     20  C   UNL     1      47.035   0.978   7.286  0.00  0.00    +0.000 C 
ATOM     21  N   UNL     1      47.867   1.167   6.221  0.00  0.00    +0.000 N 
ATOM     22  O   UNL     1      46.915  -0.143   7.768  0.00  0.00    +0.000 OA
ATOM     23  H   UNL     1      48.034   2.038   5.743  0.00  0.00    +0.000 HD
ATOM     24  H   UNL     1      48.348   0.345   5.881  0.00  0.00    +0.000 HD
ENDBRANCH  18  20
ENDBRANCH  13  14
ENDBRANCH   1  13
TORSDOF 7
ENDMDL
MODEL 4
REMARK VINA RESULT:    -6.869      2.433      6.914
REMARK INTER + INTRA:         -10.111
REMARK INTER:                  -9.663
REMARK INTRA:                  -0.448
REMARK UNBOUND:                -0.631
REMARK  Name = 
REMARK  7 active torsions:
REMARK  status: ('A' for Active; 'I' for Inactive)
REMARK    1  A    between atoms: N_1  and  C_2
REMARK    2  A    between atoms: C_2  and  C_3
REMARK    3  A    between atoms: C_7  and  C_8
REMARK    4  A    between atoms: C_8  and  C_9
REMARK    5  A    between atoms: C_9  and  O_10
REMARK    6  A    between atoms: O_10  and  C_11
REMARK    7  A    between atoms: C_15  and  C_16
REMARK                            x       y       z     vdW  Elec       q    Type
REMARK                         _______ _______ _______ _____ _____    ______ ____
ROOT
ATOM      1  C   UNL     1      44.635   3.832   9.916  0.00  0.00    +0.000 C 
ENDROOT
BRANCH   1   2
ATOM      2  C   UNL     1      45.055   4.152   8.483  0.00  0.00    +0.000 C 
BRANCH   2   7
ATOM      3  C   UNL     1      47.082   2.012   6.048  0.00  0.00    +0.000 A 
ATOM      4  C   UNL     1      47.150   0.803   6.752  0.00  0.00    +0.000 A 
ATOM      5  C   UNL     1      46.525   0.670   7.993  0.00  0.00    +0.000 A 
ATOM      6  C   UNL     1      45.826   1.745   8.545  0.00  0.00    +0.000 A 
ATOM      7  C   UNL     1      45.740   2.961   7.859  0.00  0.00    +0.000 A 
ATOM      8  C   UNL     1      46.369   3.083   6.611  0.00  0.00    +0.000 A 
BRANCH   3   9
ATOM      9  C   UNL     1      47.747   2.160   4.703  0.00  0.00    +0.000 C 
BRANCH   9  10
ATOM     10  N   UNL     1      47.427   1.044   3.819  0.00  0.00    +0.000 NA
ATOM     11  H   UNL     1      46.667   1.318   3.200  0.00  0.00    +0.000 HD
ATOM     12  H   UNL     1      47.075   0.272   4.383  0.00  0.00    +0.000 HD
ENDBRANCH   9  10
ENDBRANCH   3   9
ENDBRANCH   2   7
ENDBRANCH   1   2
BRANCH   1  13
ATOM     13  O   UNL     1      44.308   5.037  10.618  0.00  0.00    +0.000 OA
BRANCH  13  14
ATOM     14  C   UNL     1      45.233   5.440  11.546  0.00  0.00    +0.000 A 
ATOM     15  C   UNL     1      45.757   6.719  11.407  0.00  0.00    +0.000 A 
ATOM     16  N   UNL     1      46.675   7.264  12.244  0.00  0.00    +0.000 NA
ATOM     17  C   UNL     1      47.093   6.488  13.276  0.00  0.00    +0.000 A 
ATOM     18  C   UNL     1      46.638   5.199  13.509  0.00  0.00    +0.000 A 
ATOM     19  C   UNL     1      45.692   4.679  12.619  0.00  0.00    +0.000 A 
BRANCH  18  20
ATOM     20  C   UNL     1      47.085   4.344  14.635  0.00  0.00    +0.000 C 
ATOM     21  N   UNL     1      47.181   4.878  15.888  0.00  0.00    +0.000 N 
ATOM     22  O   UNL     1      47.368   3.163  14.458  0.00  0.00    +0.000 OA
ATOM     23  H   UNL     1      46.983   5.831  16.146  0.00  0.00    +0.000 HD
ATOM     24  H   UNL     1      47.493   4.249  16.617  0.00  0.00    +0.000 HD
ENDBRANCH  18  20
ENDBRANCH  13  14
ENDBRANCH   1  13
TORSDOF 7
ENDMDL
MODEL 5
REMARK VINA RESULT:    -6.729      2.390      3.031
REMARK INTER + INTRA:          -9.918
REMARK INTER:                  -9.419
REMARK INTRA:                  -0.498
REMARK UNBOUND:                -0.631
REMARK  Name = 
REMARK  7 active torsions:
REMARK  status: ('A' for Active; 'I' for Inactive)
REMARK    1  A    between atoms: N_1  and  C_2
REMARK    2  A    between atoms: C_2  and  C_3
REMARK    3  A    between atoms: C_7  and  C_8
REMARK    4  A    between atoms: C_8  and  C_9
REMARK    5  A    between atoms: C_9  and  O_10
REMARK    6  A    between atoms: O_10  and  C_11
REMARK    7  A    between atoms: C_15  and  C_16
REMARK                            x       y       z     vdW  Elec       q    Type
REMARK                         _______ _______ _______ _____ _____    ______ ____
ROOT
ATOM      1  C   UNL     1      43.922   4.281  10.069  0.00  0.00    +0.000 C 
ENDROOT
BRANCH   1   2
ATOM      2  C   UNL     1      43.764   5.549  10.905  0.00  0.00    +0.000 C 
BRANCH   2   7
ATOM      3  C   UNL     1      46.579   5.278  13.478  0.00  0.00    +0.000 A 
ATOM      4  C   UNL     1      47.467   6.251  13.002  0.00  0.00    +0.000 A 
ATOM      5  C   UNL     1      47.149   7.009  11.873  0.00  0.00    +0.000 A 
ATOM      6  C   UNL     1      45.940   6.801  11.206  0.00  0.00    +0.000 A 
ATOM      7  C   UNL     1      45.035   5.837  11.665  0.00  0.00    +0.000 A 
ATOM      8  C   UNL     1      45.364   5.084  12.802  0.00  0.00    +0.000 A 
BRANCH   3   9
ATOM      9  C   UNL     1      46.913   4.463  14.701  0.00  0.00    +0.000 C 
BRANCH   9  10
ATOM     10  N   UNL     1      47.432   3.147  14.347  0.00  0.00    +0.000 NA
ATOM     11  H   UNL     1      48.093   2.846  15.060  0.00  0.00    +0.000 HD
ATOM     12  H   UNL     1      47.961   3.228  13.480  0.00  0.00    +0.000 HD
ENDBRANCH   9  10
ENDBRANCH   3   9
ENDBRANCH   2   7
ENDBRANCH   1   2
BRANCH   1  13
ATOM     13  O   UNL     1      44.861   4.500   9.009  0.00  0.00    +0.000 OA
BRANCH  13  14
ATOM     14  C   UNL     1      45.448   3.368   8.508  0.00  0.00    +0.000 A 
ATOM     15  C   UNL     1      45.168   2.169   9.152  0.00  0.00    +0.000 A 
ATOM     16  N   UNL     1      45.666   0.964   8.776  0.00  0.00    +0.000 NA
ATOM     17  C   UNL     1      46.492   0.958   7.699  0.00  0.00    +0.000 A 
ATOM     18  C   UNL     1      46.840   2.093   6.983  0.00  0.00    +0.000 A 
ATOM     19  C   UNL     1      46.302   3.314   7.408  0.00  0.00    +0.000 A 
BRANCH  18  20
ATOM     20  C   UNL     1      47.737   2.098   5.802  0.00  0.00    +0.000 C 
ATOM     21  N   UNL     1      47.949   3.262   5.123  0.00  0.00    +0.000 N 
ATOM     22  O   UNL     1      48.292   1.070   5.427  0.00  0.00    +0.000 OA
ATOM     23  H   UNL     1      47.542   4.159   5.336  0.00  0.00    +0.000 HD
ATOM     24  H   UNL     1      48.569   3.206   4.325  0.00  0.00    +0.000 HD
ENDBRANCH  18  20
ENDBRANCH  13  14
ENDBRANCH   1  13
TORSDOF 7
ENDMDL
MODEL 6
REMARK VINA RESULT:    -6.526      5.015      6.778
REMARK INTER + INTRA:          -9.637
REMARK INTER:                  -9.290
REMARK INTRA:                  -0.347
REMARK UNBOUND:                -0.631
REMARK  Name = 
REMARK  7 active torsions:
REMARK  status: ('A' for Active; 'I' for Inactive)
REMARK    1  A    between atoms: N_1  and  C_2
REMARK    2  A    between atoms: C_2  and  C_3
REMARK    3  A    between atoms: C_7  and  C_8
REMARK    4  A    between atoms: C_8  and  C_9
REMARK    5  A    between atoms: C_9  and  O_10
REMARK    6  A    between atoms: O_10  and  C_11
REMARK    7  A    between atoms: C_15  and  C_16
REMARK                            x       y       z     vdW  Elec       q    Type
REMARK                         _______ _______ _______ _____ _____    ______ ____
ROOT
ATOM      1  C   UNL     1      47.312   4.150  15.632  0.00  0.00    +0.000 C 
ENDROOT
BRANCH   1   2
ATOM      2  C   UNL     1      47.643   3.213  16.792  0.00  0.00    +0.000 C 
BRANCH   2   7
ATOM      3  C   UNL     1      51.309   2.379  17.489  0.00  0.00    +0.000 A 
ATOM      4  C   UNL     1      51.819   3.651  17.779  0.00  0.00    +0.000 A 
ATOM      5  C   UNL     1      50.982   4.768  17.774  0.00  0.00    +0.000 A 
ATOM      6  C   UNL     1      49.625   4.627  17.479  0.00  0.00    +0.000 A 
ATOM      7  C   UNL     1      49.091   3.366  17.191  0.00  0.00    +0.000 A 
ATOM      8  C   UNL     1      49.941   2.250  17.201  0.00  0.00    +0.000 A 
BRANCH   3   9
ATOM      9  C   UNL     1      52.206   1.168  17.502  0.00  0.00    +0.000 C 
BRANCH   9  10
ATOM     10  N   UNL     1      51.601   0.057  18.227  0.00  0.00    +0.000 NA
ATOM     11  H   UNL     1      51.715  -0.797  17.684  0.00  0.00    +0.000 HD
ATOM     12  H   UNL     1      50.598   0.221  18.297  0.00  0.00    +0.000 HD
ENDBRANCH   9  10
ENDBRANCH   3   9
ENDBRANCH   2   7
ENDBRANCH   1   2
BRANCH   1  13
ATOM     13  O   UNL     1      46.998   3.393  14.457  0.00  0.00    +0.000 OA
BRANCH  13  14
ATOM     14  C   UNL     1      46.472   4.118  13.420  0.00  0.00    +0.000 A 
ATOM     15  C   UNL     1      46.990   5.391  13.210  0.00  0.00    +0.000 A 
ATOM     16  N   UNL     1      46.580   6.229  12.224  0.00  0.00    +0.000 NA
ATOM     17  C   UNL     1      45.598   5.771  11.407  0.00  0.00    +0.000 A 
ATOM     18  C   UNL     1      45.011   4.521  11.526  0.00  0.00    +0.000 A 
ATOM     19  C   UNL     1      45.466   3.691  12.557  0.00  0.00    +0.000 A 
BRANCH  18  20
ATOM     20  C   UNL     1      43.941   4.009  10.635  0.00  0.00    +0.000 C 
ATOM     21  N   UNL     1      43.878   4.443   9.343  0.00  0.00    +0.000 N 
ATOM     22  O   UNL     1      43.114   3.201  11.043  0.00  0.00    +0.000 OA
ATOM     23  H   UNL     1      44.496   5.107   8.906  0.00  0.00    +0.000 HD
ATOM     24  H   UNL     1      43.127   4.061   8.782  0.00  0.00    +0.000 HD
ENDBRANCH  18  20
ENDBRANCH  13  14
ENDBRANCH   1  13
TORSDOF 7
ENDMDL
MODEL 7
REMARK VINA RESULT:    -6.525      2.779      6.725
REMARK INTER + INTRA:          -9.635
REMARK INTER:                  -9.125
REMARK INTRA:                  -0.510
REMARK UNBOUND:                -0.631
REMARK  Name = 
REMARK  7 active torsions:
REMARK  status: ('A' for Active; 'I' for Inactive)
REMARK    1  A    between atoms: N_1  and  C_2
REMARK    2  A    between atoms: C_2  and  C_3
REMARK    3  A    between atoms: C_7  and  C_8
REMARK    4  A    between atoms: C_8  and  C_9
REMARK    5  A    between atoms: C_9  and  O_10
REMARK    6  A    between atoms: O_10  and  C_11
REMARK    7  A    between atoms: C_15  and  C_16
REMARK                            x       y       z     vdW  Elec       q    Type
REMARK                         _______ _______ _______ _____ _____    ______ ____
ROOT
ATOM      1  C   UNL     1      43.996   4.250  10.280  0.00  0.00    +0.000 C 
ENDROOT
BRANCH   1   2
ATOM      2  C   UNL     1      44.291   4.375   8.786  0.00  0.00    +0.000 C 
BRANCH   2   7
ATOM      3  C   UNL     1      47.033   2.374   7.026  0.00  0.00    +0.000 A 
ATOM      4  C   UNL     1      46.813   1.098   7.560  0.00  0.00    +0.000 A 
ATOM      5  C   UNL     1      45.772   0.877   8.463  0.00  0.00    +0.000 A 
ATOM      6  C   UNL     1      44.939   1.931   8.844  0.00  0.00    +0.000 A 
ATOM      7  C   UNL     1      45.135   3.213   8.320  0.00  0.00    +0.000 A 
ATOM      8  C   UNL     1      46.183   3.423   7.411  0.00  0.00    +0.000 A 
BRANCH   3   9
ATOM      9  C   UNL     1      48.150   2.616   6.043  0.00  0.00    +0.000 C 
BRANCH   9  10
ATOM     10  N   UNL     1      48.263   1.528   5.077  0.00  0.00    +0.000 NA
ATOM     11  H   UNL     1      47.335   1.157   4.884  0.00  0.00    +0.000 HD
ATOM     12  H   UNL     1      48.794   0.769   5.502  0.00  0.00    +0.000 HD
ENDBRANCH   9  10
ENDBRANCH   3   9
ENDBRANCH   2   7
ENDBRANCH   1   2
BRANCH   1  13
ATOM     13  O   UNL     1      44.427   5.429  10.970  0.00  0.00    +0.000 OA
BRANCH  13  14
ATOM     14  C   UNL     1      45.391   5.227  11.922  0.00  0.00    +0.000 A 
ATOM     15  C   UNL     1      45.349   4.028  12.624  0.00  0.00    +0.000 A 
ATOM     16  N   UNL     1      46.234   3.678  13.592  0.00  0.00    +0.000 NA
ATOM     17  C   UNL     1      47.212   4.575  13.874  0.00  0.00    +0.000 A 
ATOM     18  C   UNL     1      47.348   5.798  13.237  0.00  0.00    +0.000 A 
ATOM     19  C   UNL     1      46.413   6.117  12.246  0.00  0.00    +0.000 A 
BRANCH  18  20
ATOM     20  C   UNL     1      48.417   6.783  13.534  0.00  0.00    +0.000 C 
ATOM     21  N   UNL     1      49.508   6.858  12.718  0.00  0.00    +0.000 N 
ATOM     22  O   UNL     1      48.333   7.533  14.501  0.00  0.00    +0.000 OA
ATOM     23  H   UNL     1      49.684   6.290  11.905  0.00  0.00    +0.000 HD
ATOM     24  H   UNL     1      50.206   7.547  12.969  0.00  0.00    +0.000 HD
ENDBRANCH  18  20
ENDBRANCH  13  14
ENDBRANCH   1  13
TORSDOF 7
ENDMDL
MODEL 8
REMARK VINA RESULT:    -6.258      3.562      6.824
REMARK INTER + INTRA:          -9.268
REMARK INTER:                  -8.763
REMARK INTRA:                  -0.505
REMARK UNBOUND:                -0.631
REMARK  Name = 
REMARK  7 active torsions:
REMARK  status: ('A' for Active; 'I' for Inactive)
REMARK    1  A    between atoms: N_1  and  C_2
REMARK    2  A    between atoms: C_2  and  C_3
REMARK    3  A    between atoms: C_7  and  C_8
REMARK    4  A    between atoms: C_8  and  C_9
REMARK    5  A    between atoms: C_9  and  O_10
REMARK    6  A    between atoms: O_10  and  C_11
REMARK    7  A    between atoms: C_15  and  C_16
REMARK                            x       y       z     vdW  Elec       q    Type
REMARK                         _______ _______ _______ _____ _____    ______ ____
ROOT
ATOM      1  C   UNL     1      45.631   6.356  12.578  0.00  0.00    +0.000 C 
ENDROOT
BRANCH   1   2
ATOM      2  C   UNL     1      45.207   6.503  11.118  0.00  0.00    +0.000 C 
BRANCH   2   7
ATOM      3  C   UNL     1      45.309   3.512   8.739  0.00  0.00    +0.000 A 
ATOM      4  C   UNL     1      44.542   2.581   9.451  0.00  0.00    +0.000 A 
ATOM      5  C   UNL     1      43.973   2.924  10.679  0.00  0.00    +0.000 A 
ATOM      6  C   UNL     1      44.166   4.200  11.210  0.00  0.00    +0.000 A 
ATOM      7  C   UNL     1      44.925   5.148  10.515  0.00  0.00    +0.000 A 
ATOM      8  C   UNL     1      45.490   4.794   9.281  0.00  0.00    +0.000 A 
BRANCH   3   9
ATOM      9  C   UNL     1      45.918   3.151   7.408  0.00  0.00    +0.000 C 
BRANCH   9  10
ATOM     10  N   UNL     1      46.671   4.264   6.841  0.00  0.00    +0.000 NA
ATOM     11  H   UNL     1      46.779   4.117   5.840  0.00  0.00    +0.000 HD
ATOM     12  H   UNL     1      47.611   4.256   7.236  0.00  0.00    +0.000 HD
ENDBRANCH   9  10
ENDBRANCH   3   9
ENDBRANCH   2   7
ENDBRANCH   1   2
BRANCH   1  13
ATOM     13  O   UNL     1      47.006   5.960  12.657  0.00  0.00    +0.000 OA
BRANCH  13  14
ATOM     14  C   UNL     1      47.485   5.770  13.927  0.00  0.00    +0.000 A 
ATOM     15  C   UNL     1      48.262   6.786  14.470  0.00  0.00    +0.000 A 
ATOM     16  N   UNL     1      48.805   6.751  15.714  0.00  0.00    +0.000 NA
ATOM     17  C   UNL     1      48.559   5.640  16.453  0.00  0.00    +0.000 A 
ATOM     18  C   UNL     1      47.799   4.568  16.010  0.00  0.00    +0.000 A 
ATOM     19  C   UNL     1      47.260   4.648  14.721  0.00  0.00    +0.000 A 
BRANCH  18  20
ATOM     20  C   UNL     1      47.520   3.351  16.811  0.00  0.00    +0.000 C 
ATOM     21  N   UNL     1      48.515   2.440  17.018  0.00  0.00    +0.000 N 
ATOM     22  O   UNL     1      46.409   3.152  17.291  0.00  0.00    +0.000 OA
ATOM     23  H   UNL     1      49.457   2.497  16.667  0.00  0.00    +0.000 HD
ATOM     24  H   UNL     1      48.267   1.628  17.570  0.00  0.00    +0.000 HD
ENDBRANCH  18  20
ENDBRANCH  13  14
ENDBRANCH   1  13
TORSDOF 7
ENDMDL
MODEL 9
REMARK VINA RESULT:    -6.226      2.413      7.349
REMARK INTER + INTRA:          -9.223
REMARK INTER:                  -8.827
REMARK INTRA:                  -0.396
REMARK UNBOUND:                -0.631
REMARK  Name = 
REMARK  7 active torsions:
REMARK  status: ('A' for Active; 'I' for Inactive)
REMARK    1  A    between atoms: N_1  and  C_2
REMARK    2  A    between atoms: C_2  and  C_3
REMARK    3  A    between atoms: C_7  and  C_8
REMARK    4  A    between atoms: C_8  and  C_9
REMARK    5  A    between atoms: C_9  and  O_10
REMARK    6  A    between atoms: O_10  and  C_11
REMARK    7  A    between atoms: C_15  and  C_16
REMARK                            x       y       z     vdW  Elec       q    Type
REMARK                         _______ _______ _______ _____ _____    ______ ____
ROOT
ATOM      1  C   UNL     1      44.855   4.150  10.553  0.00  0.00    +0.000 C 
ENDROOT
BRANCH   1   2
ATOM      2  C   UNL     1      44.630   4.250   9.045  0.00  0.00    +0.000 C 
BRANCH   2   7
ATOM      3  C   UNL     1      46.898   2.470   6.534  0.00  0.00    +0.000 A 
ATOM      4  C   UNL     1      46.923   1.177   7.070  0.00  0.00    +0.000 A 
ATOM      5  C   UNL     1      46.194   0.873   8.221  0.00  0.00    +0.000 A 
ATOM      6  C   UNL     1      45.431   1.859   8.849  0.00  0.00    +0.000 A 
ATOM      7  C   UNL     1      45.386   3.157   8.329  0.00  0.00    +0.000 A 
ATOM      8  C   UNL     1      46.121   3.451   7.171  0.00  0.00    +0.000 A 
BRANCH   3   9
ATOM      9  C   UNL     1      47.677   2.802   5.286  0.00  0.00    +0.000 C 
BRANCH   9  10
ATOM     10  N   UNL     1      47.955   1.611   4.492  0.00  0.00    +0.000 NA
ATOM     11  H   UNL     1      47.942   0.795   5.101  0.00  0.00    +0.000 HD
ATOM     12  H   UNL     1      48.902   1.680   4.123  0.00  0.00    +0.000 HD
ENDBRANCH   9  10
ENDBRANCH   3   9
ENDBRANCH   2   7
ENDBRANCH   1   2
BRANCH   1  13
ATOM     13  O   UNL     1      44.080   5.142  11.236  0.00  0.00    +0.000 OA
BRANCH  13  14
ATOM     14  C   UNL     1      44.802   6.164  11.794  0.00  0.00    +0.000 A 
ATOM     15  C   UNL     1      45.879   5.814  12.600  0.00  0.00    +0.000 A 
ATOM     16  N   UNL     1      46.692   6.706  13.219  0.00  0.00    +0.000 NA
ATOM     17  C   UNL     1      46.413   8.020  13.024  0.00  0.00    +0.000 A 
ATOM     18  C   UNL     1      45.365   8.481  12.242  0.00  0.00    +0.000 A 
ATOM     19  C   UNL     1      44.552   7.524  11.623  0.00  0.00    +0.000 A 
BRANCH  18  20
ATOM     20  C   UNL     1      45.053   9.914  12.018  0.00  0.00    +0.000 C 
ATOM     21  N   UNL     1      43.754  10.331  12.043  0.00  0.00    +0.000 N 
ATOM     22  O   UNL     1      45.946  10.729  11.811  0.00  0.00    +0.000 OA
ATOM     23  H   UNL     1      42.945   9.751  12.195  0.00  0.00    +0.000 HD
ATOM     24  H   UNL     1      43.601  11.318  11.882  0.00  0.00    +0.000 HD
ENDBRANCH  18  20
ENDBRANCH  13  14
ENDBRANCH   1  13
TORSDOF 7
ENDMDL
