MODEL 1
REMARK VINA RESULT:    -8.285      0.000      0.000
REMARK INTER + INTRA:         -11.669
REMARK INTER:                 -10.707
REMARK INTRA:                  -0.962
REMARK UNBOUND:                -0.962
REMARK  Name = 
REMARK  5 active torsions:
REMARK  status: ('A' for Active; 'I' for Inactive)
REMARK    1  A    between atoms: C_4  and  C_5
REMARK    2  A    between atoms: C_9  and  C_10
REMARK    3  A    between atoms: C_10  and  O_11
REMARK    4  A    between atoms: O_11  and  C_12
REMARK    5  A    between atoms: C_21  and  C_22
REMARK                            x       y       z     vdW  Elec       q    Type
REMARK                         _______ _______ _______ _____ _____    ______ ____
ROOT
ATOM      1  C   UNL     1      46.357   5.512  13.307  0.00  0.00    +0.000 A 
ATOM      2  C   UNL     1      46.038   6.744  12.707  0.00  0.00    +0.000 A 
ATOM      3  C   UNL     1      45.208   6.819  11.584  0.00  0.00    +0.000 A 
ATOM      4  C   UNL     1      44.703   5.657  11.012  0.00  0.00    +0.000 A 
ATOM      5  C   UNL     1      45.024   4.410  11.557  0.00  0.00    +0.000 A 
ATOM      6  C   UNL     1      45.815   4.354  12.717  0.00  0.00    +0.000 A 
ENDROOT
BRANCH   1  10
ATOM      7  F   UNL     1      49.779   7.401  16.229  0.00  0.00    +0.000 F 
ATOM      8  C   UNL     1      48.947   6.390  15.948  0.00  0.00    +0.000 A 
ATOM      9  C   UNL     1      48.117   6.478  14.834  0.00  0.00    +0.000 A 
ATOM     10  C   UNL     1      47.242   5.432  14.496  0.00  0.00    +0.000 A 
ATOM     11  C   UNL     1      47.239   4.303  15.342  0.00  0.00    +0.000 A 
ATOM     12  C   UNL     1      48.063   4.215  16.482  0.00  0.00    +0.000 A 
ATOM     13  C   UNL     1      48.928   5.275  16.772  0.00  0.00    +0.000 A 
BRANCH  12  14
ATOM     14  C   UNL     1      48.024   3.006  17.379  0.00  0.00    +0.000 C 
ATOM     15  F   UNL     1      48.607   3.210  18.593  0.00  0.00    +0.000 F 
ATOM     16  F   UNL     1      46.754   2.591  17.639  0.00  0.00    +0.000 F 
ATOM     17  F   UNL     1      48.664   1.935  16.835  0.00  0.00    +0.000 F 
ENDBRANCH  12  14
ENDBRANCH   1  10
BRANCH   5  18
ATOM     18  C   UNL     1      44.566   3.140  10.885  0.00  0.00    +0.000 C 
BRANCH  18  19
ATOM     19  O   UNL     1      44.228   3.398   9.523  0.00  0.00    +0.000 OA
BRANCH  19  20
ATOM     20  C   UNL     1      45.219   2.964   8.662  0.00  0.00    +0.000 A 
ATOM     21  C   UNL     1      45.872   3.933   7.915  0.00  0.00    +0.000 A 
ATOM     22  C   UNL     1      46.889   3.532   7.053  0.00  0.00    +0.000 A 
ATOM     23  C   UNL     1      47.216   2.182   6.968  0.00  0.00    +0.000 A 
ATOM     24  C   UNL     1      46.500   1.298   7.753  0.00  0.00    +0.000 A 
ATOM     25 CL   UNL     1      46.834  -0.386   7.720  0.00  0.00    +0.000 Cl
ATOM     26  N   UNL     1      45.512   1.649   8.595  0.00  0.00    +0.000 NA
ENDBRANCH  19  20
ENDBRANCH  18  19
ENDBRANCH   5  18
TORSDOF 5
ENDMDL
MODEL 2
REMARK VINA RESULT:    -7.853      3.631      4.759
REMARK INTER + INTRA:         -11.111
REMARK INTER:                 -10.309
REMARK INTRA:                  -0.802
REMARK UNBOUND:                -0.962
REMARK  Name = 
REMARK  5 active torsions:
REMARK  status: ('A' for Active; 'I' for Inactive)
REMARK    1  A    between atoms: C_4  and  C_5
REMARK    2  A    between atoms: C_9  and  C_10
REMARK    3  A    between atoms: C_10  and  O_11
REMARK    4  A    between atoms: O_11  and  C_12
REMARK    5  A    between atoms: C_21  and  C_22
REMARK                            x       y       z     vdW  Elec       q    Type
REMARK                         _______ _______ _______ _____ _____    ______ ____
ROOT
ATOM      1  C   UNL     1      46.630   6.249  12.219  0.00  0.00    +0.000 A 
ATOM      2  C   UNL     1      46.705   5.457  13.379  0.00  0.00    +0.000 A 
ATOM      3  C   UNL     1      45.936   4.298  13.525  0.00  0.00    +0.000 A 
ATOM      4  C   UNL     1      45.047   3.919  12.525  0.00  0.00    +0.000 A 
ATOM      5  C   UNL     1      44.919   4.698  11.371  0.00  0.00    +0.000 A 
ATOM      6  C   UNL     1      45.735   5.831  11.215  0.00  0.00    +0.000 A 
ENDROOT
BRANCH   1  10
ATOM      7  F   UNL     1      47.072  11.109  12.235  0.00  0.00    +0.000 F 
ATOM      8  C   UNL     1      47.647   9.909  12.081  0.00  0.00    +0.000 A 
ATOM      9  C   UNL     1      46.878   8.759  12.234  0.00  0.00    +0.000 A 
ATOM     10  C   UNL     1      47.441   7.482  12.065  0.00  0.00    +0.000 A 
ATOM     11  C   UNL     1      48.815   7.427  11.749  0.00  0.00    +0.000 A 
ATOM     12  C   UNL     1      49.603   8.587  11.613  0.00  0.00    +0.000 A 
ATOM     13  C   UNL     1      48.997   9.837  11.776  0.00  0.00    +0.000 A 
BRANCH  12  14
ATOM     14  C   UNL     1      51.072   8.497  11.295  0.00  0.00    +0.000 C 
ATOM     15  F   UNL     1      51.515   9.493  10.479  0.00  0.00    +0.000 F 
ATOM     16  F   UNL     1      51.851   8.552  12.410  0.00  0.00    +0.000 F 
ATOM     17  F   UNL     1      51.397   7.333  10.669  0.00  0.00    +0.000 F 
ENDBRANCH  12  14
ENDBRANCH   1  10
BRANCH   5  18
ATOM     18  C   UNL     1      43.885   4.354  10.327  0.00  0.00    +0.000 C 
BRANCH  18  19
ATOM     19  O   UNL     1      43.974   2.972   9.984  0.00  0.00    +0.000 OA
BRANCH  19  20
ATOM     20  C   UNL     1      44.925   2.751   9.006  0.00  0.00    +0.000 A 
ATOM     21  C   UNL     1      45.323   3.848   8.256  0.00  0.00    +0.000 A 
ATOM     22  C   UNL     1      46.294   3.664   7.275  0.00  0.00    +0.000 A 
ATOM     23  C   UNL     1      46.832   2.396   7.080  0.00  0.00    +0.000 A 
ATOM     24  C   UNL     1      46.363   1.369   7.879  0.00  0.00    +0.000 A 
ATOM     25 CL   UNL     1      46.968  -0.229   7.715  0.00  0.00    +0.000 Cl
ATOM     26  N   UNL     1      45.425   1.510   8.833  0.00  0.00    +0.000 NA
ENDBRANCH  19  20
ENDBRANCH  18  19
ENDBRANCH   5  18
TORSDOF 5
ENDMDL
MODEL 3
REMARK VINA RESULT:    -7.752      4.859      8.023
REMARK INTER + INTRA:         -10.980
REMARK INTER:                  -9.982
REMARK INTRA:                  -0.998
REMARK UNBOUND:                -0.962
REMARK  Name = 
REMARK  5 active torsions:
REMARK  status: ('A' for Active; 'I' for Inactive)
REMARK    1  A    between atoms: C_4  and  C_5
REMARK    2  A    between atoms: C_9  and  C_10
REMARK    3  A    between atoms: C_10  and  O_11
REMARK    4  A    between atoms: O_11  and  C_12
REMARK    5  A    between atoms: C_21  and  C_22
REMARK                            x       y       z     vdW  Elec       q    Type
REMARK                         _______ _______ _______ _____ _____    ______ ____
ROOT
ATOM      1  C   UNL     1      45.550   6.563  11.662  0.00  0.00    +0.000 A 
ATOM      2  C   UNL     1      44.802   7.747  11.531  0.00  0.00    +0.000 A 
ATOM      3  C   UNL     1      45.205   8.939  12.141  0.00  0.00    +0.000 A 
ATOM      4  C   UNL     1      46.352   8.968  12.926  0.00  0.00    +0.000 A 
ATOM      5  C   UNL     1      47.105   7.805  13.109  0.00  0.00    +0.000 A 
ATOM      6  C   UNL     1      46.717   6.627  12.447  0.00  0.00    +0.000 A 
ENDROOT
BRANCH   1  10
ATOM      7  F   UNL     1      42.931   2.445  11.652  0.00  0.00    +0.000 F 
ATOM      8  C   UNL     1      43.803   3.247  11.027  0.00  0.00    +0.000 A 
ATOM      9  C   UNL     1      44.195   4.436  11.636  0.00  0.00    +0.000 A 
ATOM     10  C   UNL     1      45.120   5.296  11.020  0.00  0.00    +0.000 A 
ATOM     11  C   UNL     1      45.617   4.903   9.759  0.00  0.00    +0.000 A 
ATOM     12  C   UNL     1      45.210   3.710   9.129  0.00  0.00    +0.000 A 
ATOM     13  C   UNL     1      44.297   2.878   9.786  0.00  0.00    +0.000 A 
BRANCH  12  14
ATOM     14  C   UNL     1      45.742   3.325   7.773  0.00  0.00    +0.000 C 
ATOM     15  F   UNL     1      46.424   2.146   7.771  0.00  0.00    +0.000 F 
ATOM     16  F   UNL     1      44.754   3.188   6.847  0.00  0.00    +0.000 F 
ATOM     17  F   UNL     1      46.602   4.253   7.271  0.00  0.00    +0.000 F 
ENDBRANCH  12  14
ENDBRANCH   1  10
BRANCH   5  18
ATOM     18  C   UNL     1      48.292   7.800  14.040  0.00  0.00    +0.000 C 
BRANCH  18  19
ATOM     19  O   UNL     1      48.723   6.461  14.280  0.00  0.00    +0.000 OA
BRANCH  19  20
ATOM     20  C   UNL     1      48.512   6.086  15.594  0.00  0.00    +0.000 A 
ATOM     21  C   UNL     1      48.810   7.024  16.571  0.00  0.00    +0.000 A 
ATOM     22  C   UNL     1      48.590   6.686  17.903  0.00  0.00    +0.000 A 
ATOM     23  C   UNL     1      48.082   5.428  18.211  0.00  0.00    +0.000 A 
ATOM     24  C   UNL     1      47.823   4.566  17.162  0.00  0.00    +0.000 A 
ATOM     25 CL   UNL     1      47.192   2.994  17.441  0.00  0.00    +0.000 Cl
ATOM     26  N   UNL     1      48.025   4.858  15.864  0.00  0.00    +0.000 NA
ENDBRANCH  19  20
ENDBRANCH  18  19
ENDBRANCH   5  18
TORSDOF 5
ENDMDL
MODEL 4
REMARK VINA RESULT:    -7.747      3.751      5.581
REMARK INTER + INTRA:         -10.974
REMARK INTER:                  -9.932
REMARK INTRA:                  -1.042
REMARK UNBOUND:                -0.962
REMARK  Name = 
REMARK  5 active torsions:
REMARK  status: ('A' for Active; 'I' for Inactive)
REMARK    1  A    between atoms: C_4  and  C_5
REMARK    2  A    between atoms: C_9  and  C_10
REMARK    3  A    between atoms: C_10  and  O_11
REMARK    4  A    between atoms: O_11  and  C_12
REMARK    5  A    between atoms: C_21  and  C_22
REMARK                            x       y       z     vdW  Elec       q    Type
REMARK                         _______ _______ _______ _____ _____    ______ ____
ROOT
ATOM      1  C   UNL     1      45.998   6.167  12.411  0.00  0.00    +0.000 A 
ATOM      2  C   UNL     1      46.749   5.582  13.447  0.00  0.00    +0.000 A 
ATOM      3  C   UNL     1      46.741   4.200  13.667  0.00  0.00    +0.000 A 
ATOM      4  C   UNL     1      45.954   3.372  12.874  0.00  0.00    +0.000 A 
ATOM      5  C   UNL     1      45.168   3.918  11.856  0.00  0.00    +0.000 A 
ATOM      6  C   UNL     1      45.226   5.301  11.612  0.00  0.00    +0.000 A 
ENDROOT
BRANCH   1  10
ATOM      7  F   UNL     1      48.189  10.524  12.604  0.00  0.00    +0.000 F 
ATOM      8  C   UNL     1      47.110   9.800  12.279  0.00  0.00    +0.000 A 
ATOM      9  C   UNL     1      47.120   8.424  12.494  0.00  0.00    +0.000 A 
ATOM     10  C   UNL     1      46.002   7.633  12.180  0.00  0.00    +0.000 A 
ATOM     11  C   UNL     1      44.884   8.295  11.630  0.00  0.00    +0.000 A 
ATOM     12  C   UNL     1      44.875   9.684  11.393  0.00  0.00    +0.000 A 
ATOM     13  C   UNL     1      46.005  10.434  11.733  0.00  0.00    +0.000 A 
BRANCH  12  14
ATOM     14  C   UNL     1      43.674  10.361  10.785  0.00  0.00    +0.000 C 
ATOM     15  F   UNL     1      43.556  10.161   9.443  0.00  0.00    +0.000 F 
ATOM     16  F   UNL     1      42.503   9.934  11.332  0.00  0.00    +0.000 F 
ATOM     17  F   UNL     1      43.698  11.711  10.958  0.00  0.00    +0.000 F 
ENDBRANCH  12  14
ENDBRANCH   1  10
BRANCH   5  18
ATOM     18  C   UNL     1      44.233   3.043  11.058  0.00  0.00    +0.000 C 
BRANCH  18  19
ATOM     19  O   UNL     1      44.030   3.596   9.758  0.00  0.00    +0.000 OA
BRANCH  19  20
ATOM     20  C   UNL     1      45.019   3.202   8.877  0.00  0.00    +0.000 A 
ATOM     21  C   UNL     1      45.643   4.200   8.143  0.00  0.00    +0.000 A 
ATOM     22  C   UNL     1      46.658   3.839   7.261  0.00  0.00    +0.000 A 
ATOM     23  C   UNL     1      47.013   2.499   7.145  0.00  0.00    +0.000 A 
ATOM     24  C   UNL     1      46.325   1.583   7.919  0.00  0.00    +0.000 A 
ATOM     25 CL   UNL     1      46.693  -0.093   7.847  0.00  0.00    +0.000 Cl
ATOM     26  N   UNL     1      45.339   1.895   8.779  0.00  0.00    +0.000 NA
ENDBRANCH  19  20
ENDBRANCH  18  19
ENDBRANCH   5  18
TORSDOF 5
ENDMDL
MODEL 5
REMARK VINA RESULT:    -7.479      3.816      4.707
REMARK INTER + INTRA:         -10.627
REMARK INTER:                  -9.677
REMARK INTRA:                  -0.950
REMARK UNBOUND:                -0.962
REMARK  Name = 
REMARK  5 active torsions:
REMARK  status: ('A' for Active; 'I' for Inactive)
REMARK    1  A    between atoms: C_4  and  C_5
REMARK    2  A    between atoms: C_9  and  C_10
REMARK    3  A    between atoms: C_10  and  O_11
REMARK    4  A    between atoms: O_11  and  C_12
REMARK    5  A    between atoms: C_21  and  C_22
REMARK                            x       y       z     vdW  Elec       q    Type
REMARK                         _______ _______ _______ _____ _____    ______ ____
ROOT
ATOM      1  C   UNL     1      45.009   6.145  11.904  0.00  0.00    +0.000 A 
ATOM      2  C   UNL     1      44.072   5.881  12.920  0.00  0.00    +0.000 A 
ATOM      3  C   UNL     1      43.244   4.756  12.878  0.00  0.00    +0.000 A 
ATOM      4  C   UNL     1      43.309   3.881  11.798  0.00  0.00    +0.000 A 
ATOM      5  C   UNL     1      44.203   4.126  10.752  0.00  0.00    +0.000 A 
ATOM      6  C   UNL     1      45.066   5.232  10.833  0.00  0.00    +0.000 A 
ENDROOT
BRANCH   1  10
ATOM      7  F   UNL     1      45.640  10.979  12.135  0.00  0.00    +0.000 F 
ATOM      8  C   UNL     1      46.184   9.757  12.065  0.00  0.00    +0.000 A 
ATOM      9  C   UNL     1      45.353   8.641  12.034  0.00  0.00    +0.000 A 
ATOM     10  C   UNL     1      45.885   7.343  11.945  0.00  0.00    +0.000 A 
ATOM     11  C   UNL     1      47.291   7.230  11.903  0.00  0.00    +0.000 A 
ATOM     12  C   UNL     1      48.137   8.355  11.955  0.00  0.00    +0.000 A 
ATOM     13  C   UNL     1      47.563   9.628  12.029  0.00  0.00    +0.000 A 
BRANCH  12  14
ATOM     14  C   UNL     1      49.636   8.203  11.929  0.00  0.00    +0.000 C 
ATOM     15  F   UNL     1      50.084   7.395  10.928  0.00  0.00    +0.000 F 
ATOM     16  F   UNL     1      50.276   9.393  11.765  0.00  0.00    +0.000 F 
ATOM     17  F   UNL     1      50.123   7.670  13.083  0.00  0.00    +0.000 F 
ENDBRANCH  12  14
ENDBRANCH   1  10
BRANCH   5  18
ATOM     18  C   UNL     1      44.210   3.243   9.529  0.00  0.00    +0.000 C 
BRANCH  18  19
ATOM     19  O   UNL     1      45.039   3.812   8.516  0.00  0.00    +0.000 OA
BRANCH  19  20
ATOM     20  C   UNL     1      45.797   2.848   7.878  0.00  0.00    +0.000 A 
ATOM     21  C   UNL     1      45.889   1.609   8.496  0.00  0.00    +0.000 A 
ATOM     22  C   UNL     1      46.629   0.610   7.870  0.00  0.00    +0.000 A 
ATOM     23  C   UNL     1      47.248   0.882   6.654  0.00  0.00    +0.000 A 
ATOM     24  C   UNL     1      47.097   2.151   6.126  0.00  0.00    +0.000 A 
ATOM     25 CL   UNL     1      47.820   2.580   4.630  0.00  0.00    +0.000 Cl
ATOM     26  N   UNL     1      46.392   3.140   6.703  0.00  0.00    +0.000 NA
ENDBRANCH  19  20
ENDBRANCH  18  19
ENDBRANCH   5  18
TORSDOF 5
ENDMDL
MODEL 6
REMARK VINA RESULT:    -7.329      4.962      7.779
REMARK INTER + INTRA:         -10.433
REMARK INTER:                  -9.500
REMARK INTRA:                  -0.933
REMARK UNBOUND:                -0.962
REMARK  Name = 
REMARK  5 active torsions:
REMARK  status: ('A' for Active; 'I' for Inactive)
REMARK    1  A    between atoms: C_4  and  C_5
REMARK    2  A    between atoms: C_9  and  C_10
REMARK    3  A    between atoms: C_10  and  O_11
REMARK    4  A    between atoms: O_11  and  C_12
REMARK    5  A    between atoms: C_21  and  C_22
REMARK                            x       y       z     vdW  Elec       q    Type
REMARK                         _______ _______ _______ _____ _____    ______ ____
ROOT
ATOM      1  C   UNL     1      47.038   6.627  12.491  0.00  0.00    +0.000 A 
ATOM      2  C   UNL     1      47.493   7.712  11.720  0.00  0.00    +0.000 A 
ATOM      3  C   UNL     1      48.620   8.452  12.090  0.00  0.00    +0.000 A 
ATOM      4  C   UNL     1      49.303   8.144  13.262  0.00  0.00    +0.000 A 
ATOM      5  C   UNL     1      48.862   7.095  14.073  0.00  0.00    +0.000 A 
ATOM      6  C   UNL     1      47.760   6.326  13.662  0.00  0.00    +0.000 A 
ENDROOT
BRANCH   1  10
ATOM      7  F   UNL     1      42.521   4.999  13.367  0.00  0.00    +0.000 F 
ATOM      8  C   UNL     1      43.582   5.044  12.551  0.00  0.00    +0.000 A 
ATOM      9  C   UNL     1      44.699   5.786  12.923  0.00  0.00    +0.000 A 
ATOM     10  C   UNL     1      45.838   5.845  12.102  0.00  0.00    +0.000 A 
ATOM     11  C   UNL     1      45.786   5.130  10.886  0.00  0.00    +0.000 A 
ATOM     12  C   UNL     1      44.651   4.393  10.495  0.00  0.00    +0.000 A 
ATOM     13  C   UNL     1      43.546   4.352  11.350  0.00  0.00    +0.000 A 
BRANCH  12  14
ATOM     14  C   UNL     1      44.616   3.656   9.181  0.00  0.00    +0.000 C 
ATOM     15  F   UNL     1      45.852   3.390   8.673  0.00  0.00    +0.000 F 
ATOM     16  F   UNL     1      43.983   2.455   9.275  0.00  0.00    +0.000 F 
ATOM     17  F   UNL     1      43.959   4.352   8.213  0.00  0.00    +0.000 F 
ENDBRANCH  12  14
ENDBRANCH   1  10
BRANCH   5  18
ATOM     18  C   UNL     1      49.533   6.818  15.397  0.00  0.00    +0.000 C 
BRANCH  18  19
ATOM     19  O   UNL     1      48.552   6.543  16.397  0.00  0.00    +0.000 OA
BRANCH  19  20
ATOM     20  C   UNL     1      48.600   5.225  16.808  0.00  0.00    +0.000 A 
ATOM     21  C   UNL     1      47.387   4.581  16.999  0.00  0.00    +0.000 A 
ATOM     22  C   UNL     1      47.401   3.245  17.394  0.00  0.00    +0.000 A 
ATOM     23  C   UNL     1      48.621   2.604  17.582  0.00  0.00    +0.000 A 
ATOM     24  C   UNL     1      49.772   3.339  17.369  0.00  0.00    +0.000 A 
ATOM     25 CL   UNL     1      51.324   2.633  17.572  0.00  0.00    +0.000 Cl
ATOM     26  N   UNL     1      49.797   4.629  16.989  0.00  0.00    +0.000 NA
ENDBRANCH  19  20
ENDBRANCH  18  19
ENDBRANCH   5  18
TORSDOF 5
ENDMDL
MODEL 7
REMARK VINA RESULT:    -7.242      1.736      3.003
REMARK INTER + INTRA:         -10.321
REMARK INTER:                  -9.420
REMARK INTRA:                  -0.901
REMARK UNBOUND:                -0.962
REMARK  Name = 
REMARK  5 active torsions:
REMARK  status: ('A' for Active; 'I' for Inactive)
REMARK    1  A    between atoms: C_4  and  C_5
REMARK    2  A    between atoms: C_9  and  C_10
REMARK    3  A    between atoms: C_10  and  O_11
REMARK    4  A    between atoms: O_11  and  C_12
REMARK    5  A    between atoms: C_21  and  C_22
REMARK                            x       y       z     vdW  Elec       q    Type
REMARK                         _______ _______ _______ _____ _____    ______ ____
ROOT
ATOM      1  C   UNL     1      47.331   5.597  14.167  0.00  0.00    +0.000 A 
ATOM      2  C   UNL     1      48.164   6.513  13.498  0.00  0.00    +0.000 A 
ATOM      3  C   UNL     1      47.846   6.996  12.224  0.00  0.00    +0.000 A 
ATOM      4  C   UNL     1      46.701   6.550  11.574  0.00  0.00    +0.000 A 
ATOM      5  C   UNL     1      45.865   5.615  12.191  0.00  0.00    +0.000 A 
ATOM      6  C   UNL     1      46.168   5.178  13.492  0.00  0.00    +0.000 A 
ENDROOT
BRANCH   1  10
ATOM      7  F   UNL     1      46.826   2.312  17.741  0.00  0.00    +0.000 F 
ATOM      8  C   UNL     1      47.411   3.429  17.289  0.00  0.00    +0.000 A 
ATOM      9  C   UNL     1      47.090   3.903  16.019  0.00  0.00    +0.000 A 
ATOM     10  C   UNL     1      47.670   5.080  15.516  0.00  0.00    +0.000 A 
ATOM     11  C   UNL     1      48.595   5.743  16.349  0.00  0.00    +0.000 A 
ATOM     12  C   UNL     1      48.938   5.259  17.627  0.00  0.00    +0.000 A 
ATOM     13  C   UNL     1      48.326   4.091  18.093  0.00  0.00    +0.000 A 
BRANCH  12  14
ATOM     14  C   UNL     1      49.945   5.978  18.487  0.00  0.00    +0.000 C 
ATOM     15  F   UNL     1      49.566   7.240  18.829  0.00  0.00    +0.000 F 
ATOM     16  F   UNL     1      50.185   5.329  19.659  0.00  0.00    +0.000 F 
ATOM     17  F   UNL     1      51.153   6.106  17.874  0.00  0.00    +0.000 F 
ENDBRANCH  12  14
ENDBRANCH   1  10
BRANCH   5  18
ATOM     18  C   UNL     1      44.677   5.046  11.454  0.00  0.00    +0.000 C 
BRANCH  18  19
ATOM     19  O   UNL     1      44.766   5.358  10.064  0.00  0.00    +0.000 OA
BRANCH  19  20
ATOM     20  C   UNL     1      45.157   4.261   9.321  0.00  0.00    +0.000 A 
ATOM     21  C   UNL     1      44.855   3.010   9.838  0.00  0.00    +0.000 A 
ATOM     22  C   UNL     1      45.218   1.884   9.104  0.00  0.00    +0.000 A 
ATOM     23  C   UNL     1      45.866   2.046   7.884  0.00  0.00    +0.000 A 
ATOM     24  C   UNL     1      46.124   3.337   7.461  0.00  0.00    +0.000 A 
ATOM     25 CL   UNL     1      46.916   3.639   5.968  0.00  0.00    +0.000 Cl
ATOM     26  N   UNL     1      45.790   4.447   8.144  0.00  0.00    +0.000 NA
ENDBRANCH  19  20
ENDBRANCH  18  19
ENDBRANCH   5  18
TORSDOF 5
ENDMDL
MODEL 8
REMARK VINA RESULT:    -6.797      4.817      7.480
REMARK INTER + INTRA:          -9.747
REMARK INTER:                  -8.752
REMARK INTRA:                  -0.995
REMARK UNBOUND:                -0.962
REMARK  Name = 
REMARK  5 active torsions:
REMARK  status: ('A' for Active; 'I' for Inactive)
REMARK    1  A    between atoms: C_4  and  C_5
REMARK    2  A    between atoms: C_9  and  C_10
REMARK    3  A    between atoms: C_10  and  O_11
REMARK    4  A    between atoms: O_11  and  C_12
REMARK    5  A    between atoms: C_21  and  C_22
REMARK                            x       y       z     vdW  Elec       q    Type
REMARK                         _______ _______ _______ _____ _____    ______ ____
ROOT
ATOM      1  C   UNL     1      47.862   7.209  12.592  0.00  0.00    +0.000 A 
ATOM      2  C   UNL     1      48.632   8.051  11.769  0.00  0.00    +0.000 A 
ATOM      3  C   UNL     1      49.896   8.502  12.160  0.00  0.00    +0.000 A 
ATOM      4  C   UNL     1      50.409   8.148  13.403  0.00  0.00    +0.000 A 
ATOM      5  C   UNL     1      49.662   7.340  14.265  0.00  0.00    +0.000 A 
ATOM      6  C   UNL     1      48.416   6.851  13.837  0.00  0.00    +0.000 A 
ENDROOT
BRANCH   1  10
ATOM      7  F   UNL     1      43.346   8.051  10.945  0.00  0.00    +0.000 F 
ATOM      8  C   UNL     1      44.269   7.170  11.353  0.00  0.00    +0.000 A 
ATOM      9  C   UNL     1      45.528   7.626  11.731  0.00  0.00    +0.000 A 
ATOM     10  C   UNL     1      46.518   6.734  12.180  0.00  0.00    +0.000 A 
ATOM     11  C   UNL     1      46.177   5.366  12.215  0.00  0.00    +0.000 A 
ATOM     12  C   UNL     1      44.910   4.896  11.815  0.00  0.00    +0.000 A 
ATOM     13  C   UNL     1      43.952   5.821  11.388  0.00  0.00    +0.000 A 
BRANCH  12  14
ATOM     14  C   UNL     1      44.580   3.427  11.843  0.00  0.00    +0.000 C 
ATOM     15  F   UNL     1      44.590   2.842  10.613  0.00  0.00    +0.000 F 
ATOM     16  F   UNL     1      45.453   2.712  12.604  0.00  0.00    +0.000 F 
ATOM     17  F   UNL     1      43.345   3.182  12.360  0.00  0.00    +0.000 F 
ENDBRANCH  12  14
ENDBRANCH   1  10
BRANCH   5  18
ATOM     18  C   UNL     1      50.163   7.035  15.655  0.00  0.00    +0.000 C 
BRANCH  18  19
ATOM     19  O   UNL     1      49.069   6.715  16.514  0.00  0.00    +0.000 OA
BRANCH  19  20
ATOM     20  C   UNL     1      49.043   5.369  16.825  0.00  0.00    +0.000 A 
ATOM     21  C   UNL     1      47.802   4.750  16.838  0.00  0.00    +0.000 A 
ATOM     22  C   UNL     1      47.743   3.389  17.129  0.00  0.00    +0.000 A 
ATOM     23  C   UNL     1      48.921   2.698  17.394  0.00  0.00    +0.000 A 
ATOM     24  C   UNL     1      50.105   3.412  17.360  0.00  0.00    +0.000 A 
ATOM     25 CL   UNL     1      51.610   2.646  17.670  0.00  0.00    +0.000 Cl
ATOM     26  N   UNL     1      50.200   4.725  17.085  0.00  0.00    +0.000 NA
ENDBRANCH  19  20
ENDBRANCH  18  19
ENDBRANCH   5  18
TORSDOF 5
ENDMDL
MODEL 9
REMARK VINA RESULT:    -6.634      2.464      3.600
REMARK INTER + INTRA:          -9.535
REMARK INTER:                  -8.473
REMARK INTRA:                  -1.062
REMARK UNBOUND:                -0.962
REMARK  Name = 
REMARK  5 active torsions:
REMARK  status: ('A' for Active; 'I' for Inactive)
REMARK    1  A    between atoms: C_4  and  C_5
REMARK    2  A    between atoms: C_9  and  C_10
REMARK    3  A    between atoms: C_10  and  O_11
REMARK    4  A    between atoms: O_11  and  C_12
REMARK    5  A    between atoms: C_21  and  C_22
REMARK                            x       y       z     vdW  Elec       q    Type
REMARK                         _______ _______ _______ _____ _____    ______ ____
ROOT
ATOM      1  C   UNL     1      48.677   7.018  14.497  0.00  0.00    +0.000 A 
ATOM      2  C   UNL     1      49.554   8.031  14.067  0.00  0.00    +0.000 A 
ATOM      3  C   UNL     1      49.478   8.567  12.778  0.00  0.00    +0.000 A 
ATOM      4  C   UNL     1      48.542   8.080  11.873  0.00  0.00    +0.000 A 
ATOM      5  C   UNL     1      47.675   7.049  12.250  0.00  0.00    +0.000 A 
ATOM      6  C   UNL     1      47.727   6.556  13.565  0.00  0.00    +0.000 A 
ENDROOT
BRANCH   1  10
ATOM      7  F   UNL     1      49.777   7.396  19.237  0.00  0.00    +0.000 F 
ATOM      8  C   UNL     1      49.311   6.649  18.227  0.00  0.00    +0.000 A 
ATOM      9  C   UNL     1      49.230   7.200  16.951  0.00  0.00    +0.000 A 
ATOM     10  C   UNL     1      48.761   6.444  15.863  0.00  0.00    +0.000 A 
ATOM     11  C   UNL     1      48.368   5.115  16.130  0.00  0.00    +0.000 A 
ATOM     12  C   UNL     1      48.429   4.559  17.422  0.00  0.00    +0.000 A 
ATOM     13  C   UNL     1      48.915   5.343  18.473  0.00  0.00    +0.000 A 
BRANCH  12  14
ATOM     14  C   UNL     1      47.984   3.143  17.682  0.00  0.00    +0.000 C 
ATOM     15  F   UNL     1      48.256   2.709  18.944  0.00  0.00    +0.000 F 
ATOM     16  F   UNL     1      46.643   2.980  17.511  0.00  0.00    +0.000 F 
ATOM     17  F   UNL     1      48.580   2.250  16.846  0.00  0.00    +0.000 F 
ENDBRANCH  12  14
ENDBRANCH   1  10
BRANCH   5  18
ATOM     18  C   UNL     1      46.726   6.443  11.247  0.00  0.00    +0.000 C 
BRANCH  18  19
ATOM     19  O   UNL     1      45.380   6.561  11.708  0.00  0.00    +0.000 OA
BRANCH  19  20
ATOM     20  C   UNL     1      44.749   5.332  11.753  0.00  0.00    +0.000 A 
ATOM     21  C   UNL     1      44.003   5.050  12.888  0.00  0.00    +0.000 A 
ATOM     22  C   UNL     1      43.337   3.829  12.957  0.00  0.00    +0.000 A 
ATOM     23  C   UNL     1      43.439   2.937  11.893  0.00  0.00    +0.000 A 
ATOM     24  C   UNL     1      44.212   3.315  10.811  0.00  0.00    +0.000 A 
ATOM     25 CL   UNL     1      44.396   2.284   9.450  0.00  0.00    +0.000 Cl
ATOM     26  N   UNL     1      44.870   4.484  10.711  0.00  0.00    +0.000 NA
ENDBRANCH  19  20
ENDBRANCH  18  19
ENDBRANCH   5  18
TORSDOF 5
ENDMDL
