MODEL 1
REMARK VINA RESULT:    -6.986      0.000      0.000
REMARK INTER + INTRA:         -10.595
REMARK INTER:                  -9.437
REMARK INTRA:                  -1.158
REMARK UNBOUND:                -1.158
REMARK  Name = 
REMARK  6 active torsions:
REMARK  status: ('A' for Active; 'I' for Inactive)
REMARK    1  A    between atoms: C_2  and  C_3
REMARK    2  A    between atoms: C_5  and  C_6
REMARK    3  A    between atoms: C_9  and  O_10
REMARK    4  A    between atoms: O_10  and  C_11
REMARK    5  A    between atoms: C_11  and  C_12
REMARK    6  A    between atoms: C_16  and  C_17
REMARK                            x       y       z     vdW  Elec       q    Type
REMARK                         _______ _______ _______ _____ _____    ______ ____
ROOT
ATOM      1  C   UNL     1      46.363   7.206  12.461  0.00  0.00    +0.000 C 
ATOM      2  C   UNL     1      46.448   8.639  11.923  0.00  0.00    +0.000 C 
ATOM      3  C   UNL     1      45.746   8.376  13.209  0.00  0.00    +0.000 C 
ENDROOT
BRANCH   1   4
ATOM      4  C   UNL     1      45.399   6.236  11.786  0.00  0.00    +0.000 A 
ATOM      5  C   UNL     1      44.013   6.342  11.972  0.00  0.00    +0.000 A 
ATOM      6  C   UNL     1      43.121   5.565  11.229  0.00  0.00    +0.000 A 
ATOM      7  C   UNL     1      43.603   4.674  10.270  0.00  0.00    +0.000 A 
ATOM      8  C   UNL     1      44.980   4.509  10.060  0.00  0.00    +0.000 A 
ATOM      9  C   UNL     1      45.852   5.273  10.861  0.00  0.00    +0.000 A 
BRANCH   8  10
ATOM     10  C   UNL     1      45.489   3.650   8.971  0.00  0.00    +0.000 A 
ATOM     11  C   UNL     1      45.506   2.256   9.044  0.00  0.00    +0.000 A 
ATOM     12  C   UNL     1      46.102   1.525   8.018  0.00  0.00    +0.000 A 
ATOM     13  C   UNL     1      46.663   2.198   6.941  0.00  0.00    +0.000 A 
ATOM     14  C   UNL     1      46.590   3.578   6.928  0.00  0.00    +0.000 A 
ATOM     15  N   UNL     1      46.015   4.310   7.907  0.00  0.00    +0.000 NA
ENDBRANCH   8  10
ENDBRANCH   1   4
BRANCH   1  16
ATOM     16  O   UNL     1      47.701   6.734  12.734  0.00  0.00    +0.000 OA
BRANCH  16  21
ATOM     17  C   UNL     1      47.799   4.998  16.003  0.00  0.00    +0.000 A 
ATOM     18  C   UNL     1      48.715   5.825  16.663  0.00  0.00    +0.000 A 
ATOM     19  C   UNL     1      49.321   6.882  15.977  0.00  0.00    +0.000 A 
ATOM     20  C   UNL     1      48.992   7.111  14.636  0.00  0.00    +0.000 A 
ATOM     21  C   UNL     1      48.069   6.292  13.975  0.00  0.00    +0.000 A 
ATOM     22  C   UNL     1      47.481   5.230  14.656  0.00  0.00    +0.000 A 
BRANCH  17  24
ATOM     23  N   UNL     1      46.622   3.088  17.307  0.00  0.00    +0.000 NA
ATOM     24  C   UNL     1      47.148   3.937  16.720  0.00  0.00    +0.000 C 
ENDBRANCH  17  24
BRANCH  19  25
ATOM     25  C   UNL     1      50.241   7.749  16.652  0.00  0.00    +0.000 C 
ATOM     26  N   UNL     1      50.990   8.450  17.193  0.00  0.00    +0.000 NA
ENDBRANCH  19  25
ENDBRANCH  16  21
ENDBRANCH   1  16
TORSDOF 6
ENDMDL
MODEL 2
REMARK VINA RESULT:    -6.850      0.294      2.544
REMARK INTER + INTRA:         -10.411
REMARK INTER:                  -9.347
REMARK INTRA:                  -1.065
REMARK UNBOUND:                -1.158
REMARK  Name = 
REMARK  6 active torsions:
REMARK  status: ('A' for Active; 'I' for Inactive)
REMARK    1  A    between atoms: C_2  and  C_3
REMARK    2  A    between atoms: C_5  and  C_6
REMARK    3  A    between atoms: C_9  and  O_10
REMARK    4  A    between atoms: O_10  and  C_11
REMARK    5  A    between atoms: C_11  and  C_12
REMARK    6  A    between atoms: C_16  and  C_17
REMARK                            x       y       z     vdW  Elec       q    Type
REMARK                         _______ _______ _______ _____ _____    ______ ____
ROOT
ATOM      1  C   UNL     1      46.345   7.314  12.404  0.00  0.00    +0.000 C 
ATOM      2  C   UNL     1      46.424   8.726  11.812  0.00  0.00    +0.000 C 
ATOM      3  C   UNL     1      45.711   8.507  13.100  0.00  0.00    +0.000 C 
ENDROOT
BRANCH   1   4
ATOM      4  C   UNL     1      45.394   6.312  11.757  0.00  0.00    +0.000 A 
ATOM      5  C   UNL     1      44.007   6.397  11.950  0.00  0.00    +0.000 A 
ATOM      6  C   UNL     1      43.125   5.587  11.231  0.00  0.00    +0.000 A 
ATOM      7  C   UNL     1      43.617   4.683  10.289  0.00  0.00    +0.000 A 
ATOM      8  C   UNL     1      44.996   4.538  10.074  0.00  0.00    +0.000 A 
ATOM      9  C   UNL     1      45.859   5.336  10.851  0.00  0.00    +0.000 A 
BRANCH   8  10
ATOM     10  C   UNL     1      45.513   3.664   9.002  0.00  0.00    +0.000 A 
ATOM     11  C   UNL     1      45.503   2.270   9.082  0.00  0.00    +0.000 A 
ATOM     12  C   UNL     1      46.108   1.522   8.074  0.00  0.00    +0.000 A 
ATOM     13  C   UNL     1      46.706   2.178   7.007  0.00  0.00    +0.000 A 
ATOM     14  C   UNL     1      46.660   3.560   6.985  0.00  0.00    +0.000 A 
ATOM     15  N   UNL     1      46.077   4.307   7.946  0.00  0.00    +0.000 NA
ENDBRANCH   8  10
ENDBRANCH   1   4
BRANCH   1  16
ATOM     16  O   UNL     1      47.684   6.863  12.706  0.00  0.00    +0.000 OA
BRANCH  16  21
ATOM     17  C   UNL     1      49.652   6.873  15.842  0.00  0.00    +0.000 A 
ATOM     18  C   UNL     1      49.017   5.815  16.503  0.00  0.00    +0.000 A 
ATOM     19  C   UNL     1      47.914   5.188  15.915  0.00  0.00    +0.000 A 
ATOM     20  C   UNL     1      47.464   5.617  14.661  0.00  0.00    +0.000 A 
ATOM     21  C   UNL     1      48.103   6.668  13.993  0.00  0.00    +0.000 A 
ATOM     22  C   UNL     1      49.190   7.302  14.588  0.00  0.00    +0.000 A 
BRANCH  17  24
ATOM     23  N   UNL     1      51.748   7.985  16.891  0.00  0.00    +0.000 NA
ATOM     24  C   UNL     1      50.809   7.490  16.428  0.00  0.00    +0.000 C 
ENDBRANCH  17  24
BRANCH  19  25
ATOM     25  C   UNL     1      47.273   4.088  16.574  0.00  0.00    +0.000 C 
ATOM     26  N   UNL     1      46.762   3.193  17.106  0.00  0.00    +0.000 NA
ENDBRANCH  19  25
ENDBRANCH  16  21
ENDBRANCH   1  16
TORSDOF 6
ENDMDL
MODEL 3
REMARK VINA RESULT:    -6.614      1.615      3.521
REMARK INTER + INTRA:         -10.092
REMARK INTER:                  -8.818
REMARK INTRA:                  -1.275
REMARK UNBOUND:                -1.158
REMARK  Name = 
REMARK  6 active torsions:
REMARK  status: ('A' for Active; 'I' for Inactive)
REMARK    1  A    between atoms: C_2  and  C_3
REMARK    2  A    between atoms: C_5  and  C_6
REMARK    3  A    between atoms: C_9  and  O_10
REMARK    4  A    between atoms: O_10  and  C_11
REMARK    5  A    between atoms: C_11  and  C_12
REMARK    6  A    between atoms: C_16  and  C_17
REMARK                            x       y       z     vdW  Elec       q    Type
REMARK                         _______ _______ _______ _____ _____    ______ ____
ROOT
ATOM      1  C   UNL     1      48.706   7.694  13.128  0.00  0.00    +0.000 C 
ATOM      2  C   UNL     1      49.787   8.074  12.109  0.00  0.00    +0.000 C 
ATOM      3  C   UNL     1      49.282   9.099  13.063  0.00  0.00    +0.000 C 
ENDROOT
BRANCH   1   4
ATOM      4  C   UNL     1      47.275   7.514  12.631  0.00  0.00    +0.000 A 
ATOM      5  C   UNL     1      46.350   8.568  12.683  0.00  0.00    +0.000 A 
ATOM      6  C   UNL     1      45.095   8.460  12.080  0.00  0.00    +0.000 A 
ATOM      7  C   UNL     1      44.746   7.293  11.398  0.00  0.00    +0.000 A 
ATOM      8  C   UNL     1      45.622   6.199  11.338  0.00  0.00    +0.000 A 
ATOM      9  C   UNL     1      46.860   6.325  11.997  0.00  0.00    +0.000 A 
BRANCH   8  10
ATOM     10  C   UNL     1      45.301   5.009  10.525  0.00  0.00    +0.000 A 
ATOM     11  C   UNL     1      45.550   4.932   9.153  0.00  0.00    +0.000 A 
ATOM     12  C   UNL     1      45.119   3.815   8.441  0.00  0.00    +0.000 A 
ATOM     13  C   UNL     1      44.452   2.798   9.109  0.00  0.00    +0.000 A 
ATOM     14  C   UNL     1      44.258   2.934  10.472  0.00  0.00    +0.000 A 
ATOM     15  N   UNL     1      44.670   4.003  11.186  0.00  0.00    +0.000 NA
ENDBRANCH   8  10
ENDBRANCH   1   4
BRANCH   1  16
ATOM     16  O   UNL     1      49.238   6.680  14.010  0.00  0.00    +0.000 OA
BRANCH  16  21
ATOM     17  C   UNL     1      48.863   7.132  17.666  0.00  0.00    +0.000 A 
ATOM     18  C   UNL     1      48.209   5.933  17.969  0.00  0.00    +0.000 A 
ATOM     19  C   UNL     1      47.851   5.055  16.941  0.00  0.00    +0.000 A 
ATOM     20  C   UNL     1      48.165   5.379  15.617  0.00  0.00    +0.000 A 
ATOM     21  C   UNL     1      48.829   6.573  15.311  0.00  0.00    +0.000 A 
ATOM     22  C   UNL     1      49.168   7.453  16.334  0.00  0.00    +0.000 A 
BRANCH  17  24
ATOM     23  N   UNL     1      49.590   8.736  19.572  0.00  0.00    +0.000 NA
ATOM     24  C   UNL     1      49.265   8.015  18.725  0.00  0.00    +0.000 C 
ENDBRANCH  17  24
BRANCH  19  25
ATOM     25  C   UNL     1      47.203   3.813  17.246  0.00  0.00    +0.000 C 
ATOM     26  N   UNL     1      46.676   2.807  17.484  0.00  0.00    +0.000 NA
ENDBRANCH  19  25
ENDBRANCH  16  21
ENDBRANCH   1  16
TORSDOF 6
ENDMDL
MODEL 4
REMARK VINA RESULT:    -6.525      3.096      5.292
REMARK INTER + INTRA:          -9.972
REMARK INTER:                  -8.888
REMARK INTRA:                  -1.084
REMARK UNBOUND:                -1.158
REMARK  Name = 
REMARK  6 active torsions:
REMARK  status: ('A' for Active; 'I' for Inactive)
REMARK    1  A    between atoms: C_2  and  C_3
REMARK    2  A    between atoms: C_5  and  C_6
REMARK    3  A    between atoms: C_9  and  O_10
REMARK    4  A    between atoms: O_10  and  C_11
REMARK    5  A    between atoms: C_11  and  C_12
REMARK    6  A    between atoms: C_16  and  C_17
REMARK                            x       y       z     vdW  Elec       q    Type
REMARK                         _______ _______ _______ _____ _____    ______ ____
ROOT
ATOM      1  C   UNL     1      46.294   7.348  12.517  0.00  0.00    +0.000 C 
ATOM      2  C   UNL     1      47.328   6.862  13.540  0.00  0.00    +0.000 C 
ATOM      3  C   UNL     1      47.770   7.240  12.169  0.00  0.00    +0.000 C 
ENDROOT
BRANCH   1   4
ATOM      4  C   UNL     1      45.362   6.318  11.886  0.00  0.00    +0.000 A 
ATOM      5  C   UNL     1      43.983   6.335  12.141  0.00  0.00    +0.000 A 
ATOM      6  C   UNL     1      43.107   5.503  11.440  0.00  0.00    +0.000 A 
ATOM      7  C   UNL     1      43.598   4.645  10.454  0.00  0.00    +0.000 A 
ATOM      8  C   UNL     1      44.970   4.569  10.177  0.00  0.00    +0.000 A 
ATOM      9  C   UNL     1      45.830   5.387  10.936  0.00  0.00    +0.000 A 
BRANCH   8  10
ATOM     10  C   UNL     1      45.479   3.746   9.061  0.00  0.00    +0.000 A 
ATOM     11  C   UNL     1      45.480   2.350   9.082  0.00  0.00    +0.000 A 
ATOM     12  C   UNL     1      46.076   1.651   8.034  0.00  0.00    +0.000 A 
ATOM     13  C   UNL     1      46.653   2.356   6.987  0.00  0.00    +0.000 A 
ATOM     14  C   UNL     1      46.596   3.737   7.025  0.00  0.00    +0.000 A 
ATOM     15  N   UNL     1      46.022   4.438   8.026  0.00  0.00    +0.000 NA
ENDBRANCH   8  10
ENDBRANCH   1   4
BRANCH   1  16
ATOM     16  O   UNL     1      45.702   8.573  13.004  0.00  0.00    +0.000 OA
BRANCH  16  21
ATOM     17  C   UNL     1      44.256  10.893  10.505  0.00  0.00    +0.000 A 
ATOM     18  C   UNL     1      45.393  11.666  10.241  0.00  0.00    +0.000 A 
ATOM     19  C   UNL     1      46.573  11.437  10.954  0.00  0.00    +0.000 A 
ATOM     20  C   UNL     1      46.610  10.423  11.918  0.00  0.00    +0.000 A 
ATOM     21  C   UNL     1      45.479   9.641  12.178  0.00  0.00    +0.000 A 
ATOM     22  C   UNL     1      44.301   9.883  11.479  0.00  0.00    +0.000 A 
BRANCH  17  24
ATOM     23  N   UNL     1      42.082  11.267   9.141  0.00  0.00    +0.000 NA
ATOM     24  C   UNL     1      43.056  11.102   9.745  0.00  0.00    +0.000 C 
ENDBRANCH  17  24
BRANCH  19  25
ATOM     25  C   UNL     1      47.749  12.208  10.672  0.00  0.00    +0.000 C 
ATOM     26  N   UNL     1      48.700  12.829  10.437  0.00  0.00    +0.000 NA
ENDBRANCH  19  25
ENDBRANCH  16  21
ENDBRANCH   1  16
TORSDOF 6
ENDMDL
MODEL 5
REMARK VINA RESULT:    -6.119      1.803      2.931
REMARK INTER + INTRA:          -9.423
REMARK INTER:                  -8.011
REMARK INTRA:                  -1.412
REMARK UNBOUND:                -1.158
REMARK  Name = 
REMARK  6 active torsions:
REMARK  status: ('A' for Active; 'I' for Inactive)
REMARK    1  A    between atoms: C_2  and  C_3
REMARK    2  A    between atoms: C_5  and  C_6
REMARK    3  A    between atoms: C_9  and  O_10
REMARK    4  A    between atoms: O_10  and  C_11
REMARK    5  A    between atoms: C_11  and  C_12
REMARK    6  A    between atoms: C_16  and  C_17
REMARK                            x       y       z     vdW  Elec       q    Type
REMARK                         _______ _______ _______ _____ _____    ______ ____
ROOT
ATOM      1  C   UNL     1      49.168   7.946  13.494  0.00  0.00    +0.000 C 
ATOM      2  C   UNL     1      50.140   8.378  12.390  0.00  0.00    +0.000 C 
ATOM      3  C   UNL     1      49.703   9.366  13.414  0.00  0.00    +0.000 C 
ENDROOT
BRANCH   1   4
ATOM      4  C   UNL     1      47.701   7.742  13.127  0.00  0.00    +0.000 A 
ATOM      5  C   UNL     1      46.744   8.735  13.382  0.00  0.00    +0.000 A 
ATOM      6  C   UNL     1      45.438   8.622  12.900  0.00  0.00    +0.000 A 
ATOM      7  C   UNL     1      45.069   7.514  12.136  0.00  0.00    +0.000 A 
ATOM      8  C   UNL     1      45.978   6.479  11.873  0.00  0.00    +0.000 A 
ATOM      9  C   UNL     1      47.272   6.603  12.415  0.00  0.00    +0.000 A 
BRANCH   8  10
ATOM     10  C   UNL     1      45.623   5.362  10.974  0.00  0.00    +0.000 A 
ATOM     11  C   UNL     1      45.763   5.426   9.587  0.00  0.00    +0.000 A 
ATOM     12  C   UNL     1      45.305   4.368   8.803  0.00  0.00    +0.000 A 
ATOM     13  C   UNL     1      44.722   3.269   9.419  0.00  0.00    +0.000 A 
ATOM     14  C   UNL     1      44.635   3.267  10.799  0.00  0.00    +0.000 A 
ATOM     15  N   UNL     1      45.075   4.277  11.580  0.00  0.00    +0.000 NA
ENDBRANCH   8  10
ENDBRANCH   1   4
BRANCH   1  16
ATOM     16  O   UNL     1      49.802   6.924  14.295  0.00  0.00    +0.000 OA
BRANCH  16  21
ATOM     17  C   UNL     1      47.969   5.212  17.020  0.00  0.00    +0.000 A 
ATOM     18  C   UNL     1      48.043   6.212  17.996  0.00  0.00    +0.000 A 
ATOM     19  C   UNL     1      48.760   7.385  17.740  0.00  0.00    +0.000 A 
ATOM     20  C   UNL     1      49.386   7.553  16.500  0.00  0.00    +0.000 A 
ATOM     21  C   UNL     1      49.307   6.559  15.517  0.00  0.00    +0.000 A 
ATOM     22  C   UNL     1      48.607   5.385  15.782  0.00  0.00    +0.000 A 
BRANCH  17  24
ATOM     23  N   UNL     1      46.570   3.073  17.466  0.00  0.00    +0.000 NA
ATOM     24  C   UNL     1      47.200   4.025  17.269  0.00  0.00    +0.000 C 
ENDBRANCH  17  24
BRANCH  19  25
ATOM     25  C   UNL     1      48.820   8.425  18.725  0.00  0.00    +0.000 C 
ATOM     26  N   UNL     1      48.869   9.272  19.516  0.00  0.00    +0.000 NA
ENDBRANCH  19  25
ENDBRANCH  16  21
ENDBRANCH   1  16
TORSDOF 6
ENDMDL
MODEL 6
REMARK VINA RESULT:    -6.052      3.667      6.623
REMARK INTER + INTRA:          -9.333
REMARK INTER:                  -8.290
REMARK INTRA:                  -1.043
REMARK UNBOUND:                -1.158
REMARK  Name = 
REMARK  6 active torsions:
REMARK  status: ('A' for Active; 'I' for Inactive)
REMARK    1  A    between atoms: C_2  and  C_3
REMARK    2  A    between atoms: C_5  and  C_6
REMARK    3  A    between atoms: C_9  and  O_10
REMARK    4  A    between atoms: O_10  and  C_11
REMARK    5  A    between atoms: C_11  and  C_12
REMARK    6  A    between atoms: C_16  and  C_17
REMARK                            x       y       z     vdW  Elec       q    Type
REMARK                         _______ _______ _______ _____ _____    ______ ____
ROOT
ATOM      1  C   UNL     1      47.528   9.081  12.507  0.00  0.00    +0.000 C 
ATOM      2  C   UNL     1      48.915   9.425  13.061  0.00  0.00    +0.000 C 
ATOM      3  C   UNL     1      47.789   9.171  14.002  0.00  0.00    +0.000 C 
ENDROOT
BRANCH   1   4
ATOM      4  C   UNL     1      46.699  10.200  11.886  0.00  0.00    +0.000 A 
ATOM      5  C   UNL     1      47.281  11.143  11.025  0.00  0.00    +0.000 A 
ATOM      6  C   UNL     1      46.499  12.065  10.326  0.00  0.00    +0.000 A 
ATOM      7  C   UNL     1      45.111  12.050  10.465  0.00  0.00    +0.000 A 
ATOM      8  C   UNL     1      44.478  11.147  11.332  0.00  0.00    +0.000 A 
ATOM      9  C   UNL     1      45.301  10.263  12.057  0.00  0.00    +0.000 A 
BRANCH   8  10
ATOM     10  C   UNL     1      43.005  11.055  11.396  0.00  0.00    +0.000 A 
ATOM     11  C   UNL     1      42.266  10.133  10.654  0.00  0.00    +0.000 A 
ATOM     12  C   UNL     1      40.874  10.184  10.691  0.00  0.00    +0.000 A 
ATOM     13  C   UNL     1      40.249  11.149  11.468  0.00  0.00    +0.000 A 
ATOM     14  C   UNL     1      41.046  12.016  12.192  0.00  0.00    +0.000 A 
ATOM     15  N   UNL     1      42.396  11.985  12.177  0.00  0.00    +0.000 NA
ENDBRANCH   8  10
ENDBRANCH   1   4
BRANCH   1  16
ATOM     16  O   UNL     1      47.616   7.835  11.780  0.00  0.00    +0.000 OA
BRANCH  16  21
ATOM     17  C   UNL     1      44.658   5.658  12.252  0.00  0.00    +0.000 A 
ATOM     18  C   UNL     1      45.225   4.699  13.100  0.00  0.00    +0.000 A 
ATOM     19  C   UNL     1      46.583   4.769  13.423  0.00  0.00    +0.000 A 
ATOM     20  C   UNL     1      47.361   5.811  12.905  0.00  0.00    +0.000 A 
ATOM     21  C   UNL     1      46.796   6.777  12.065  0.00  0.00    +0.000 A 
ATOM     22  C   UNL     1      45.448   6.694  11.731  0.00  0.00    +0.000 A 
BRANCH  17  24
ATOM     23  N   UNL     1      42.125   5.564  11.698  0.00  0.00    +0.000 NA
ATOM     24  C   UNL     1      43.254   5.607  11.952  0.00  0.00    +0.000 C 
ENDBRANCH  17  24
BRANCH  19  25
ATOM     25  C   UNL     1      47.166   3.806  14.311  0.00  0.00    +0.000 C 
ATOM     26  N   UNL     1      47.642   3.025  15.023  0.00  0.00    +0.000 NA
ENDBRANCH  19  25
ENDBRANCH  16  21
ENDBRANCH   1  16
TORSDOF 6
ENDMDL
MODEL 7
REMARK VINA RESULT:    -5.926      3.696      6.723
REMARK INTER + INTRA:          -9.163
REMARK INTER:                  -8.260
REMARK INTRA:                  -0.903
REMARK UNBOUND:                -1.158
REMARK  Name = 
REMARK  6 active torsions:
REMARK  status: ('A' for Active; 'I' for Inactive)
REMARK    1  A    between atoms: C_2  and  C_3
REMARK    2  A    between atoms: C_5  and  C_6
REMARK    3  A    between atoms: C_9  and  O_10
REMARK    4  A    between atoms: O_10  and  C_11
REMARK    5  A    between atoms: C_11  and  C_12
REMARK    6  A    between atoms: C_16  and  C_17
REMARK                            x       y       z     vdW  Elec       q    Type
REMARK                         _______ _______ _______ _____ _____    ______ ____
ROOT
ATOM      1  C   UNL     1      47.480   9.280  12.390  0.00  0.00    +0.000 C 
ATOM      2  C   UNL     1      48.950   9.635  12.643  0.00  0.00    +0.000 C 
ATOM      3  C   UNL     1      48.009   9.530  13.792  0.00  0.00    +0.000 C 
ENDROOT
BRANCH   1   4
ATOM      4  C   UNL     1      46.570  10.351  11.797  0.00  0.00    +0.000 A 
ATOM      5  C   UNL     1      47.067  11.320  10.913  0.00  0.00    +0.000 A 
ATOM      6  C   UNL     1      46.212  12.196  10.242  0.00  0.00    +0.000 A 
ATOM      7  C   UNL     1      44.832  12.107  10.433  0.00  0.00    +0.000 A 
ATOM      8  C   UNL     1      44.282  11.175  11.325  0.00  0.00    +0.000 A 
ATOM      9  C   UNL     1      45.177  10.340  12.021  0.00  0.00    +0.000 A 
BRANCH   8  10
ATOM     10  C   UNL     1      42.819  11.005  11.445  0.00  0.00    +0.000 A 
ATOM     11  C   UNL     1      42.095  10.082  10.690  0.00  0.00    +0.000 A 
ATOM     12  C   UNL     1      40.705  10.059  10.786  0.00  0.00    +0.000 A 
ATOM     13  C   UNL     1      40.068  10.954  11.635  0.00  0.00    +0.000 A 
ATOM     14  C   UNL     1      40.852  11.827  12.367  0.00  0.00    +0.000 A 
ATOM     15  N   UNL     1      42.200  11.866  12.295  0.00  0.00    +0.000 NA
ENDBRANCH   8  10
ENDBRANCH   1   4
BRANCH   1  16
ATOM     16  O   UNL     1      47.416   7.958  11.811  0.00  0.00    +0.000 OA
BRANCH  16  21
ATOM     17  C   UNL     1      46.584   4.850  13.645  0.00  0.00    +0.000 A 
ATOM     18  C   UNL     1      45.249   4.712  13.249  0.00  0.00    +0.000 A 
ATOM     19  C   UNL     1      44.654   5.694  12.449  0.00  0.00    +0.000 A 
ATOM     20  C   UNL     1      45.408   6.799  12.040  0.00  0.00    +0.000 A 
ATOM     21  C   UNL     1      46.747   6.936  12.426  0.00  0.00    +0.000 A 
ATOM     22  C   UNL     1      47.330   5.967  13.237  0.00  0.00    +0.000 A 
BRANCH  17  24
ATOM     23  N   UNL     1      47.716   3.001  15.069  0.00  0.00    +0.000 NA
ATOM     24  C   UNL     1      47.205   3.823  14.434  0.00  0.00    +0.000 C 
ENDBRANCH  17  24
BRANCH  19  25
ATOM     25  C   UNL     1      43.295   5.548  12.017  0.00  0.00    +0.000 C 
ATOM     26  N   UNL     1      42.198   5.428  11.661  0.00  0.00    +0.000 NA
ENDBRANCH  19  25
ENDBRANCH  16  21
ENDBRANCH   1  16
TORSDOF 6
ENDMDL
MODEL 8
REMARK VINA RESULT:    -5.796      3.304      8.889
REMARK INTER + INTRA:          -8.987
REMARK INTER:                  -7.795
REMARK INTRA:                  -1.192
REMARK UNBOUND:                -1.158
REMARK  Name = 
REMARK  6 active torsions:
REMARK  status: ('A' for Active; 'I' for Inactive)
REMARK    1  A    between atoms: C_2  and  C_3
REMARK    2  A    between atoms: C_5  and  C_6
REMARK    3  A    between atoms: C_9  and  O_10
REMARK    4  A    between atoms: O_10  and  C_11
REMARK    5  A    between atoms: C_11  and  C_12
REMARK    6  A    between atoms: C_16  and  C_17
REMARK                            x       y       z     vdW  Elec       q    Type
REMARK                         _______ _______ _______ _____ _____    ______ ____
ROOT
ATOM      1  C   UNL     1      47.895   4.507  16.159  0.00  0.00    +0.000 C 
ATOM      2  C   UNL     1      48.315   3.134  16.697  0.00  0.00    +0.000 C 
ATOM      3  C   UNL     1      46.971   3.676  17.034  0.00  0.00    +0.000 C 
ENDROOT
BRANCH   1   4
ATOM      4  C   UNL     1      48.509   5.751  16.795  0.00  0.00    +0.000 A 
ATOM      5  C   UNL     1      49.498   6.492  16.132  0.00  0.00    +0.000 A 
ATOM      6  C   UNL     1      49.941   7.718  16.633  0.00  0.00    +0.000 A 
ATOM      7  C   UNL     1      49.388   8.234  17.806  0.00  0.00    +0.000 A 
ATOM      8  C   UNL     1      48.415   7.523  18.523  0.00  0.00    +0.000 A 
ATOM      9  C   UNL     1      48.026   6.268  18.014  0.00  0.00    +0.000 A 
BRANCH   8  10
ATOM     10  C   UNL     1      47.749   8.116  19.701  0.00  0.00    +0.000 A 
ATOM     11  C   UNL     1      47.152   9.378  19.684  0.00  0.00    +0.000 A 
ATOM     12  C   UNL     1      46.641   9.909  20.866  0.00  0.00    +0.000 A 
ATOM     13  C   UNL     1      46.732   9.170  22.038  0.00  0.00    +0.000 A 
ATOM     14  C   UNL     1      47.319   7.920  21.974  0.00  0.00    +0.000 A 
ATOM     15  N   UNL     1      47.818   7.381  20.841  0.00  0.00    +0.000 NA
ENDBRANCH   8  10
ENDBRANCH   1   4
BRANCH   1  16
ATOM     16  O   UNL     1      47.856   4.447  14.716  0.00  0.00    +0.000 OA
BRANCH  16  21
ATOM     17  C   UNL     1      44.841   4.430  12.566  0.00  0.00    +0.000 A 
ATOM     18  C   UNL     1      44.770   5.798  12.277  0.00  0.00    +0.000 A 
ATOM     19  C   UNL     1      45.680   6.683  12.865  0.00  0.00    +0.000 A 
ATOM     20  C   UNL     1      46.664   6.187  13.727  0.00  0.00    +0.000 A 
ATOM     21  C   UNL     1      46.744   4.818  14.011  0.00  0.00    +0.000 A 
ATOM     22  C   UNL     1      45.826   3.943  13.439  0.00  0.00    +0.000 A 
BRANCH  17  24
ATOM     23  N   UNL     1      43.190   2.790  11.420  0.00  0.00    +0.000 NA
ATOM     24  C   UNL     1      43.931   3.517  11.932  0.00  0.00    +0.000 C 
ENDBRANCH  17  24
BRANCH  19  25
ATOM     25  C   UNL     1      45.630   8.081  12.554  0.00  0.00    +0.000 C 
ATOM     26  N   UNL     1      45.591   9.215  12.310  0.00  0.00    +0.000 NA
ENDBRANCH  19  25
ENDBRANCH  16  21
ENDBRANCH   1  16
TORSDOF 6
ENDMDL
MODEL 9
REMARK VINA RESULT:    -5.784      3.146      5.181
REMARK INTER + INTRA:          -8.971
REMARK INTER:                  -7.733
REMARK INTRA:                  -1.238
REMARK UNBOUND:                -1.158
REMARK  Name = 
REMARK  6 active torsions:
REMARK  status: ('A' for Active; 'I' for Inactive)
REMARK    1  A    between atoms: C_2  and  C_3
REMARK    2  A    between atoms: C_5  and  C_6
REMARK    3  A    between atoms: C_9  and  O_10
REMARK    4  A    between atoms: O_10  and  C_11
REMARK    5  A    between atoms: C_11  and  C_12
REMARK    6  A    between atoms: C_16  and  C_17
REMARK                            x       y       z     vdW  Elec       q    Type
REMARK                         _______ _______ _______ _____ _____    ______ ____
ROOT
ATOM      1  C   UNL     1      49.177   8.285  16.351  0.00  0.00    +0.000 C 
ATOM      2  C   UNL     1      49.461   9.723  16.802  0.00  0.00    +0.000 C 
ATOM      3  C   UNL     1      48.097   9.153  16.976  0.00  0.00    +0.000 C 
ENDROOT
BRANCH   1   4
ATOM      4  C   UNL     1      49.055   8.006  14.856  0.00  0.00    +0.000 A 
ATOM      5  C   UNL     1      50.134   8.222  13.987  0.00  0.00    +0.000 A 
ATOM      6  C   UNL     1      50.082   7.814  12.652  0.00  0.00    +0.000 A 
ATOM      7  C   UNL     1      48.946   7.165  12.165  0.00  0.00    +0.000 A 
ATOM      8  C   UNL     1      47.828   6.947  12.983  0.00  0.00    +0.000 A 
ATOM      9  C   UNL     1      47.897   7.414  14.310  0.00  0.00    +0.000 A 
BRANCH   8  10
ATOM     10  C   UNL     1      46.672   6.163  12.503  0.00  0.00    +0.000 A 
ATOM     11  C   UNL     1      46.190   6.239  11.195  0.00  0.00    +0.000 A 
ATOM     12  C   UNL     1      45.030   5.548  10.852  0.00  0.00    +0.000 A 
ATOM     13  C   UNL     1      44.377   4.794  11.818  0.00  0.00    +0.000 A 
ATOM     14  C   UNL     1      44.924   4.750  13.087  0.00  0.00    +0.000 A 
ATOM     15  N   UNL     1      46.049   5.406  13.443  0.00  0.00    +0.000 NA
ENDBRANCH   8  10
ENDBRANCH   1   4
BRANCH   1  16
ATOM     16  O   UNL     1      49.994   7.385  17.132  0.00  0.00    +0.000 OA
BRANCH  16  21
ATOM     17  C   UNL     1      48.722   4.995  19.658  0.00  0.00    +0.000 A 
ATOM     18  C   UNL     1      48.788   3.819  18.900  0.00  0.00    +0.000 A 
ATOM     19  C   UNL     1      49.181   3.876  17.559  0.00  0.00    +0.000 A 
ATOM     20  C   UNL     1      49.519   5.109  16.992  0.00  0.00    +0.000 A 
ATOM     21  C   UNL     1      49.464   6.285  17.749  0.00  0.00    +0.000 A 
ATOM     22  C   UNL     1      49.056   6.228  19.078  0.00  0.00    +0.000 A 
BRANCH  17  24
ATOM     23  N   UNL     1      48.072   4.878  22.167  0.00  0.00    +0.000 NA
ATOM     24  C   UNL     1      48.356   4.931  21.045  0.00  0.00    +0.000 C 
ENDBRANCH  17  24
BRANCH  19  25
ATOM     25  C   UNL     1      49.275   2.674  16.784  0.00  0.00    +0.000 C 
ATOM     26  N   UNL     1      49.348   1.705  16.150  0.00  0.00    +0.000 NA
ENDBRANCH  19  25
ENDBRANCH  16  21
ENDBRANCH   1  16
TORSDOF 6
ENDMDL
