MODEL 1
REMARK VINA RESULT:    -7.670      0.000      0.000
REMARK INTER + INTRA:         -10.976
REMARK INTER:                  -9.912
REMARK INTRA:                  -1.064
REMARK UNBOUND:                -1.064
REMARK  Name = 
REMARK  5 active torsions:
REMARK  status: ('A' for Active; 'I' for Inactive)
REMARK    1  A    between atoms: C_2  and  C_19
REMARK    2  A    between atoms: N_3  and  C_4
REMARK    3  A    between atoms: C_4  and  C_5
REMARK    4  A    between atoms: C_8  and  C_9
REMARK    5  A    between atoms: C_9  and  C_10
REMARK                            x       y       z     vdW  Elec       q    Type
REMARK                         _______ _______ _______ _____ _____    ______ ____
ROOT
ATOM      1  O   UNL     1      49.958   7.065  14.238  0.00  0.00    +0.000 OA
ATOM      2  C   UNL     1      49.068   7.016  15.080  0.00  0.00    +0.000 C 
ATOM      3  N   UNL     1      47.823   7.551  14.873  0.00  0.00    +0.000 N 
ATOM      4  H   UNL     1      47.189   7.645  15.658  0.00  0.00    +0.000 HD
ENDROOT
BRANCH   2   5
ATOM      5  C   UNL     1      49.258   6.314  16.355  0.00  0.00    +0.000 A 
ATOM      6  C   UNL     1      50.111   6.844  17.315  0.00  0.00    +0.000 A 
ATOM      7  S   UNL     1      50.221   5.898  18.729  0.00  0.00    +0.000 S 
ATOM      8  C   UNL     1      49.101   4.767  18.126  0.00  0.00    +0.000 A 
ATOM      9  N   UNL     1      48.718   3.697  18.872  0.00  0.00    +0.000 NA
ATOM     10  C   UNL     1      47.830   2.944  18.313  0.00  0.00    +0.000 A 
ATOM     11  N   UNL     1      47.302   3.157  17.068  0.00  0.00    +0.000 N 
ATOM     12  C   UNL     1      47.721   4.176  16.243  0.00  0.00    +0.000 A 
ATOM     13  O   UNL     1      47.340   4.245  15.079  0.00  0.00    +0.000 OA
ATOM     14  C   UNL     1      48.674   5.087  16.852  0.00  0.00    +0.000 A 
ATOM     15  H   UNL     1      46.637   2.511  16.668  0.00  0.00    +0.000 HD
ENDBRANCH   2   5
BRANCH   3  16
ATOM     16  C   UNL     1      47.499   8.338  13.714  0.00  0.00    +0.000 C 
BRANCH  16  17
ATOM     17  C   UNL     1      46.567   7.594  12.795  0.00  0.00    +0.000 A 
ATOM     18  C   UNL     1      46.839   6.272  12.430  0.00  0.00    +0.000 A 
ATOM     19  C   UNL     1      45.951   5.561  11.618  0.00  0.00    +0.000 A 
ATOM     20  C   UNL     1      44.785   6.170  11.134  0.00  0.00    +0.000 A 
ATOM     21  C   UNL     1      44.548   7.514  11.451  0.00  0.00    +0.000 A 
ATOM     22  C   UNL     1      45.427   8.219  12.274  0.00  0.00    +0.000 A 
BRANCH  20  23
ATOM     23  C   UNL     1      43.775   5.364  10.341  0.00  0.00    +0.000 C 
BRANCH  23  24
ATOM     24  C   UNL     1      44.412   4.238   9.554  0.00  0.00    +0.000 A 
ATOM     25  N   UNL     1      45.077   4.615   8.422  0.00  0.00    +0.000 NA
ATOM     26  C   UNL     1      45.756   3.665   7.742  0.00  0.00    +0.000 A 
ATOM     27  C   UNL     1      45.821   2.340   8.131  0.00  0.00    +0.000 A 
ATOM     28  C   UNL     1      45.120   1.957   9.267  0.00  0.00    +0.000 A 
ATOM     29  C   UNL     1      44.392   2.907   9.985  0.00  0.00    +0.000 A 
ATOM     30 CL   UNL     1      43.487   2.358  11.346  0.00  0.00    +0.000 Cl
ENDBRANCH  23  24
ENDBRANCH  20  23
ENDBRANCH  16  17
ENDBRANCH   3  16
TORSDOF 5
ENDMDL
MODEL 2
REMARK VINA RESULT:    -7.239      2.168      2.698
REMARK INTER + INTRA:         -10.419
REMARK INTER:                  -9.321
REMARK INTRA:                  -1.098
REMARK UNBOUND:                -1.064
REMARK  Name = 
REMARK  5 active torsions:
REMARK  status: ('A' for Active; 'I' for Inactive)
REMARK    1  A    between atoms: C_2  and  C_19
REMARK    2  A    between atoms: N_3  and  C_4
REMARK    3  A    between atoms: C_4  and  C_5
REMARK    4  A    between atoms: C_8  and  C_9
REMARK    5  A    between atoms: C_9  and  C_10
REMARK                            x       y       z     vdW  Elec       q    Type
REMARK                         _______ _______ _______ _____ _____    ______ ____
ROOT
ATOM      1  O   UNL     1      50.702   6.024  16.288  0.00  0.00    +0.000 OA
ATOM      2  C   UNL     1      49.532   6.174  16.622  0.00  0.00    +0.000 C 
ATOM      3  N   UNL     1      48.556   6.567  15.744  0.00  0.00    +0.000 N 
ATOM      4  H   UNL     1      47.652   6.850  16.104  0.00  0.00    +0.000 HD
ENDROOT
BRANCH   2   5
ATOM      5  C   UNL     1      49.081   5.875  17.987  0.00  0.00    +0.000 A 
ATOM      6  C   UNL     1      49.266   4.602  18.512  0.00  0.00    +0.000 A 
ATOM      7  S   UNL     1      48.678   4.425  20.102  0.00  0.00    +0.000 S 
ATOM      8  C   UNL     1      48.191   6.056  20.162  0.00  0.00    +0.000 A 
ATOM      9  N   UNL     1      47.629   6.576  21.284  0.00  0.00    +0.000 NA
ATOM     10  C   UNL     1      47.348   7.834  21.210  0.00  0.00    +0.000 A 
ATOM     11  N   UNL     1      47.567   8.616  20.107  0.00  0.00    +0.000 N 
ATOM     12  C   UNL     1      48.055   8.115  18.921  0.00  0.00    +0.000 A 
ATOM     13  O   UNL     1      48.092   8.808  17.910  0.00  0.00    +0.000 OA
ATOM     14  C   UNL     1      48.443   6.717  18.975  0.00  0.00    +0.000 A 
ATOM     15  H   UNL     1      47.292   9.587  20.095  0.00  0.00    +0.000 HD
ENDBRANCH   2   5
BRANCH   3  16
ATOM     16  C   UNL     1      48.844   6.974  14.395  0.00  0.00    +0.000 C 
BRANCH  16  17
ATOM     17  C   UNL     1      47.746   6.554  13.454  0.00  0.00    +0.000 A 
ATOM     18  C   UNL     1      47.002   5.396  13.706  0.00  0.00    +0.000 A 
ATOM     19  C   UNL     1      45.949   5.030  12.863  0.00  0.00    +0.000 A 
ATOM     20  C   UNL     1      45.637   5.803  11.736  0.00  0.00    +0.000 A 
ATOM     21  C   UNL     1      46.424   6.927  11.453  0.00  0.00    +0.000 A 
ATOM     22  C   UNL     1      47.466   7.301  12.303  0.00  0.00    +0.000 A 
BRANCH  20  23
ATOM     23  C   UNL     1      44.430   5.460  10.886  0.00  0.00    +0.000 C 
BRANCH  23  24
ATOM     24  C   UNL     1      44.711   4.354   9.889  0.00  0.00    +0.000 A 
ATOM     25  N   UNL     1      45.415   4.727   8.779  0.00  0.00    +0.000 NA
ATOM     26  C   UNL     1      45.787   3.760   7.912  0.00  0.00    +0.000 A 
ATOM     27  C   UNL     1      45.503   2.418   8.089  0.00  0.00    +0.000 A 
ATOM     28  C   UNL     1      44.762   2.048   9.205  0.00  0.00    +0.000 A 
ATOM     29  C   UNL     1      44.344   3.023  10.113  0.00  0.00    +0.000 A 
ATOM     30 CL   UNL     1      43.371   2.511  11.440  0.00  0.00    +0.000 Cl
ENDBRANCH  23  24
ENDBRANCH  20  23
ENDBRANCH  16  17
ENDBRANCH   3  16
TORSDOF 5
ENDMDL
MODEL 3
REMARK VINA RESULT:    -7.231      1.890      2.350
REMARK INTER + INTRA:         -10.409
REMARK INTER:                  -9.791
REMARK INTRA:                  -0.618
REMARK UNBOUND:                -1.064
REMARK  Name = 
REMARK  5 active torsions:
REMARK  status: ('A' for Active; 'I' for Inactive)
REMARK    1  A    between atoms: C_2  and  C_19
REMARK    2  A    between atoms: N_3  and  C_4
REMARK    3  A    between atoms: C_4  and  C_5
REMARK    4  A    between atoms: C_8  and  C_9
REMARK    5  A    between atoms: C_9  and  C_10
REMARK                            x       y       z     vdW  Elec       q    Type
REMARK                         _______ _______ _______ _____ _____    ______ ____
ROOT
ATOM      1  O   UNL     1      50.089   5.735  16.427  0.00  0.00    +0.000 OA
ATOM      2  C   UNL     1      49.165   6.513  16.633  0.00  0.00    +0.000 C 
ATOM      3  N   UNL     1      48.426   7.070  15.622  0.00  0.00    +0.000 N 
ATOM      4  H   UNL     1      47.800   7.838  15.833  0.00  0.00    +0.000 HD
ENDROOT
BRANCH   2   5
ATOM      5  C   UNL     1      48.739   6.852  17.997  0.00  0.00    +0.000 A 
ATOM      6  C   UNL     1      48.369   8.156  18.301  0.00  0.00    +0.000 A 
ATOM      7  S   UNL     1      47.911   8.375  19.929  0.00  0.00    +0.000 S 
ATOM      8  C   UNL     1      48.151   6.725  20.276  0.00  0.00    +0.000 A 
ATOM      9  N   UNL     1      47.901   6.229  21.516  0.00  0.00    +0.000 NA
ATOM     10  C   UNL     1      48.083   4.955  21.631  0.00  0.00    +0.000 A 
ATOM     11  N   UNL     1      48.505   4.136  20.618  0.00  0.00    +0.000 N 
ATOM     12  C   UNL     1      48.852   4.606  19.372  0.00  0.00    +0.000 A 
ATOM     13  O   UNL     1      49.372   3.870  18.540  0.00  0.00    +0.000 OA
ATOM     14  C   UNL     1      48.606   6.024  19.176  0.00  0.00    +0.000 A 
ATOM     15  H   UNL     1      48.665   3.152  20.778  0.00  0.00    +0.000 HD
ENDBRANCH   2   5
BRANCH   3  16
ATOM     16  C   UNL     1      48.761   6.903  14.234  0.00  0.00    +0.000 C 
BRANCH  16  17
ATOM     17  C   UNL     1      47.548   6.536  13.421  0.00  0.00    +0.000 A 
ATOM     18  C   UNL     1      47.000   7.451  12.516  0.00  0.00    +0.000 A 
ATOM     19  C   UNL     1      45.905   7.097  11.723  0.00  0.00    +0.000 A 
ATOM     20  C   UNL     1      45.322   5.828  11.838  0.00  0.00    +0.000 A 
ATOM     21  C   UNL     1      45.836   4.936  12.790  0.00  0.00    +0.000 A 
ATOM     22  C   UNL     1      46.939   5.284  13.572  0.00  0.00    +0.000 A 
BRANCH  20  23
ATOM     23  C   UNL     1      44.203   5.413  10.903  0.00  0.00    +0.000 C 
BRANCH  23  24
ATOM     24  C   UNL     1      44.629   4.342   9.920  0.00  0.00    +0.000 A 
ATOM     25  N   UNL     1      45.360   4.781   8.852  0.00  0.00    +0.000 NA
ATOM     26  C   UNL     1      45.857   3.855   8.004  0.00  0.00    +0.000 A 
ATOM     27  C   UNL     1      45.675   2.493   8.159  0.00  0.00    +0.000 A 
ATOM     28  C   UNL     1      44.906   2.054   9.231  0.00  0.00    +0.000 A 
ATOM     29  C   UNL     1      44.360   2.984  10.118  0.00  0.00    +0.000 A 
ATOM     30 CL   UNL     1      43.361   2.383  11.386  0.00  0.00    +0.000 Cl
ENDBRANCH  23  24
ENDBRANCH  20  23
ENDBRANCH  16  17
ENDBRANCH   3  16
TORSDOF 5
ENDMDL
MODEL 4
REMARK VINA RESULT:    -7.053      4.428      9.468
REMARK INTER + INTRA:         -10.179
REMARK INTER:                  -9.332
REMARK INTRA:                  -0.847
REMARK UNBOUND:                -1.064
REMARK  Name = 
REMARK  5 active torsions:
REMARK  status: ('A' for Active; 'I' for Inactive)
REMARK    1  A    between atoms: C_2  and  C_19
REMARK    2  A    between atoms: N_3  and  C_4
REMARK    3  A    between atoms: C_4  and  C_5
REMARK    4  A    between atoms: C_8  and  C_9
REMARK    5  A    between atoms: C_9  and  C_10
REMARK                            x       y       z     vdW  Elec       q    Type
REMARK                         _______ _______ _______ _____ _____    ______ ____
ROOT
ATOM      1  O   UNL     1      47.337   3.140  13.975  0.00  0.00    +0.000 OA
ATOM      2  C   UNL     1      46.866   4.174  14.435  0.00  0.00    +0.000 C 
ATOM      3  N   UNL     1      46.860   4.453  15.777  0.00  0.00    +0.000 N 
ATOM      4  H   UNL     1      46.302   5.226  16.119  0.00  0.00    +0.000 HD
ENDROOT
BRANCH   2   5
ATOM      5  C   UNL     1      46.329   5.226  13.561  0.00  0.00    +0.000 A 
ATOM      6  C   UNL     1      47.105   6.339  13.265  0.00  0.00    +0.000 A 
ATOM      7  S   UNL     1      46.326   7.463  12.246  0.00  0.00    +0.000 S 
ATOM      8  C   UNL     1      44.940   6.482  12.131  0.00  0.00    +0.000 A 
ATOM      9  N   UNL     1      43.882   6.855  11.364  0.00  0.00    +0.000 NA
ATOM     10  C   UNL     1      42.916   5.999  11.330  0.00  0.00    +0.000 A 
ATOM     11  N   UNL     1      42.907   4.808  12.007  0.00  0.00    +0.000 N 
ATOM     12  C   UNL     1      43.917   4.427  12.861  0.00  0.00    +0.000 A 
ATOM     13  O   UNL     1      43.806   3.431  13.568  0.00  0.00    +0.000 OA
ATOM     14  C   UNL     1      45.055   5.330  12.886  0.00  0.00    +0.000 A 
ATOM     15  H   UNL     1      42.106   4.196  11.972  0.00  0.00    +0.000 HD
ENDBRANCH   2   5
BRANCH   3  16
ATOM     16  C   UNL     1      47.275   3.498  16.769  0.00  0.00    +0.000 C 
BRANCH  16  17
ATOM     17  C   UNL     1      48.732   3.664  17.109  0.00  0.00    +0.000 A 
ATOM     18  C   UNL     1      49.568   2.546  17.207  0.00  0.00    +0.000 A 
ATOM     19  C   UNL     1      50.931   2.699  17.472  0.00  0.00    +0.000 A 
ATOM     20  C   UNL     1      51.481   3.973  17.669  0.00  0.00    +0.000 A 
ATOM     21  C   UNL     1      50.629   5.086  17.631  0.00  0.00    +0.000 A 
ATOM     22  C   UNL     1      49.270   4.934  17.351  0.00  0.00    +0.000 A 
BRANCH  20  23
ATOM     23  C   UNL     1      52.976   4.140  17.852  0.00  0.00    +0.000 C 
BRANCH  23  24
ATOM     24  C   UNL     1      53.470   3.589  19.173  0.00  0.00    +0.000 A 
ATOM     25  N   UNL     1      54.214   2.446  19.093  0.00  0.00    +0.000 NA
ATOM     26  C   UNL     1      54.770   1.973  20.230  0.00  0.00    +0.000 A 
ATOM     27  C   UNL     1      54.635   2.584  21.463  0.00  0.00    +0.000 A 
ATOM     28  C   UNL     1      53.854   3.730  21.544  0.00  0.00    +0.000 A 
ATOM     29  C   UNL     1      53.248   4.237  20.393  0.00  0.00    +0.000 A 
ATOM     30 CL   UNL     1      52.236   5.621  20.569  0.00  0.00    +0.000 Cl
ENDBRANCH  23  24
ENDBRANCH  20  23
ENDBRANCH  16  17
ENDBRANCH   3  16
TORSDOF 5
ENDMDL
MODEL 5
REMARK VINA RESULT:    -6.929      3.574      7.894
REMARK INTER + INTRA:         -10.019
REMARK INTER:                  -9.074
REMARK INTRA:                  -0.946
REMARK UNBOUND:                -1.064
REMARK  Name = 
REMARK  5 active torsions:
REMARK  status: ('A' for Active; 'I' for Inactive)
REMARK    1  A    between atoms: C_2  and  C_19
REMARK    2  A    between atoms: N_3  and  C_4
REMARK    3  A    between atoms: C_4  and  C_5
REMARK    4  A    between atoms: C_8  and  C_9
REMARK    5  A    between atoms: C_9  and  C_10
REMARK                            x       y       z     vdW  Elec       q    Type
REMARK                         _______ _______ _______ _____ _____    ______ ____
ROOT
ATOM      1  O   UNL     1      47.942   7.013  11.589  0.00  0.00    +0.000 OA
ATOM      2  C   UNL     1      47.053   6.933  12.429  0.00  0.00    +0.000 C 
ATOM      3  N   UNL     1      47.213   7.366  13.720  0.00  0.00    +0.000 N 
ATOM      4  H   UNL     1      46.520   7.114  14.415  0.00  0.00    +0.000 HD
ENDROOT
BRANCH   2   5
ATOM      5  C   UNL     1      45.719   6.424  12.086  0.00  0.00    +0.000 A 
ATOM      6  C   UNL     1      44.775   7.279  11.533  0.00  0.00    +0.000 A 
ATOM      7  S   UNL     1      43.281   6.526  11.203  0.00  0.00    +0.000 S 
ATOM      8  C   UNL     1      43.856   5.021  11.751  0.00  0.00    +0.000 A 
ATOM      9  N   UNL     1      43.067   3.914  11.708  0.00  0.00    +0.000 NA
ATOM     10  C   UNL     1      43.642   2.831  12.111  0.00  0.00    +0.000 A 
ATOM     11  N   UNL     1      44.931   2.756  12.567  0.00  0.00    +0.000 N 
ATOM     12  C   UNL     1      45.738   3.863  12.707  0.00  0.00    +0.000 A 
ATOM     13  O   UNL     1      46.829   3.783  13.262  0.00  0.00    +0.000 OA
ATOM     14  C   UNL     1      45.157   5.097  12.209  0.00  0.00    +0.000 A 
ATOM     15  H   UNL     1      45.314   1.886  12.905  0.00  0.00    +0.000 HD
ENDBRANCH   2   5
BRANCH   3  16
ATOM     16  C   UNL     1      48.477   7.816  14.236  0.00  0.00    +0.000 C 
BRANCH  16  17
ATOM     17  C   UNL     1      48.987   6.891  15.309  0.00  0.00    +0.000 A 
ATOM     18  C   UNL     1      50.314   6.977  15.745  0.00  0.00    +0.000 A 
ATOM     19  C   UNL     1      50.777   6.156  16.776  0.00  0.00    +0.000 A 
ATOM     20  C   UNL     1      49.929   5.213  17.373  0.00  0.00    +0.000 A 
ATOM     21  C   UNL     1      48.619   5.088  16.891  0.00  0.00    +0.000 A 
ATOM     22  C   UNL     1      48.151   5.919  15.872  0.00  0.00    +0.000 A 
BRANCH  20  23
ATOM     23  C   UNL     1      50.406   4.399  18.559  0.00  0.00    +0.000 C 
BRANCH  23  24
ATOM     24  C   UNL     1      51.405   3.328  18.171  0.00  0.00    +0.000 A 
ATOM     25  N   UNL     1      52.681   3.526  18.616  0.00  0.00    +0.000 NA
ATOM     26  C   UNL     1      53.587   2.549  18.392  0.00  0.00    +0.000 A 
ATOM     27  C   UNL     1      53.293   1.362  17.745  0.00  0.00    +0.000 A 
ATOM     28  C   UNL     1      52.001   1.179  17.269  0.00  0.00    +0.000 A 
ATOM     29  C   UNL     1      51.043   2.175  17.467  0.00  0.00    +0.000 A 
ATOM     30 CL   UNL     1      49.477   1.920  16.794  0.00  0.00    +0.000 Cl
ENDBRANCH  23  24
ENDBRANCH  20  23
ENDBRANCH  16  17
ENDBRANCH   3  16
TORSDOF 5
ENDMDL
MODEL 6
REMARK VINA RESULT:    -6.877      1.758      2.262
REMARK INTER + INTRA:          -9.951
REMARK INTER:                  -8.525
REMARK INTRA:                  -1.426
REMARK UNBOUND:                -1.064
REMARK  Name = 
REMARK  5 active torsions:
REMARK  status: ('A' for Active; 'I' for Inactive)
REMARK    1  A    between atoms: C_2  and  C_19
REMARK    2  A    between atoms: N_3  and  C_4
REMARK    3  A    between atoms: C_4  and  C_5
REMARK    4  A    between atoms: C_8  and  C_9
REMARK    5  A    between atoms: C_9  and  C_10
REMARK                            x       y       z     vdW  Elec       q    Type
REMARK                         _______ _______ _______ _____ _____    ______ ____
ROOT
ATOM      1  O   UNL     1      48.418   8.769  16.867  0.00  0.00    +0.000 OA
ATOM      2  C   UNL     1      48.906   7.685  16.566  0.00  0.00    +0.000 C 
ATOM      3  N   UNL     1      49.429   7.429  15.326  0.00  0.00    +0.000 N 
ATOM      4  H   UNL     1      49.651   6.473  15.071  0.00  0.00    +0.000 HD
ENDROOT
BRANCH   2   5
ATOM      5  C   UNL     1      49.022   6.598  17.546  0.00  0.00    +0.000 A 
ATOM      6  C   UNL     1      49.645   6.833  18.766  0.00  0.00    +0.000 A 
ATOM      7  S   UNL     1      49.701   5.462  19.779  0.00  0.00    +0.000 S 
ATOM      8  C   UNL     1      48.857   4.518  18.641  0.00  0.00    +0.000 A 
ATOM      9  N   UNL     1      48.540   3.223  18.906  0.00  0.00    +0.000 NA
ATOM     10  C   UNL     1      47.862   2.636  17.977  0.00  0.00    +0.000 A 
ATOM     11  N   UNL     1      47.484   3.225  16.800  0.00  0.00    +0.000 N 
ATOM     12  C   UNL     1      47.855   4.504  16.452  0.00  0.00    +0.000 A 
ATOM     13  O   UNL     1      47.632   4.944  15.329  0.00  0.00    +0.000 OA
ATOM     14  C   UNL     1      48.567   5.227  17.491  0.00  0.00    +0.000 A 
ATOM     15  H   UNL     1      46.987   2.703  16.094  0.00  0.00    +0.000 HD
ENDBRANCH   2   5
BRANCH   3  16
ATOM     16  C   UNL     1      49.324   8.356  14.232  0.00  0.00    +0.000 C 
BRANCH  16  17
ATOM     17  C   UNL     1      48.148   8.026  13.350  0.00  0.00    +0.000 A 
ATOM     18  C   UNL     1      48.226   6.971  12.434  0.00  0.00    +0.000 A 
ATOM     19  C   UNL     1      47.121   6.628  11.651  0.00  0.00    +0.000 A 
ATOM     20  C   UNL     1      45.924   7.352  11.750  0.00  0.00    +0.000 A 
ATOM     21  C   UNL     1      45.871   8.446  12.624  0.00  0.00    +0.000 A 
ATOM     22  C   UNL     1      46.970   8.779  13.417  0.00  0.00    +0.000 A 
BRANCH  20  23
ATOM     23  C   UNL     1      44.698   6.911  10.975  0.00  0.00    +0.000 C 
BRANCH  23  24
ATOM     24  C   UNL     1      44.364   5.449  11.189  0.00  0.00    +0.000 A 
ATOM     25  N   UNL     1      43.723   5.158  12.359  0.00  0.00    +0.000 NA
ATOM     26  C   UNL     1      43.304   3.888  12.552  0.00  0.00    +0.000 A 
ATOM     27  C   UNL     1      43.482   2.872  11.629  0.00  0.00    +0.000 A 
ATOM     28  C   UNL     1      44.160   3.168  10.453  0.00  0.00    +0.000 A 
ATOM     29  C   UNL     1      44.623   4.465  10.228  0.00  0.00    +0.000 A 
ATOM     30 CL   UNL     1      45.516   4.754   8.783  0.00  0.00    +0.000 Cl
ENDBRANCH  23  24
ENDBRANCH  20  23
ENDBRANCH  16  17
ENDBRANCH   3  16
TORSDOF 5
ENDMDL
MODEL 7
REMARK VINA RESULT:    -6.776      4.130      9.000
REMARK INTER + INTRA:          -9.821
REMARK INTER:                  -8.997
REMARK INTRA:                  -0.824
REMARK UNBOUND:                -1.064
REMARK  Name = 
REMARK  5 active torsions:
REMARK  status: ('A' for Active; 'I' for Inactive)
REMARK    1  A    between atoms: C_2  and  C_19
REMARK    2  A    between atoms: N_3  and  C_4
REMARK    3  A    between atoms: C_4  and  C_5
REMARK    4  A    between atoms: C_8  and  C_9
REMARK    5  A    between atoms: C_9  and  C_10
REMARK                            x       y       z     vdW  Elec       q    Type
REMARK                         _______ _______ _______ _____ _____    ______ ____
ROOT
ATOM      1  O   UNL     1      47.299   3.109  14.034  0.00  0.00    +0.000 OA
ATOM      2  C   UNL     1      46.860   4.155  14.501  0.00  0.00    +0.000 C 
ATOM      3  N   UNL     1      46.854   4.420  15.845  0.00  0.00    +0.000 N 
ATOM      4  H   UNL     1      46.320   5.209  16.191  0.00  0.00    +0.000 HD
ENDROOT
BRANCH   2   5
ATOM      5  C   UNL     1      46.368   5.233  13.634  0.00  0.00    +0.000 A 
ATOM      6  C   UNL     1      47.157   6.355  13.412  0.00  0.00    +0.000 A 
ATOM      7  S   UNL     1      46.431   7.510  12.390  0.00  0.00    +0.000 S 
ATOM      8  C   UNL     1      45.053   6.534  12.174  0.00  0.00    +0.000 A 
ATOM      9  N   UNL     1      44.035   6.932  11.366  0.00  0.00    +0.000 NA
ATOM     10  C   UNL     1      43.073   6.078  11.257  0.00  0.00    +0.000 A 
ATOM     11  N   UNL     1      43.030   4.867  11.895  0.00  0.00    +0.000 N 
ATOM     12  C   UNL     1      43.996   4.459  12.787  0.00  0.00    +0.000 A 
ATOM     13  O   UNL     1      43.849   3.442  13.456  0.00  0.00    +0.000 OA
ATOM     14  C   UNL     1      45.130   5.359  12.897  0.00  0.00    +0.000 A 
ATOM     15  H   UNL     1      42.233   4.257  11.800  0.00  0.00    +0.000 HD
ENDBRANCH   2   5
BRANCH   3  16
ATOM     16  C   UNL     1      47.226   3.441  16.831  0.00  0.00    +0.000 C 
BRANCH  16  17
ATOM     17  C   UNL     1      48.697   3.516  17.144  0.00  0.00    +0.000 A 
ATOM     18  C   UNL     1      49.476   2.355  17.163  0.00  0.00    +0.000 A 
ATOM     19  C   UNL     1      50.851   2.426  17.403  0.00  0.00    +0.000 A 
ATOM     20  C   UNL     1      51.468   3.659  17.654  0.00  0.00    +0.000 A 
ATOM     21  C   UNL     1      50.673   4.812  17.696  0.00  0.00    +0.000 A 
ATOM     22  C   UNL     1      49.303   4.743  17.441  0.00  0.00    +0.000 A 
BRANCH  20  23
ATOM     23  C   UNL     1      52.974   3.742  17.810  0.00  0.00    +0.000 C 
BRANCH  23  24
ATOM     24  C   UNL     1      53.477   5.168  17.886  0.00  0.00    +0.000 A 
ATOM     25  N   UNL     1      53.829   5.732  16.692  0.00  0.00    +0.000 NA
ATOM     26  C   UNL     1      54.180   7.037  16.689  0.00  0.00    +0.000 A 
ATOM     27  C   UNL     1      54.196   7.832  17.821  0.00  0.00    +0.000 A 
ATOM     28  C   UNL     1      53.864   7.246  19.036  0.00  0.00    +0.000 A 
ATOM     29  C   UNL     1      53.514   5.895  19.081  0.00  0.00    +0.000 A 
ATOM     30 CL   UNL     1      53.180   5.209  20.626  0.00  0.00    +0.000 Cl
ENDBRANCH  23  24
ENDBRANCH  20  23
ENDBRANCH  16  17
ENDBRANCH   3  16
TORSDOF 5
ENDMDL
MODEL 8
REMARK VINA RESULT:    -6.731      2.512      3.674
REMARK INTER + INTRA:          -9.762
REMARK INTER:                  -8.978
REMARK INTRA:                  -0.784
REMARK UNBOUND:                -1.064
REMARK  Name = 
REMARK  5 active torsions:
REMARK  status: ('A' for Active; 'I' for Inactive)
REMARK    1  A    between atoms: C_2  and  C_19
REMARK    2  A    between atoms: N_3  and  C_4
REMARK    3  A    between atoms: C_4  and  C_5
REMARK    4  A    between atoms: C_8  and  C_9
REMARK    5  A    between atoms: C_9  and  C_10
REMARK                            x       y       z     vdW  Elec       q    Type
REMARK                         _______ _______ _______ _____ _____    ______ ____
ROOT
ATOM      1  O   UNL     1      49.642   5.322  17.632  0.00  0.00    +0.000 OA
ATOM      2  C   UNL     1      48.648   6.016  17.447  0.00  0.00    +0.000 C 
ATOM      3  N   UNL     1      47.756   5.776  16.435  0.00  0.00    +0.000 N 
ATOM      4  H   UNL     1      47.059   6.478  16.214  0.00  0.00    +0.000 HD
ENDROOT
BRANCH   2   5
ATOM      5  C   UNL     1      48.309   7.124  18.350  0.00  0.00    +0.000 A 
ATOM      6  C   UNL     1      48.166   6.885  19.711  0.00  0.00    +0.000 A 
ATOM      7  S   UNL     1      47.763   8.277  20.610  0.00  0.00    +0.000 S 
ATOM      8  C   UNL     1      47.806   9.256  19.218  0.00  0.00    +0.000 A 
ATOM      9  N   UNL     1      47.578  10.594  19.297  0.00  0.00    +0.000 NA
ATOM     10  C   UNL     1      47.685  11.223  18.175  0.00  0.00    +0.000 A 
ATOM     11  N   UNL     1      47.986  10.632  16.976  0.00  0.00    +0.000 N 
ATOM     12  C   UNL     1      48.141   9.272  16.833  0.00  0.00    +0.000 A 
ATOM     13  O   UNL     1      48.255   8.762  15.723  0.00  0.00    +0.000 OA
ATOM     14  C   UNL     1      48.090   8.527  18.079  0.00  0.00    +0.000 A 
ATOM     15  H   UNL     1      48.019  11.171  16.124  0.00  0.00    +0.000 HD
ENDBRANCH   2   5
BRANCH   3  16
ATOM     16  C   UNL     1      47.983   4.783  15.420  0.00  0.00    +0.000 C 
BRANCH  16  17
ATOM     17  C   UNL     1      47.141   5.050  14.200  0.00  0.00    +0.000 A 
ATOM     18  C   UNL     1      47.587   5.937  13.214  0.00  0.00    +0.000 A 
ATOM     19  C   UNL     1      46.833   6.148  12.056  0.00  0.00    +0.000 A 
ATOM     20  C   UNL     1      45.606   5.496  11.875  0.00  0.00    +0.000 A 
ATOM     21  C   UNL     1      45.135   4.657  12.893  0.00  0.00    +0.000 A 
ATOM     22  C   UNL     1      45.894   4.433  14.043  0.00  0.00    +0.000 A 
BRANCH  20  23
ATOM     23  C   UNL     1      44.845   5.649  10.573  0.00  0.00    +0.000 C 
BRANCH  23  24
ATOM     24  C   UNL     1      45.179   4.566   9.568  0.00  0.00    +0.000 A 
ATOM     25  N   UNL     1      45.998   4.948   8.543  0.00  0.00    +0.000 NA
ATOM     26  C   UNL     1      46.416   3.995   7.681  0.00  0.00    +0.000 A 
ATOM     27  C   UNL     1      46.068   2.661   7.782  0.00  0.00    +0.000 A 
ATOM     28  C   UNL     1      45.212   2.284   8.810  0.00  0.00    +0.000 A 
ATOM     29  C   UNL     1      44.745   3.244   9.709  0.00  0.00    +0.000 A 
ATOM     30 CL   UNL     1      43.633   2.727  10.920  0.00  0.00    +0.000 Cl
ENDBRANCH  23  24
ENDBRANCH  20  23
ENDBRANCH  16  17
ENDBRANCH   3  16
TORSDOF 5
ENDMDL
MODEL 9
REMARK VINA RESULT:    -6.506      5.373      7.812
REMARK INTER + INTRA:          -9.472
REMARK INTER:                  -8.491
REMARK INTRA:                  -0.981
REMARK UNBOUND:                -1.064
REMARK  Name = 
REMARK  5 active torsions:
REMARK  status: ('A' for Active; 'I' for Inactive)
REMARK    1  A    between atoms: C_2  and  C_19
REMARK    2  A    between atoms: N_3  and  C_4
REMARK    3  A    between atoms: C_4  and  C_5
REMARK    4  A    between atoms: C_8  and  C_9
REMARK    5  A    between atoms: C_9  and  C_10
REMARK                            x       y       z     vdW  Elec       q    Type
REMARK                         _______ _______ _______ _____ _____    ______ ____
ROOT
ATOM      1  O   UNL     1      44.384   7.786  11.064  0.00  0.00    +0.000 OA
ATOM      2  C   UNL     1      45.031   6.912  11.631  0.00  0.00    +0.000 C 
ATOM      3  N   UNL     1      46.103   7.190  12.437  0.00  0.00    +0.000 N 
ATOM      4  H   UNL     1      46.709   6.434  12.733  0.00  0.00    +0.000 HD
ENDROOT
BRANCH   2   5
ATOM      5  C   UNL     1      44.653   5.496  11.536  0.00  0.00    +0.000 A 
ATOM      6  C   UNL     1      43.962   4.894  12.581  0.00  0.00    +0.000 A 
ATOM      7  S   UNL     1      43.611   3.248  12.309  0.00  0.00    +0.000 S 
ATOM      8  C   UNL     1      44.332   3.291  10.768  0.00  0.00    +0.000 A 
ATOM      9  N   UNL     1      44.344   2.190   9.971  0.00  0.00    +0.000 NA
ATOM     10  C   UNL     1      44.883   2.373   8.812  0.00  0.00    +0.000 A 
ATOM     11  N   UNL     1      45.425   3.556   8.383  0.00  0.00    +0.000 N 
ATOM     12  C   UNL     1      45.512   4.671   9.185  0.00  0.00    +0.000 A 
ATOM     13  O   UNL     1      46.140   5.661   8.825  0.00  0.00    +0.000 OA
ATOM     14  C   UNL     1      44.864   4.533  10.478  0.00  0.00    +0.000 A 
ATOM     15  H   UNL     1      45.867   3.628   7.479  0.00  0.00    +0.000 HD
ENDBRANCH   2   5
BRANCH   3  16
ATOM     16  C   UNL     1      46.649   8.514  12.573  0.00  0.00    +0.000 C 
BRANCH  16  17
ATOM     17  C   UNL     1      48.083   8.560  12.116  0.00  0.00    +0.000 A 
ATOM     18  C   UNL     1      48.668   9.775  11.744  0.00  0.00    +0.000 A 
ATOM     19  C   UNL     1      50.013   9.831  11.369  0.00  0.00    +0.000 A 
ATOM     20  C   UNL     1      50.792   8.667  11.333  0.00  0.00    +0.000 A 
ATOM     21  C   UNL     1      50.186   7.443  11.647  0.00  0.00    +0.000 A 
ATOM     22  C   UNL     1      48.847   7.389  12.037  0.00  0.00    +0.000 A 
BRANCH  20  23
ATOM     23  C   UNL     1      52.274   8.748  11.027  0.00  0.00    +0.000 C 
BRANCH  23  24
ATOM     24  C   UNL     1      52.587   8.469   9.571  0.00  0.00    +0.000 A 
ATOM     25  N   UNL     1      52.650   7.148   9.226  0.00  0.00    +0.000 NA
ATOM     26  C   UNL     1      52.817   6.843   7.921  0.00  0.00    +0.000 A 
ATOM     27  C   UNL     1      52.921   7.790   6.918  0.00  0.00    +0.000 A 
ATOM     28  C   UNL     1      52.886   9.132   7.278  0.00  0.00    +0.000 A 
ATOM     29  C   UNL     1      52.733   9.484   8.620  0.00  0.00    +0.000 A 
ATOM     30 CL   UNL     1      52.765  11.162   9.012  0.00  0.00    +0.000 Cl
ENDBRANCH  23  24
ENDBRANCH  20  23
ENDBRANCH  16  17
ENDBRANCH   3  16
TORSDOF 5
ENDMDL
