MODEL 1
REMARK VINA RESULT:    -8.175      0.000      0.000
REMARK INTER + INTRA:         -11.103
REMARK INTER:                 -10.564
REMARK INTRA:                  -0.539
REMARK UNBOUND:                -0.539
REMARK  Name = 
REMARK  5 active torsions:
REMARK  status: ('A' for Active; 'I' for Inactive)
REMARK    1  A    between atoms: C_2  and  C_4
REMARK    2  A    between atoms: N_8  and  C_9
REMARK    3  A    between atoms: C_9  and  C_10
REMARK    4  A    between atoms: C_10  and  C_11
REMARK    5  A    between atoms: C_15  and  C_16
REMARK                            x       y       z     vdW  Elec       q    Type
REMARK                         _______ _______ _______ _____ _____    ______ ____
ROOT
ATOM      1  C   UNL     1      46.732   6.590  11.408  0.00  0.00    +0.000 C 
ENDROOT
BRANCH   1   6
ATOM      2  C   UNL     1      47.697   4.118  15.591  0.00  0.00    +0.000 A 
ATOM      3  C   UNL     1      48.110   5.424  15.707  0.00  0.00    +0.000 A 
ATOM      4  N   UNL     1      47.854   6.374  14.780  0.00  0.00    +0.000 NA
ATOM      5  C   UNL     1      47.159   5.996  13.694  0.00  0.00    +0.000 A 
ATOM      6  N   UNL     1      46.857   7.006  12.796  0.00  0.00    +0.000 N 
ATOM      7  N   UNL     1      46.754   4.737  13.471  0.00  0.00    +0.000 NA
ATOM      8  C   UNL     1      47.039   3.818  14.422  0.00  0.00    +0.000 A 
ATOM      9  H   UNL     1      47.507   7.761  12.985  0.00  0.00    +0.000 HD
BRANCH   2  11
ATOM     10  N   UNL     1      46.957   2.896  17.552  0.00  0.00    +0.000 N 
ATOM     11  C   UNL     1      47.927   3.083  16.606  0.00  0.00    +0.000 C 
ATOM     12  O   UNL     1      48.930   2.382  16.580  0.00  0.00    +0.000 OA
ATOM     13  H   UNL     1      47.081   2.095  18.161  0.00  0.00    +0.000 HD
ATOM     14  H   UNL     1      46.016   3.252  17.455  0.00  0.00    +0.000 HD
ENDBRANCH   2  11
ENDBRANCH   1   6
BRANCH   1  15
ATOM     15  C   UNL     1      45.247   6.426  11.054  0.00  0.00    +0.000 C 
BRANCH  15  16
ATOM     16  C   UNL     1      44.935   5.060  10.506  0.00  0.00    +0.000 A 
ATOM     17  C   UNL     1      43.934   4.272  11.055  0.00  0.00    +0.000 A 
ATOM     18  N   UNL     1      43.600   3.052  10.592  0.00  0.00    +0.000 NA
ATOM     19  C   UNL     1      44.306   2.588   9.529  0.00  0.00    +0.000 A 
ATOM     20  C   UNL     1      45.345   3.269   8.890  0.00  0.00    +0.000 A 
ATOM     21  C   UNL     1      45.638   4.541   9.409  0.00  0.00    +0.000 A 
BRANCH  20  22
ATOM     22  C   UNL     1      46.102   2.685   7.761  0.00  0.00    +0.000 A 
ATOM     23  C   UNL     1      46.610   1.373   7.816  0.00  0.00    +0.000 A 
ATOM     24  C   UNL     1      47.287   0.805   6.731  0.00  0.00    +0.000 A 
ATOM     25  C   UNL     1      47.485   1.541   5.567  0.00  0.00    +0.000 A 
ATOM     26  C   UNL     1      47.009   2.845   5.490  0.00  0.00    +0.000 A 
ATOM     27  C   UNL     1      46.324   3.407   6.573  0.00  0.00    +0.000 A 
ENDBRANCH  20  22
ENDBRANCH  15  16
ENDBRANCH   1  15
TORSDOF 5
ENDMDL
MODEL 2
REMARK VINA RESULT:    -8.147      1.622      2.395
REMARK INTER + INTRA:         -11.067
REMARK INTER:                 -10.482
REMARK INTRA:                  -0.585
REMARK UNBOUND:                -0.539
REMARK  Name = 
REMARK  5 active torsions:
REMARK  status: ('A' for Active; 'I' for Inactive)
REMARK    1  A    between atoms: C_2  and  C_4
REMARK    2  A    between atoms: N_8  and  C_9
REMARK    3  A    between atoms: C_9  and  C_10
REMARK    4  A    between atoms: C_10  and  C_11
REMARK    5  A    between atoms: C_15  and  C_16
REMARK                            x       y       z     vdW  Elec       q    Type
REMARK                         _______ _______ _______ _____ _____    ______ ____
ROOT
ATOM      1  C   UNL     1      46.682   5.581  13.231  0.00  0.00    +0.000 C 
ENDROOT
BRANCH   1   6
ATOM      2  C   UNL     1      48.276   4.528  17.802  0.00  0.00    +0.000 A 
ATOM      3  C   UNL     1      47.402   3.559  17.371  0.00  0.00    +0.000 A 
ATOM      4  N   UNL     1      46.911   3.502  16.112  0.00  0.00    +0.000 NA
ATOM      5  C   UNL     1      47.311   4.457  15.257  0.00  0.00    +0.000 A 
ATOM      6  N   UNL     1      46.843   4.332  13.959  0.00  0.00    +0.000 N 
ATOM      7  N   UNL     1      48.124   5.467  15.597  0.00  0.00    +0.000 NA
ATOM      8  C   UNL     1      48.586   5.488  16.869  0.00  0.00    +0.000 A 
ATOM      9  H   UNL     1      46.030   3.729  14.005  0.00  0.00    +0.000 HD
BRANCH   2  11
ATOM     10  N   UNL     1      48.488   3.606  20.036  0.00  0.00    +0.000 N 
ATOM     11  C   UNL     1      48.855   4.581  19.150  0.00  0.00    +0.000 C 
ATOM     12  O   UNL     1      49.671   5.440  19.455  0.00  0.00    +0.000 OA
ATOM     13  H   UNL     1      48.995   3.591  20.913  0.00  0.00    +0.000 HD
ATOM     14  H   UNL     1      48.042   2.743  19.754  0.00  0.00    +0.000 HD
ENDBRANCH   2  11
ENDBRANCH   1   6
BRANCH   1  15
ATOM     15  C   UNL     1      45.214   5.746  12.816  0.00  0.00    +0.000 C 
BRANCH  15  16
ATOM     16  C   UNL     1      44.735   4.622  11.937  0.00  0.00    +0.000 A 
ATOM     17  C   UNL     1      43.626   3.861  12.277  0.00  0.00    +0.000 A 
ATOM     18  N   UNL     1      43.144   2.857  11.520  0.00  0.00    +0.000 NA
ATOM     19  C   UNL     1      43.805   2.592  10.364  0.00  0.00    +0.000 A 
ATOM     20  C   UNL     1      44.940   3.269   9.909  0.00  0.00    +0.000 A 
ATOM     21  C   UNL     1      45.387   4.313  10.735  0.00  0.00    +0.000 A 
BRANCH  20  22
ATOM     22  C   UNL     1      45.638   2.899   8.658  0.00  0.00    +0.000 A 
ATOM     23  C   UNL     1      45.921   3.855   7.663  0.00  0.00    +0.000 A 
ATOM     24  C   UNL     1      46.621   3.514   6.500  0.00  0.00    +0.000 A 
ATOM     25  C   UNL     1      47.043   2.205   6.297  0.00  0.00    +0.000 A 
ATOM     26  C   UNL     1      46.762   1.236   7.253  0.00  0.00    +0.000 A 
ATOM     27  C   UNL     1      46.071   1.581   8.420  0.00  0.00    +0.000 A 
ENDBRANCH  20  22
ENDBRANCH  15  16
ENDBRANCH   1  15
TORSDOF 5
ENDMDL
MODEL 3
REMARK VINA RESULT:    -8.024      3.397      7.476
REMARK INTER + INTRA:         -10.908
REMARK INTER:                 -10.187
REMARK INTRA:                  -0.722
REMARK UNBOUND:                -0.539
REMARK  Name = 
REMARK  5 active torsions:
REMARK  status: ('A' for Active; 'I' for Inactive)
REMARK    1  A    between atoms: C_2  and  C_4
REMARK    2  A    between atoms: N_8  and  C_9
REMARK    3  A    between atoms: C_9  and  C_10
REMARK    4  A    between atoms: C_10  and  C_11
REMARK    5  A    between atoms: C_15  and  C_16
REMARK                            x       y       z     vdW  Elec       q    Type
REMARK                         _______ _______ _______ _____ _____    ______ ____
ROOT
ATOM      1  C   UNL     1      43.821   5.185  10.647  0.00  0.00    +0.000 C 
ENDROOT
BRANCH   1   6
ATOM      2  C   UNL     1      46.546   2.457   7.536  0.00  0.00    +0.000 A 
ATOM      3  C   UNL     1      45.883   1.642   8.423  0.00  0.00    +0.000 A 
ATOM      4  N   UNL     1      44.957   2.091   9.300  0.00  0.00    +0.000 NA
ATOM      5  C   UNL     1      44.691   3.407   9.288  0.00  0.00    +0.000 A 
ATOM      6  N   UNL     1      43.691   3.824  10.151  0.00  0.00    +0.000 N 
ATOM      7  N   UNL     1      45.318   4.286   8.493  0.00  0.00    +0.000 NA
ATOM      8  C   UNL     1      46.242   3.794   7.636  0.00  0.00    +0.000 A 
ATOM      9  H   UNL     1      43.595   3.096  10.850  0.00  0.00    +0.000 HD
BRANCH   2  11
ATOM     10  N   UNL     1      48.640   2.744   6.344  0.00  0.00    +0.000 N 
ATOM     11  C   UNL     1      47.522   1.983   6.547  0.00  0.00    +0.000 C 
ATOM     12  O   UNL     1      47.362   0.922   5.959  0.00  0.00    +0.000 OA
ATOM     13  H   UNL     1      49.354   2.333   5.754  0.00  0.00    +0.000 HD
ATOM     14  H   UNL     1      48.940   3.466   6.986  0.00  0.00    +0.000 HD
ENDBRANCH   2  11
ENDBRANCH   1   6
BRANCH   1  15
ATOM     15  C   UNL     1      44.008   5.159  12.170  0.00  0.00    +0.000 C 
BRANCH  15  16
ATOM     16  C   UNL     1      45.408   5.525  12.584  0.00  0.00    +0.000 A 
ATOM     17  C   UNL     1      46.161   4.695  13.402  0.00  0.00    +0.000 A 
ATOM     18  N   UNL     1      47.423   4.964  13.786  0.00  0.00    +0.000 NA
ATOM     19  C   UNL     1      47.963   6.126  13.338  0.00  0.00    +0.000 A 
ATOM     20  C   UNL     1      47.315   7.057  12.523  0.00  0.00    +0.000 A 
ATOM     21  C   UNL     1      46.006   6.715  12.145  0.00  0.00    +0.000 A 
BRANCH  20  22
ATOM     22  C   UNL     1      47.950   8.327  12.105  0.00  0.00    +0.000 A 
ATOM     23  C   UNL     1      49.306   8.383  11.732  0.00  0.00    +0.000 A 
ATOM     24  C   UNL     1      49.896   9.575  11.294  0.00  0.00    +0.000 A 
ATOM     25  C   UNL     1      49.145  10.744  11.232  0.00  0.00    +0.000 A 
ATOM     26  C   UNL     1      47.807  10.722  11.611  0.00  0.00    +0.000 A 
ATOM     27  C   UNL     1      47.218   9.528  12.039  0.00  0.00    +0.000 A 
ENDBRANCH  20  22
ENDBRANCH  15  16
ENDBRANCH   1  15
TORSDOF 5
ENDMDL
MODEL 4
REMARK VINA RESULT:    -7.778      2.779      7.938
REMARK INTER + INTRA:         -10.591
REMARK INTER:                  -9.870
REMARK INTRA:                  -0.721
REMARK UNBOUND:                -0.539
REMARK  Name = 
REMARK  5 active torsions:
REMARK  status: ('A' for Active; 'I' for Inactive)
REMARK    1  A    between atoms: C_2  and  C_4
REMARK    2  A    between atoms: N_8  and  C_9
REMARK    3  A    between atoms: C_9  and  C_10
REMARK    4  A    between atoms: C_10  and  C_11
REMARK    5  A    between atoms: C_15  and  C_16
REMARK                            x       y       z     vdW  Elec       q    Type
REMARK                         _______ _______ _______ _____ _____    ______ ____
ROOT
ATOM      1  C   UNL     1      43.651   5.002  10.627  0.00  0.00    +0.000 C 
ENDROOT
BRANCH   1   6
ATOM      2  C   UNL     1      46.619   2.627   7.450  0.00  0.00    +0.000 A 
ATOM      3  C   UNL     1      45.983   1.724   8.269  0.00  0.00    +0.000 A 
ATOM      4  N   UNL     1      45.009   2.065   9.142  0.00  0.00    +0.000 NA
ATOM      5  C   UNL     1      44.663   3.362   9.196  0.00  0.00    +0.000 A 
ATOM      6  N   UNL     1      43.618   3.667  10.052  0.00  0.00    +0.000 N 
ATOM      7  N   UNL     1      45.256   4.320   8.471  0.00  0.00    +0.000 NA
ATOM      8  C   UNL     1      46.231   3.935   7.616  0.00  0.00    +0.000 A 
ATOM      9  H   UNL     1      43.548   2.895  10.706  0.00  0.00    +0.000 HD
BRANCH   2  11
ATOM     10  N   UNL     1      47.784   3.078   5.371  0.00  0.00    +0.000 N 
ATOM     11  C   UNL     1      47.647   2.270   6.465  0.00  0.00    +0.000 C 
ATOM     12  O   UNL     1      48.386   1.311   6.641  0.00  0.00    +0.000 OA
ATOM     13  H   UNL     1      48.581   2.885   4.774  0.00  0.00    +0.000 HD
ATOM     14  H   UNL     1      47.395   4.010   5.321  0.00  0.00    +0.000 HD
ENDBRANCH   2  11
ENDBRANCH   1   6
BRANCH   1  15
ATOM     15  C   UNL     1      43.869   4.901  12.143  0.00  0.00    +0.000 C 
BRANCH  15  16
ATOM     16  C   UNL     1      45.257   5.312  12.553  0.00  0.00    +0.000 A 
ATOM     17  C   UNL     1      46.051   6.098  11.730  0.00  0.00    +0.000 A 
ATOM     18  N   UNL     1      47.292   6.510  12.055  0.00  0.00    +0.000 NA
ATOM     19  C   UNL     1      47.770   6.113  13.262  0.00  0.00    +0.000 A 
ATOM     20  C   UNL     1      47.084   5.313  14.180  0.00  0.00    +0.000 A 
ATOM     21  C   UNL     1      45.792   4.926  13.791  0.00  0.00    +0.000 A 
BRANCH  20  22
ATOM     22  C   UNL     1      47.684   4.882  15.462  0.00  0.00    +0.000 A 
ATOM     23  C   UNL     1      47.340   3.654  16.059  0.00  0.00    +0.000 A 
ATOM     24  C   UNL     1      47.941   3.225  17.248  0.00  0.00    +0.000 A 
ATOM     25  C   UNL     1      48.890   4.022  17.878  0.00  0.00    +0.000 A 
ATOM     26  C   UNL     1      49.237   5.248  17.322  0.00  0.00    +0.000 A 
ATOM     27  C   UNL     1      48.643   5.670  16.127  0.00  0.00    +0.000 A 
ENDBRANCH  20  22
ENDBRANCH  15  16
ENDBRANCH   1  15
TORSDOF 5
ENDMDL
MODEL 5
REMARK VINA RESULT:    -7.592      3.021      3.971
REMARK INTER + INTRA:         -10.350
REMARK INTER:                  -9.676
REMARK INTRA:                  -0.675
REMARK UNBOUND:                -0.539
REMARK  Name = 
REMARK  5 active torsions:
REMARK  status: ('A' for Active; 'I' for Inactive)
REMARK    1  A    between atoms: C_2  and  C_4
REMARK    2  A    between atoms: N_8  and  C_9
REMARK    3  A    between atoms: C_9  and  C_10
REMARK    4  A    between atoms: C_10  and  C_11
REMARK    5  A    between atoms: C_15  and  C_16
REMARK                            x       y       z     vdW  Elec       q    Type
REMARK                         _______ _______ _______ _____ _____    ______ ____
ROOT
ATOM      1  C   UNL     1      44.932   6.519  12.896  0.00  0.00    +0.000 C 
ENDROOT
BRANCH   1   6
ATOM      2  C   UNL     1      49.424   8.299  11.799  0.00  0.00    +0.000 A 
ATOM      3  C   UNL     1      48.492   9.309  11.762  0.00  0.00    +0.000 A 
ATOM      4  N   UNL     1      47.207   9.155  12.152  0.00  0.00    +0.000 NA
ATOM      5  C   UNL     1      46.844   7.939  12.592  0.00  0.00    +0.000 A 
ATOM      6  N   UNL     1      45.539   7.832  13.045  0.00  0.00    +0.000 N 
ATOM      7  N   UNL     1      47.668   6.882  12.622  0.00  0.00    +0.000 NA
ATOM      8  C   UNL     1      48.943   7.081  12.217  0.00  0.00    +0.000 A 
ATOM      9  H   UNL     1      45.032   8.613  12.644  0.00  0.00    +0.000 HD
BRANCH   2  11
ATOM     10  N   UNL     1      51.458   9.619  11.783  0.00  0.00    +0.000 N 
ATOM     11  C   UNL     1      50.833   8.458  11.423  0.00  0.00    +0.000 C 
ATOM     12  O   UNL     1      51.440   7.563  10.849  0.00  0.00    +0.000 OA
ATOM     13  H   UNL     1      52.459   9.651  11.625  0.00  0.00    +0.000 HD
ATOM     14  H   UNL     1      51.088  10.253  12.478  0.00  0.00    +0.000 HD
ENDBRANCH   2  11
ENDBRANCH   1   6
BRANCH   1  15
ATOM     15  C   UNL     1      44.272   6.414  11.514  0.00  0.00    +0.000 C 
BRANCH  15  16
ATOM     16  C   UNL     1      44.212   4.998  11.012  0.00  0.00    +0.000 A 
ATOM     17  C   UNL     1      43.393   4.052  11.612  0.00  0.00    +0.000 A 
ATOM     18  N   UNL     1      43.286   2.777  11.192  0.00  0.00    +0.000 NA
ATOM     19  C   UNL     1      44.040   2.421  10.121  0.00  0.00    +0.000 A 
ATOM     20  C   UNL     1      44.914   3.266   9.432  0.00  0.00    +0.000 A 
ATOM     21  C   UNL     1      44.973   4.586   9.908  0.00  0.00    +0.000 A 
BRANCH  20  22
ATOM     22  C   UNL     1      45.740   2.800   8.297  0.00  0.00    +0.000 A 
ATOM     23  C   UNL     1      46.083   3.659   7.235  0.00  0.00    +0.000 A 
ATOM     24  C   UNL     1      46.902   3.231   6.183  0.00  0.00    +0.000 A 
ATOM     25  C   UNL     1      47.386   1.928   6.160  0.00  0.00    +0.000 A 
ATOM     26  C   UNL     1      47.050   1.052   7.186  0.00  0.00    +0.000 A 
ATOM     27  C   UNL     1      46.240   1.485   8.242  0.00  0.00    +0.000 A 
ENDBRANCH  20  22
ENDBRANCH  15  16
ENDBRANCH   1  15
TORSDOF 5
ENDMDL
MODEL 6
REMARK VINA RESULT:    -7.393      2.122      3.355
REMARK INTER + INTRA:         -10.092
REMARK INTER:                  -9.262
REMARK INTRA:                  -0.830
REMARK UNBOUND:                -0.539
REMARK  Name = 
REMARK  5 active torsions:
REMARK  status: ('A' for Active; 'I' for Inactive)
REMARK    1  A    between atoms: C_2  and  C_4
REMARK    2  A    between atoms: N_8  and  C_9
REMARK    3  A    between atoms: C_9  and  C_10
REMARK    4  A    between atoms: C_10  and  C_11
REMARK    5  A    between atoms: C_15  and  C_16
REMARK                            x       y       z     vdW  Elec       q    Type
REMARK                         _______ _______ _______ _____ _____    ______ ____
ROOT
ATOM      1  C   UNL     1      49.322   7.349  12.913  0.00  0.00    +0.000 C 
ENDROOT
BRANCH   1   6
ATOM      2  C   UNL     1      47.921   4.639  16.816  0.00  0.00    +0.000 A 
ATOM      3  C   UNL     1      48.743   5.664  17.222  0.00  0.00    +0.000 A 
ATOM      4  N   UNL     1      49.170   6.649  16.400  0.00  0.00    +0.000 NA
ATOM      5  C   UNL     1      48.758   6.601  15.123  0.00  0.00    +0.000 A 
ATOM      6  N   UNL     1      49.159   7.659  14.325  0.00  0.00    +0.000 N 
ATOM      7  N   UNL     1      47.994   5.618  14.624  0.00  0.00    +0.000 NA
ATOM      8  C   UNL     1      47.596   4.649  15.480  0.00  0.00    +0.000 A 
ATOM      9  H   UNL     1      49.954   8.083  14.789  0.00  0.00    +0.000 HD
BRANCH   2  11
ATOM     10  N   UNL     1      48.064   3.382  18.886  0.00  0.00    +0.000 N 
ATOM     11  C   UNL     1      47.411   3.586  17.702  0.00  0.00    +0.000 C 
ATOM     12  O   UNL     1      46.409   2.946  17.413  0.00  0.00    +0.000 OA
ATOM     13  H   UNL     1      47.619   2.741  19.533  0.00  0.00    +0.000 HD
ATOM     14  H   UNL     1      48.711   4.052  19.282  0.00  0.00    +0.000 HD
ENDBRANCH   2  11
ENDBRANCH   1   6
BRANCH   1  15
ATOM     15  C   UNL     1      48.356   8.207  12.085  0.00  0.00    +0.000 C 
BRANCH  15  16
ATOM     16  C   UNL     1      46.982   7.600  11.994  0.00  0.00    +0.000 A 
ATOM     17  C   UNL     1      45.911   8.125  12.703  0.00  0.00    +0.000 A 
ATOM     18  N   UNL     1      44.659   7.633  12.643  0.00  0.00    +0.000 NA
ATOM     19  C   UNL     1      44.463   6.557  11.839  0.00  0.00    +0.000 A 
ATOM     20  C   UNL     1      45.452   5.923  11.082  0.00  0.00    +0.000 A 
ATOM     21  C   UNL     1      46.733   6.488  11.176  0.00  0.00    +0.000 A 
BRANCH  20  22
ATOM     22  C   UNL     1      45.177   4.725  10.259  0.00  0.00    +0.000 A 
ATOM     23  C   UNL     1      45.534   4.669   8.898  0.00  0.00    +0.000 A 
ATOM     24  C   UNL     1      45.315   3.520   8.130  0.00  0.00    +0.000 A 
ATOM     25  C   UNL     1      44.719   2.401   8.702  0.00  0.00    +0.000 A 
ATOM     26  C   UNL     1      44.340   2.433  10.039  0.00  0.00    +0.000 A 
ATOM     27  C   UNL     1      44.569   3.579  10.807  0.00  0.00    +0.000 A 
ENDBRANCH  20  22
ENDBRANCH  15  16
ENDBRANCH   1  15
TORSDOF 5
ENDMDL
MODEL 7
REMARK VINA RESULT:    -6.712      3.985      7.812
REMARK INTER + INTRA:          -9.213
REMARK INTER:                  -8.643
REMARK INTRA:                  -0.570
REMARK UNBOUND:                -0.539
REMARK  Name = 
REMARK  5 active torsions:
REMARK  status: ('A' for Active; 'I' for Inactive)
REMARK    1  A    between atoms: C_2  and  C_4
REMARK    2  A    between atoms: N_8  and  C_9
REMARK    3  A    between atoms: C_9  and  C_10
REMARK    4  A    between atoms: C_10  and  C_11
REMARK    5  A    between atoms: C_15  and  C_16
REMARK                            x       y       z     vdW  Elec       q    Type
REMARK                         _______ _______ _______ _____ _____    ______ ____
ROOT
ATOM      1  C   UNL     1      44.771   5.402  10.612  0.00  0.00    +0.000 C 
ENDROOT
BRANCH   1   6
ATOM      2  C   UNL     1      46.596   2.524   7.016  0.00  0.00    +0.000 A 
ATOM      3  C   UNL     1      46.126   1.749   8.050  0.00  0.00    +0.000 A 
ATOM      4  N   UNL     1      45.447   2.246   9.107  0.00  0.00    +0.000 NA
ATOM      5  C   UNL     1      45.234   3.573   9.128  0.00  0.00    +0.000 A 
ATOM      6  N   UNL     1      44.479   4.041  10.190  0.00  0.00    +0.000 N 
ATOM      7  N   UNL     1      45.692   4.414   8.190  0.00  0.00    +0.000 NA
ATOM      8  C   UNL     1      46.373   3.873   7.154  0.00  0.00    +0.000 A 
ATOM      9  H   UNL     1      44.521   3.327  10.908  0.00  0.00    +0.000 HD
BRANCH   2  11
ATOM     10  N   UNL     1      48.663   1.972   5.873  0.00  0.00    +0.000 N 
ATOM     11  C   UNL     1      47.296   1.997   5.838  0.00  0.00    +0.000 C 
ATOM     12  O   UNL     1      46.678   1.554   4.880  0.00  0.00    +0.000 OA
ATOM     13  H   UNL     1      49.116   1.488   5.105  0.00  0.00    +0.000 HD
ATOM     14  H   UNL     1      49.196   2.068   6.727  0.00  0.00    +0.000 HD
ENDBRANCH   2  11
ENDBRANCH   1   6
BRANCH   1  15
ATOM     15  C   UNL     1      45.462   5.376  11.983  0.00  0.00    +0.000 C 
BRANCH  15  16
ATOM     16  C   UNL     1      46.177   6.663  12.290  0.00  0.00    +0.000 A 
ATOM     17  C   UNL     1      45.501   7.761  12.802  0.00  0.00    +0.000 A 
ATOM     18  N   UNL     1      46.094   8.930  13.112  0.00  0.00    +0.000 NA
ATOM     19  C   UNL     1      47.432   9.012  12.896  0.00  0.00    +0.000 A 
ATOM     20  C   UNL     1      48.231   7.991  12.376  0.00  0.00    +0.000 A 
ATOM     21  C   UNL     1      47.558   6.793  12.083  0.00  0.00    +0.000 A 
BRANCH  20  22
ATOM     22  C   UNL     1      49.678   8.163  12.125  0.00  0.00    +0.000 A 
ATOM     23  C   UNL     1      50.513   8.816  13.053  0.00  0.00    +0.000 A 
ATOM     24  C   UNL     1      51.890   8.939  12.838  0.00  0.00    +0.000 A 
ATOM     25  C   UNL     1      52.465   8.424  11.681  0.00  0.00    +0.000 A 
ATOM     26  C   UNL     1      51.664   7.790  10.738  0.00  0.00    +0.000 A 
ATOM     27  C   UNL     1      50.289   7.659  10.961  0.00  0.00    +0.000 A 
ENDBRANCH  20  22
ENDBRANCH  15  16
ENDBRANCH   1  15
TORSDOF 5
ENDMDL
MODEL 8
REMARK VINA RESULT:    -6.590      3.527      8.164
REMARK INTER + INTRA:          -9.055
REMARK INTER:                  -8.450
REMARK INTRA:                  -0.605
REMARK UNBOUND:                -0.539
REMARK  Name = 
REMARK  5 active torsions:
REMARK  status: ('A' for Active; 'I' for Inactive)
REMARK    1  A    between atoms: C_2  and  C_4
REMARK    2  A    between atoms: N_8  and  C_9
REMARK    3  A    between atoms: C_9  and  C_10
REMARK    4  A    between atoms: C_10  and  C_11
REMARK    5  A    between atoms: C_15  and  C_16
REMARK                            x       y       z     vdW  Elec       q    Type
REMARK                         _______ _______ _______ _____ _____    ______ ____
ROOT
ATOM      1  C   UNL     1      47.842   8.104  13.249  0.00  0.00    +0.000 C 
ENDROOT
BRANCH   1   6
ATOM      2  C   UNL     1      44.717   4.976  11.014  0.00  0.00    +0.000 A 
ATOM      3  C   UNL     1      44.312   5.207  12.307  0.00  0.00    +0.000 A 
ATOM      4  N   UNL     1      44.886   6.123  13.118  0.00  0.00    +0.000 NA
ATOM      5  C   UNL     1      45.909   6.832  12.611  0.00  0.00    +0.000 A 
ATOM      6  N   UNL     1      46.432   7.807  13.444  0.00  0.00    +0.000 N 
ATOM      7  N   UNL     1      46.404   6.646  11.379  0.00  0.00    +0.000 NA
ATOM      8  C   UNL     1      45.802   5.714  10.605  0.00  0.00    +0.000 A 
ATOM      9  H   UNL     1      46.148   7.562  14.385  0.00  0.00    +0.000 HD
BRANCH   2  11
ATOM     10  N   UNL     1      44.062   4.323   8.771  0.00  0.00    +0.000 N 
ATOM     11  C   UNL     1      44.078   4.018  10.104  0.00  0.00    +0.000 C 
ATOM     12  O   UNL     1      43.618   2.962  10.518  0.00  0.00    +0.000 OA
ATOM     13  H   UNL     1      43.731   3.591   8.153  0.00  0.00    +0.000 HD
ATOM     14  H   UNL     1      44.655   5.031   8.360  0.00  0.00    +0.000 HD
ENDBRANCH   2  11
ENDBRANCH   1   6
BRANCH   1  15
ATOM     15  C   UNL     1      48.318   9.072  14.340  0.00  0.00    +0.000 C 
BRANCH  15  16
ATOM     16  C   UNL     1      48.461   8.403  15.680  0.00  0.00    +0.000 A 
ATOM     17  C   UNL     1      48.227   9.092  16.861  0.00  0.00    +0.000 A 
ATOM     18  N   UNL     1      48.322   8.538  18.085  0.00  0.00    +0.000 NA
ATOM     19  C   UNL     1      48.674   7.228  18.137  0.00  0.00    +0.000 A 
ATOM     20  C   UNL     1      48.950   6.421  17.030  0.00  0.00    +0.000 A 
ATOM     21  C   UNL     1      48.823   7.052  15.781  0.00  0.00    +0.000 A 
BRANCH  20  22
ATOM     22  C   UNL     1      49.372   5.009  17.160  0.00  0.00    +0.000 A 
ATOM     23  C   UNL     1      48.473   3.949  16.934  0.00  0.00    +0.000 A 
ATOM     24  C   UNL     1      48.882   2.613  17.014  0.00  0.00    +0.000 A 
ATOM     25  C   UNL     1      50.199   2.304  17.335  0.00  0.00    +0.000 A 
ATOM     26  C   UNL     1      51.105   3.330  17.581  0.00  0.00    +0.000 A 
ATOM     27  C   UNL     1      50.696   4.665  17.491  0.00  0.00    +0.000 A 
ENDBRANCH  20  22
ENDBRANCH  15  16
ENDBRANCH   1  15
TORSDOF 5
ENDMDL
MODEL 9
REMARK VINA RESULT:    -6.495      3.394      8.561
REMARK INTER + INTRA:          -8.932
REMARK INTER:                  -8.653
REMARK INTRA:                  -0.279
REMARK UNBOUND:                -0.539
REMARK  Name = 
REMARK  5 active torsions:
REMARK  status: ('A' for Active; 'I' for Inactive)
REMARK    1  A    between atoms: C_2  and  C_4
REMARK    2  A    between atoms: N_8  and  C_9
REMARK    3  A    between atoms: C_9  and  C_10
REMARK    4  A    between atoms: C_10  and  C_11
REMARK    5  A    between atoms: C_15  and  C_16
REMARK                            x       y       z     vdW  Elec       q    Type
REMARK                         _______ _______ _______ _____ _____    ______ ____
ROOT
ATOM      1  C   UNL     1      48.312   6.709  14.495  0.00  0.00    +0.000 C 
ENDROOT
BRANCH   1   6
ATOM      2  C   UNL     1      45.062   4.337  11.605  0.00  0.00    +0.000 A 
ATOM      3  C   UNL     1      45.510   3.500  12.599  0.00  0.00    +0.000 A 
ATOM      4  N   UNL     1      46.298   3.907  13.620  0.00  0.00    +0.000 NA
ATOM      5  C   UNL     1      46.650   5.203  13.641  0.00  0.00    +0.000 A 
ATOM      6  N   UNL     1      47.401   5.602  14.734  0.00  0.00    +0.000 N 
ATOM      7  N   UNL     1      46.299   6.085  12.693  0.00  0.00    +0.000 NA
ATOM      8  C   UNL     1      45.517   5.632  11.687  0.00  0.00    +0.000 A 
ATOM      9  H   UNL     1      47.806   4.759  15.125  0.00  0.00    +0.000 HD
BRANCH   2  11
ATOM     10  N   UNL     1      44.075   4.749   9.428  0.00  0.00    +0.000 N 
ATOM     11  C   UNL     1      44.171   3.924  10.514  0.00  0.00    +0.000 C 
ATOM     12  O   UNL     1      43.573   2.858  10.555  0.00  0.00    +0.000 OA
ATOM     13  H   UNL     1      43.557   4.383   8.638  0.00  0.00    +0.000 HD
ATOM     14  H   UNL     1      44.742   5.484   9.232  0.00  0.00    +0.000 HD
ENDBRANCH   2  11
ENDBRANCH   1   6
BRANCH   1  15
ATOM     15  C   UNL     1      48.936   7.156  15.824  0.00  0.00    +0.000 C 
BRANCH  15  16
ATOM     16  C   UNL     1      49.010   6.038  16.829  0.00  0.00    +0.000 A 
ATOM     17  C   UNL     1      48.022   5.860  17.786  0.00  0.00    +0.000 A 
ATOM     18  N   UNL     1      48.029   4.866  18.696  0.00  0.00    +0.000 NA
ATOM     19  C   UNL     1      49.079   4.007  18.654  0.00  0.00    +0.000 A 
ATOM     20  C   UNL     1      50.146   4.078  17.754  0.00  0.00    +0.000 A 
ATOM     21  C   UNL     1      50.077   5.127  16.823  0.00  0.00    +0.000 A 
BRANCH  20  22
ATOM     22  C   UNL     1      51.282   3.132  17.793  0.00  0.00    +0.000 A 
ATOM     23  C   UNL     1      51.142   1.796  17.371  0.00  0.00    +0.000 A 
ATOM     24  C   UNL     1      52.228   0.913  17.364  0.00  0.00    +0.000 A 
ATOM     25  C   UNL     1      53.479   1.341  17.794  0.00  0.00    +0.000 A 
ATOM     26  C   UNL     1      53.644   2.650  18.233  0.00  0.00    +0.000 A 
ATOM     27  C   UNL     1      52.559   3.534  18.229  0.00  0.00    +0.000 A 
ENDBRANCH  20  22
ENDBRANCH  15  16
ENDBRANCH   1  15
TORSDOF 5
ENDMDL
