MODEL 1
REMARK VINA RESULT:    -7.956      0.000      0.000
REMARK INTER + INTRA:         -11.779
REMARK INTER:                 -10.747
REMARK INTRA:                  -1.032
REMARK UNBOUND:                -1.032
REMARK  Name = 
REMARK  7 active torsions:
REMARK  status: ('A' for Active; 'I' for Inactive)
REMARK    1  A    between atoms: C_1  and  C_2
REMARK    2  A    between atoms: C_2  and  N_3
REMARK    3  A    between atoms: C_2  and  C_18
REMARK    4  A    between atoms: N_3  and  C_4
REMARK    5  A    between atoms: C_7  and  C_8
REMARK    6  A    between atoms: C_8  and  N_9
REMARK    7  A    between atoms: C_18  and  C_20
REMARK                            x       y       z     vdW  Elec       q    Type
REMARK                         _______ _______ _______ _____ _____    ______ ____
ROOT
ATOM      1  N   UNL     1      47.258   5.953  14.562  0.00  0.00    +0.000 N 
ATOM      2  H   UNL     1      46.890   6.056  15.510  0.00  0.00    +0.000 HD
ENDROOT
BRANCH   1   3
ATOM      3  C   UNL     1      46.389   5.478  13.596  0.00  0.00    +0.000 A 
ATOM      4  C   UNL     1      46.289   4.107  13.357  0.00  0.00    +0.000 A 
ATOM      5  C   UNL     1      45.406   3.613  12.393  0.00  0.00    +0.000 A 
ATOM      6  C   UNL     1      44.621   4.509  11.669  0.00  0.00    +0.000 A 
ATOM      7  N   UNL     1      44.708   5.848  11.864  0.00  0.00    +0.000 NA
ATOM      8  C   UNL     1      45.582   6.289  12.801  0.00  0.00    +0.000 A 
BRANCH   6   9
ATOM      9  C   UNL     1      43.637   4.018  10.630  0.00  0.00    +0.000 C 
BRANCH   9  10
ATOM     10  N   UNL     1      44.082   4.338   9.283  0.00  0.00    +0.000 N 
ATOM     11  C   UNL     1      45.067   3.593   8.671  0.00  0.00    +0.000 A 
ATOM     12  C   UNL     1      45.246   2.237   8.878  0.00  0.00    +0.000 A 
ATOM     13  C   UNL     1      46.247   1.621   8.155  0.00  0.00    +0.000 A 
ATOM     14  N   UNL     1      47.023   2.260   7.262  0.00  0.00    +0.000 NA
ATOM     15  C   UNL     1      46.756   3.567   7.118  0.00  0.00    +0.000 A 
ATOM     16  N   UNL     1      45.824   4.266   7.786  0.00  0.00    +0.000 NA
ATOM     17  H   UNL     1      44.207   5.320   9.072  0.00  0.00    +0.000 HD
ENDBRANCH   9  10
ENDBRANCH   6   9
ENDBRANCH   1   3
BRANCH   1  19
ATOM     18  C   UNL     1      47.967   8.285  14.048  0.00  0.00    +0.000 C 
ATOM     19  C   UNL     1      48.403   6.837  14.268  0.00  0.00    +0.000 C 
BRANCH  19  20
ATOM     20  C   UNL     1      49.345   6.814  15.489  0.00  0.00    +0.000 C 
ATOM     21  O   UNL     1      50.566   6.792  15.315  0.00  0.00    +0.000 OA
BRANCH  20  22
ATOM     22  C   UNL     1      48.803   6.901  16.850  0.00  0.00    +0.000 A 
ATOM     23  C   UNL     1      48.420   8.073  17.482  0.00  0.00    +0.000 A 
ATOM     24  S   UNL     1      48.174   7.863  19.166  0.00  0.00    +0.000 S 
ATOM     25  C   UNL     1      48.507   6.195  19.066  0.00  0.00    +0.000 A 
ATOM     26  N   UNL     1      48.562   5.406  20.171  0.00  0.00    +0.000 NA
ATOM     27  C   UNL     1      48.800   4.160  19.917  0.00  0.00    +0.000 A 
ATOM     28  N   UNL     1      48.937   3.624  18.660  0.00  0.00    +0.000 N 
ATOM     29  C   UNL     1      48.786   4.369  17.513  0.00  0.00    +0.000 A 
ATOM     30  O   UNL     1      48.645   3.842  16.416  0.00  0.00    +0.000 OA
ATOM     31  C   UNL     1      48.684   5.795  17.758  0.00  0.00    +0.000 A 
ATOM     32  H   UNL     1      48.999   2.625  18.529  0.00  0.00    +0.000 HD
ENDBRANCH  20  22
ENDBRANCH  19  20
ENDBRANCH   1  19
TORSDOF 6
ENDMDL
MODEL 2
REMARK VINA RESULT:    -7.755      1.806      1.960
REMARK INTER + INTRA:         -11.507
REMARK INTER:                 -10.326
REMARK INTRA:                  -1.181
REMARK UNBOUND:                -1.032
REMARK  Name = 
REMARK  7 active torsions:
REMARK  status: ('A' for Active; 'I' for Inactive)
REMARK    1  A    between atoms: C_1  and  C_2
REMARK    2  A    between atoms: C_2  and  N_3
REMARK    3  A    between atoms: C_2  and  C_18
REMARK    4  A    between atoms: N_3  and  C_4
REMARK    5  A    between atoms: C_7  and  C_8
REMARK    6  A    between atoms: C_8  and  N_9
REMARK    7  A    between atoms: C_18  and  C_20
REMARK                            x       y       z     vdW  Elec       q    Type
REMARK                         _______ _______ _______ _____ _____    ______ ____
ROOT
ATOM      1  N   UNL     1      47.418   7.439  14.049  0.00  0.00    +0.000 N 
ATOM      2  H   UNL     1      47.324   8.456  14.078  0.00  0.00    +0.000 HD
ENDROOT
BRANCH   1   3
ATOM      3  C   UNL     1      46.538   6.747  13.237  0.00  0.00    +0.000 A 
ATOM      4  C   UNL     1      46.534   5.351  13.237  0.00  0.00    +0.000 A 
ATOM      5  C   UNL     1      45.641   4.639  12.431  0.00  0.00    +0.000 A 
ATOM      6  C   UNL     1      44.749   5.342  11.622  0.00  0.00    +0.000 A 
ATOM      7  N   UNL     1      44.740   6.697  11.584  0.00  0.00    +0.000 NA
ATOM      8  C   UNL     1      45.627   7.351  12.373  0.00  0.00    +0.000 A 
BRANCH   6   9
ATOM      9  C   UNL     1      43.751   4.613  10.749  0.00  0.00    +0.000 C 
BRANCH   9  10
ATOM     10  N   UNL     1      44.108   4.707   9.342  0.00  0.00    +0.000 N 
ATOM     11  C   UNL     1      44.968   3.793   8.771  0.00  0.00    +0.000 A 
ATOM     12  C   UNL     1      45.040   2.465   9.151  0.00  0.00    +0.000 A 
ATOM     13  C   UNL     1      45.917   1.661   8.451  0.00  0.00    +0.000 A 
ATOM     14  N   UNL     1      46.669   2.096   7.426  0.00  0.00    +0.000 NA
ATOM     15  C   UNL     1      46.510   3.393   7.120  0.00  0.00    +0.000 A 
ATOM     16  N   UNL     1      45.704   4.264   7.750  0.00  0.00    +0.000 NA
ATOM     17  H   UNL     1      44.303   5.635   8.989  0.00  0.00    +0.000 HD
ENDBRANCH   9  10
ENDBRANCH   6   9
ENDBRANCH   1   3
BRANCH   1  19
ATOM     18  C   UNL     1      49.858   7.725  13.638  0.00  0.00    +0.000 C 
ATOM     19  C   UNL     1      48.772   6.955  14.385  0.00  0.00    +0.000 C 
BRANCH  19  20
ATOM     20  C   UNL     1      48.994   7.181  15.895  0.00  0.00    +0.000 C 
ATOM     21  O   UNL     1      48.384   8.085  16.472  0.00  0.00    +0.000 OA
BRANCH  20  22
ATOM     22  C   UNL     1      49.860   6.279  16.664  0.00  0.00    +0.000 A 
ATOM     23  C   UNL     1      51.109   6.608  17.164  0.00  0.00    +0.000 A 
ATOM     24  S   UNL     1      51.990   5.236  17.693  0.00  0.00    +0.000 S 
ATOM     25  C   UNL     1      50.695   4.191  17.326  0.00  0.00    +0.000 A 
ATOM     26  N   UNL     1      50.803   2.841  17.450  0.00  0.00    +0.000 NA
ATOM     27  C   UNL     1      49.720   2.197  17.156  0.00  0.00    +0.000 A 
ATOM     28  N   UNL     1      48.529   2.780  16.798  0.00  0.00    +0.000 N 
ATOM     29  C   UNL     1      48.350   4.144  16.761  0.00  0.00    +0.000 A 
ATOM     30  O   UNL     1      47.233   4.645  16.705  0.00  0.00    +0.000 OA
ATOM     31  C   UNL     1      49.580   4.894  16.922  0.00  0.00    +0.000 A 
ATOM     32  H   UNL     1      47.692   2.225  16.702  0.00  0.00    +0.000 HD
ENDBRANCH  20  22
ENDBRANCH  19  20
ENDBRANCH   1  19
TORSDOF 6
ENDMDL
MODEL 3
REMARK VINA RESULT:    -7.481      1.561      2.058
REMARK INTER + INTRA:         -11.137
REMARK INTER:                 -10.412
REMARK INTRA:                  -0.725
REMARK UNBOUND:                -1.032
REMARK  Name = 
REMARK  7 active torsions:
REMARK  status: ('A' for Active; 'I' for Inactive)
REMARK    1  A    between atoms: C_1  and  C_2
REMARK    2  A    between atoms: C_2  and  N_3
REMARK    3  A    between atoms: C_2  and  C_18
REMARK    4  A    between atoms: N_3  and  C_4
REMARK    5  A    between atoms: C_7  and  C_8
REMARK    6  A    between atoms: C_8  and  N_9
REMARK    7  A    between atoms: C_18  and  C_20
REMARK                            x       y       z     vdW  Elec       q    Type
REMARK                         _______ _______ _______ _____ _____    ______ ____
ROOT
ATOM      1  N   UNL     1      47.602   5.252  14.379  0.00  0.00    +0.000 N 
ATOM      2  H   UNL     1      48.574   5.285  14.068  0.00  0.00    +0.000 HD
ENDROOT
BRANCH   1   3
ATOM      3  C   UNL     1      46.633   5.082  13.407  0.00  0.00    +0.000 A 
ATOM      4  C   UNL     1      46.240   6.161  12.613  0.00  0.00    +0.000 A 
ATOM      5  C   UNL     1      45.272   6.000  11.618  0.00  0.00    +0.000 A 
ATOM      6  C   UNL     1      44.699   4.744  11.426  0.00  0.00    +0.000 A 
ATOM      7  N   UNL     1      45.045   3.680  12.192  0.00  0.00    +0.000 NA
ATOM      8  C   UNL     1      45.981   3.878  13.152  0.00  0.00    +0.000 A 
BRANCH   6   9
ATOM      9  C   UNL     1      43.661   4.519  10.347  0.00  0.00    +0.000 C 
BRANCH   9  10
ATOM     10  N   UNL     1      44.236   4.663   9.019  0.00  0.00    +0.000 N 
ATOM     11  C   UNL     1      45.143   3.741   8.541  0.00  0.00    +0.000 A 
ATOM     12  C   UNL     1      45.110   2.395   8.859  0.00  0.00    +0.000 A 
ATOM     13  C   UNL     1      46.058   1.589   8.261  0.00  0.00    +0.000 A 
ATOM     14  N   UNL     1      46.975   2.038   7.388  0.00  0.00    +0.000 NA
ATOM     15  C   UNL     1      46.909   3.353   7.129  0.00  0.00    +0.000 A 
ATOM     16  N   UNL     1      46.045   4.227   7.671  0.00  0.00    +0.000 NA
ATOM     17  H   UNL     1      44.514   5.597   8.748  0.00  0.00    +0.000 HD
ENDBRANCH   9  10
ENDBRANCH   6   9
ENDBRANCH   1   3
BRANCH   1  19
ATOM     18  C   UNL     1      47.750   3.329  15.956  0.00  0.00    +0.000 C 
ATOM     19  C   UNL     1      47.439   4.814  15.780  0.00  0.00    +0.000 C 
BRANCH  19  20
ATOM     20  C   UNL     1      48.443   5.606  16.643  0.00  0.00    +0.000 C 
ATOM     21  O   UNL     1      49.188   6.430  16.109  0.00  0.00    +0.000 OA
BRANCH  20  22
ATOM     22  C   UNL     1      48.461   5.444  18.102  0.00  0.00    +0.000 A 
ATOM     23  C   UNL     1      47.441   5.825  18.958  0.00  0.00    +0.000 A 
ATOM     24  S   UNL     1      47.927   5.824  20.603  0.00  0.00    +0.000 S 
ATOM     25  C   UNL     1      49.480   5.251  20.204  0.00  0.00    +0.000 A 
ATOM     26  N   UNL     1      50.456   5.107  21.140  0.00  0.00    +0.000 NA
ATOM     27  C   UNL     1      51.568   4.637  20.675  0.00  0.00    +0.000 A 
ATOM     28  N   UNL     1      51.776   4.251  19.373  0.00  0.00    +0.000 N 
ATOM     29  C   UNL     1      50.785   4.283  18.420  0.00  0.00    +0.000 A 
ATOM     30  O   UNL     1      50.901   3.696  17.350  0.00  0.00    +0.000 OA
ATOM     31  C   UNL     1      49.580   4.957  18.860  0.00  0.00    +0.000 A 
ATOM     32  H   UNL     1      52.627   3.778  19.106  0.00  0.00    +0.000 HD
ENDBRANCH  20  22
ENDBRANCH  19  20
ENDBRANCH   1  19
TORSDOF 6
ENDMDL
MODEL 4
REMARK VINA RESULT:    -7.407      1.924      2.652
REMARK INTER + INTRA:         -11.036
REMARK INTER:                 -10.142
REMARK INTRA:                  -0.895
REMARK UNBOUND:                -1.032
REMARK  Name = 
REMARK  7 active torsions:
REMARK  status: ('A' for Active; 'I' for Inactive)
REMARK    1  A    between atoms: C_1  and  C_2
REMARK    2  A    between atoms: C_2  and  N_3
REMARK    3  A    between atoms: C_2  and  C_18
REMARK    4  A    between atoms: N_3  and  C_4
REMARK    5  A    between atoms: C_7  and  C_8
REMARK    6  A    between atoms: C_8  and  N_9
REMARK    7  A    between atoms: C_18  and  C_20
REMARK                            x       y       z     vdW  Elec       q    Type
REMARK                         _______ _______ _______ _____ _____    ______ ____
ROOT
ATOM      1  N   UNL     1      45.880   7.142  13.310  0.00  0.00    +0.000 N 
ATOM      2  H   UNL     1      45.165   7.781  13.663  0.00  0.00    +0.000 HD
ENDROOT
BRANCH   1   3
ATOM      3  C   UNL     1      45.472   6.175  12.409  0.00  0.00    +0.000 A 
ATOM      4  C   UNL     1      45.797   6.296  11.057  0.00  0.00    +0.000 A 
ATOM      5  C   UNL     1      45.404   5.320  10.137  0.00  0.00    +0.000 A 
ATOM      6  C   UNL     1      44.680   4.217  10.587  0.00  0.00    +0.000 A 
ATOM      7  N   UNL     1      44.332   4.078  11.891  0.00  0.00    +0.000 NA
ATOM      8  C   UNL     1      44.724   5.050  12.750  0.00  0.00    +0.000 A 
BRANCH   6   9
ATOM      9  C   UNL     1      44.250   3.126   9.631  0.00  0.00    +0.000 C 
BRANCH   9  10
ATOM     10  N   UNL     1      45.277   2.105   9.494  0.00  0.00    +0.000 N 
ATOM     11  C   UNL     1      45.979   1.966   8.315  0.00  0.00    +0.000 A 
ATOM     12  C   UNL     1      46.302   3.024   7.485  0.00  0.00    +0.000 A 
ATOM     13  C   UNL     1      47.052   2.732   6.364  0.00  0.00    +0.000 A 
ATOM     14  N   UNL     1      47.491   1.498   6.061  0.00  0.00    +0.000 NA
ATOM     15  C   UNL     1      47.144   0.545   6.941  0.00  0.00    +0.000 A 
ATOM     16  N   UNL     1      46.400   0.718   8.047  0.00  0.00    +0.000 NA
ATOM     17  H   UNL     1      45.060   1.194   9.878  0.00  0.00    +0.000 HD
ENDBRANCH   9  10
ENDBRANCH   6   9
ENDBRANCH   1   3
BRANCH   1  19
ATOM     18  C   UNL     1      47.418   8.721  14.470  0.00  0.00    +0.000 C 
ATOM     19  C   UNL     1      47.247   7.696  13.351  0.00  0.00    +0.000 C 
BRANCH  19  20
ATOM     20  C   UNL     1      48.221   6.532  13.633  0.00  0.00    +0.000 C 
ATOM     21  O   UNL     1      49.065   6.227  12.787  0.00  0.00    +0.000 OA
BRANCH  20  22
ATOM     22  C   UNL     1      48.202   5.843  14.928  0.00  0.00    +0.000 A 
ATOM     23  C   UNL     1      47.353   4.801  15.264  0.00  0.00    +0.000 A 
ATOM     24  S   UNL     1      47.348   4.472  16.947  0.00  0.00    +0.000 S 
ATOM     25  C   UNL     1      48.527   5.666  17.243  0.00  0.00    +0.000 A 
ATOM     26  N   UNL     1      48.928   5.983  18.503  0.00  0.00    +0.000 NA
ATOM     27  C   UNL     1      49.848   6.891  18.550  0.00  0.00    +0.000 A 
ATOM     28  N   UNL     1      50.436   7.474  17.454  0.00  0.00    +0.000 N 
ATOM     29  C   UNL     1      50.133   7.107  16.163  0.00  0.00    +0.000 A 
ATOM     30  O   UNL     1      50.841   7.433  15.218  0.00  0.00    +0.000 OA
ATOM     31  C   UNL     1      48.993   6.216  16.068  0.00  0.00    +0.000 A 
ATOM     32  H   UNL     1      51.233   8.085  17.561  0.00  0.00    +0.000 HD
ENDBRANCH  20  22
ENDBRANCH  19  20
ENDBRANCH   1  19
TORSDOF 6
ENDMDL
MODEL 5
REMARK VINA RESULT:    -7.180      2.176      3.191
REMARK INTER + INTRA:         -10.730
REMARK INTER:                  -9.922
REMARK INTRA:                  -0.808
REMARK UNBOUND:                -1.032
REMARK  Name = 
REMARK  7 active torsions:
REMARK  status: ('A' for Active; 'I' for Inactive)
REMARK    1  A    between atoms: C_1  and  C_2
REMARK    2  A    between atoms: C_2  and  N_3
REMARK    3  A    between atoms: C_2  and  C_18
REMARK    4  A    between atoms: N_3  and  C_4
REMARK    5  A    between atoms: C_7  and  C_8
REMARK    6  A    between atoms: C_8  and  N_9
REMARK    7  A    between atoms: C_18  and  C_20
REMARK                            x       y       z     vdW  Elec       q    Type
REMARK                         _______ _______ _______ _____ _____    ______ ____
ROOT
ATOM      1  N   UNL     1      47.466   4.877  14.890  0.00  0.00    +0.000 N 
ATOM      2  H   UNL     1      48.413   5.112  14.586  0.00  0.00    +0.000 HD
ENDROOT
BRANCH   1   3
ATOM      3  C   UNL     1      46.518   4.676  13.903  0.00  0.00    +0.000 A 
ATOM      4  C   UNL     1      45.821   5.761  13.370  0.00  0.00    +0.000 A 
ATOM      5  C   UNL     1      44.870   5.574  12.363  0.00  0.00    +0.000 A 
ATOM      6  C   UNL     1      44.623   4.284  11.894  0.00  0.00    +0.000 A 
ATOM      7  N   UNL     1      45.270   3.207  12.404  0.00  0.00    +0.000 NA
ATOM      8  C   UNL     1      46.178   3.429  13.385  0.00  0.00    +0.000 A 
BRANCH   6   9
ATOM      9  C   UNL     1      43.617   4.037  10.792  0.00  0.00    +0.000 C 
BRANCH   9  10
ATOM     10  N   UNL     1      44.128   4.465   9.499  0.00  0.00    +0.000 N 
ATOM     11  C   UNL     1      45.071   3.714   8.831  0.00  0.00    +0.000 A 
ATOM     12  C   UNL     1      45.135   2.333   8.889  0.00  0.00    +0.000 A 
ATOM     13  C   UNL     1      46.107   1.719   8.125  0.00  0.00    +0.000 A 
ATOM     14  N   UNL     1      46.959   2.386   7.327  0.00  0.00    +0.000 NA
ATOM     15  C   UNL     1      46.801   3.719   7.324  0.00  0.00    +0.000 A 
ATOM     16  N   UNL     1      45.906   4.415   8.044  0.00  0.00    +0.000 NA
ATOM     17  H   UNL     1      44.337   5.450   9.403  0.00  0.00    +0.000 HD
ENDBRANCH   9  10
ENDBRANCH   6   9
ENDBRANCH   1   3
BRANCH   1  19
ATOM     18  C   UNL     1      48.067   2.861  16.225  0.00  0.00    +0.000 C 
ATOM     19  C   UNL     1      47.408   4.239  16.220  0.00  0.00    +0.000 C 
BRANCH  19  20
ATOM     20  C   UNL     1      48.188   5.132  17.208  0.00  0.00    +0.000 C 
ATOM     21  O   UNL     1      47.572   5.893  17.958  0.00  0.00    +0.000 OA
BRANCH  20  22
ATOM     22  C   UNL     1      49.647   5.023  17.317  0.00  0.00    +0.000 A 
ATOM     23  C   UNL     1      50.321   4.122  18.125  0.00  0.00    +0.000 A 
ATOM     24  S   UNL     1      51.986   4.497  18.285  0.00  0.00    +0.000 S 
ATOM     25  C   UNL     1      51.849   5.825  17.228  0.00  0.00    +0.000 A 
ATOM     26  N   UNL     1      52.893   6.661  16.984  0.00  0.00    +0.000 NA
ATOM     27  C   UNL     1      52.627   7.603  16.137  0.00  0.00    +0.000 A 
ATOM     28  N   UNL     1      51.433   7.754  15.476  0.00  0.00    +0.000 N 
ATOM     29  C   UNL     1      50.388   6.870  15.617  0.00  0.00    +0.000 A 
ATOM     30  O   UNL     1      49.443   6.861  14.836  0.00  0.00    +0.000 OA
ATOM     31  C   UNL     1      50.587   5.902  16.677  0.00  0.00    +0.000 A 
ATOM     32  H   UNL     1      51.335   8.436  14.739  0.00  0.00    +0.000 HD
ENDBRANCH  20  22
ENDBRANCH  19  20
ENDBRANCH   1  19
TORSDOF 6
ENDMDL
MODEL 6
REMARK VINA RESULT:    -7.170      3.804      5.739
REMARK INTER + INTRA:         -10.717
REMARK INTER:                  -9.759
REMARK INTRA:                  -0.958
REMARK UNBOUND:                -1.032
REMARK  Name = 
REMARK  7 active torsions:
REMARK  status: ('A' for Active; 'I' for Inactive)
REMARK    1  A    between atoms: C_1  and  C_2
REMARK    2  A    between atoms: C_2  and  N_3
REMARK    3  A    between atoms: C_2  and  C_18
REMARK    4  A    between atoms: N_3  and  C_4
REMARK    5  A    between atoms: C_7  and  C_8
REMARK    6  A    between atoms: C_8  and  N_9
REMARK    7  A    between atoms: C_18  and  C_20
REMARK                            x       y       z     vdW  Elec       q    Type
REMARK                         _______ _______ _______ _____ _____    ______ ____
ROOT
ATOM      1  N   UNL     1      46.252   6.958  13.414  0.00  0.00    +0.000 N 
ATOM      2  H   UNL     1      45.669   7.783  13.567  0.00  0.00    +0.000 HD
ENDROOT
BRANCH   1   3
ATOM      3  C   UNL     1      45.770   5.998  12.543  0.00  0.00    +0.000 A 
ATOM      4  C   UNL     1      45.429   6.345  11.235  0.00  0.00    +0.000 A 
ATOM      5  C   UNL     1      44.954   5.382  10.341  0.00  0.00    +0.000 A 
ATOM      6  C   UNL     1      44.824   4.062  10.771  0.00  0.00    +0.000 A 
ATOM      7  N   UNL     1      45.129   3.695  12.040  0.00  0.00    +0.000 NA
ATOM      8  C   UNL     1      45.578   4.660  12.880  0.00  0.00    +0.000 A 
BRANCH   6   9
ATOM      9  C   UNL     1      44.333   2.983   9.832  0.00  0.00    +0.000 C 
BRANCH   9  10
ATOM     10  N   UNL     1      45.367   1.995   9.569  0.00  0.00    +0.000 N 
ATOM     11  C   UNL     1      46.009   1.956   8.349  0.00  0.00    +0.000 A 
ATOM     12  C   UNL     1      46.271   3.076   7.582  0.00  0.00    +0.000 A 
ATOM     13  C   UNL     1      46.965   2.881   6.405  0.00  0.00    +0.000 A 
ATOM     14  N   UNL     1      47.409   1.681   5.993  0.00  0.00    +0.000 NA
ATOM     15  C   UNL     1      47.124   0.661   6.818  0.00  0.00    +0.000 A 
ATOM     16  N   UNL     1      46.437   0.739   7.969  0.00  0.00    +0.000 NA
ATOM     17  H   UNL     1      45.186   1.056   9.896  0.00  0.00    +0.000 HD
ENDBRANCH   9  10
ENDBRANCH   6   9
ENDBRANCH   1   3
BRANCH   1  19
ATOM     18  C   UNL     1      48.557   6.686  12.508  0.00  0.00    +0.000 C 
ATOM     19  C   UNL     1      47.689   7.191  13.660  0.00  0.00    +0.000 C 
BRANCH  19  20
ATOM     20  C   UNL     1      47.909   8.713  13.776  0.00  0.00    +0.000 C 
ATOM     21  O   UNL     1      47.981   9.234  14.892  0.00  0.00    +0.000 OA
BRANCH  20  22
ATOM     22  C   UNL     1      48.116   9.530  12.575  0.00  0.00    +0.000 A 
ATOM     23  C   UNL     1      49.331   9.718  11.937  0.00  0.00    +0.000 A 
ATOM     24  S   UNL     1      49.286  10.996  10.795  0.00  0.00    +0.000 S 
ATOM     25  C   UNL     1      47.630  11.273  11.084  0.00  0.00    +0.000 A 
ATOM     26  N   UNL     1      46.960  12.302  10.498  0.00  0.00    +0.000 NA
ATOM     27  C   UNL     1      45.704  12.354  10.804  0.00  0.00    +0.000 A 
ATOM     28  N   UNL     1      45.048  11.447  11.599  0.00  0.00    +0.000 N 
ATOM     29  C   UNL     1      45.666  10.336  12.126  0.00  0.00    +0.000 A 
ATOM     30  O   UNL     1      45.024   9.407  12.602  0.00  0.00    +0.000 OA
ATOM     31  C   UNL     1      47.104  10.332  11.944  0.00  0.00    +0.000 A 
ATOM     32  H   UNL     1      44.044  11.478  11.696  0.00  0.00    +0.000 HD
ENDBRANCH  20  22
ENDBRANCH  19  20
ENDBRANCH   1  19
TORSDOF 6
ENDMDL
MODEL 7
REMARK VINA RESULT:    -7.140      1.815      3.137
REMARK INTER + INTRA:         -10.677
REMARK INTER:                  -9.873
REMARK INTRA:                  -0.803
REMARK UNBOUND:                -1.032
REMARK  Name = 
REMARK  7 active torsions:
REMARK  status: ('A' for Active; 'I' for Inactive)
REMARK    1  A    between atoms: C_1  and  C_2
REMARK    2  A    between atoms: C_2  and  N_3
REMARK    3  A    between atoms: C_2  and  C_18
REMARK    4  A    between atoms: N_3  and  C_4
REMARK    5  A    between atoms: C_7  and  C_8
REMARK    6  A    between atoms: C_8  and  N_9
REMARK    7  A    between atoms: C_18  and  C_20
REMARK                            x       y       z     vdW  Elec       q    Type
REMARK                         _______ _______ _______ _____ _____    ______ ____
ROOT
ATOM      1  N   UNL     1      47.697   5.339  14.620  0.00  0.00    +0.000 N 
ATOM      2  H   UNL     1      48.653   5.352  14.263  0.00  0.00    +0.000 HD
ENDROOT
BRANCH   1   3
ATOM      3  C   UNL     1      46.682   5.135  13.702  0.00  0.00    +0.000 A 
ATOM      4  C   UNL     1      46.151   6.213  12.993  0.00  0.00    +0.000 A 
ATOM      5  C   UNL     1      45.136   6.019  12.053  0.00  0.00    +0.000 A 
ATOM      6  C   UNL     1      44.656   4.729  11.829  0.00  0.00    +0.000 A 
ATOM      7  N   UNL     1      45.137   3.663  12.514  0.00  0.00    +0.000 NA
ATOM      8  C   UNL     1      46.115   3.893  13.424  0.00  0.00    +0.000 A 
BRANCH   6   9
ATOM      9  C   UNL     1      43.572   4.469  10.806  0.00  0.00    +0.000 C 
BRANCH   9  10
ATOM     10  N   UNL     1      44.046   4.716   9.454  0.00  0.00    +0.000 N 
ATOM     11  C   UNL     1      44.940   3.854   8.854  0.00  0.00    +0.000 A 
ATOM     12  C   UNL     1      44.964   2.490   9.082  0.00  0.00    +0.000 A 
ATOM     13  C   UNL     1      45.887   1.753   8.368  0.00  0.00    +0.000 A 
ATOM     14  N   UNL     1      46.728   2.285   7.465  0.00  0.00    +0.000 NA
ATOM     15  C   UNL     1      46.610   3.612   7.300  0.00  0.00    +0.000 A 
ATOM     16  N   UNL     1      45.765   4.423   7.957  0.00  0.00    +0.000 NA
ATOM     17  H   UNL     1      44.281   5.673   9.227  0.00  0.00    +0.000 HD
ENDBRANCH   9  10
ENDBRANCH   6   9
ENDBRANCH   1   3
BRANCH   1  19
ATOM     18  C   UNL     1      47.623   3.448  16.240  0.00  0.00    +0.000 C 
ATOM     19  C   UNL     1      47.597   4.962  16.044  0.00  0.00    +0.000 C 
BRANCH  19  20
ATOM     20  C   UNL     1      48.822   5.548  16.776  0.00  0.00    +0.000 C 
ATOM     21  O   UNL     1      49.851   4.875  16.876  0.00  0.00    +0.000 OA
BRANCH  20  22
ATOM     22  C   UNL     1      48.800   6.926  17.280  0.00  0.00    +0.000 A 
ATOM     23  C   UNL     1      48.408   7.302  18.555  0.00  0.00    +0.000 A 
ATOM     24  S   UNL     1      48.161   8.993  18.697  0.00  0.00    +0.000 S 
ATOM     25  C   UNL     1      48.637   9.256  17.083  0.00  0.00    +0.000 A 
ATOM     26  N   UNL     1      48.574  10.487  16.507  0.00  0.00    +0.000 NA
ATOM     27  C   UNL     1      48.998  10.518  15.284  0.00  0.00    +0.000 A 
ATOM     28  N   UNL     1      49.522   9.446  14.604  0.00  0.00    +0.000 N 
ATOM     29  C   UNL     1      49.698   8.211  15.184  0.00  0.00    +0.000 A 
ATOM     30  O   UNL     1      50.400   7.350  14.666  0.00  0.00    +0.000 OA
ATOM     31  C   UNL     1      49.085   8.093  16.493  0.00  0.00    +0.000 A 
ATOM     32  H   UNL     1      49.946   9.569  13.697  0.00  0.00    +0.000 HD
ENDBRANCH  20  22
ENDBRANCH  19  20
ENDBRANCH   1  19
TORSDOF 6
ENDMDL
MODEL 8
REMARK VINA RESULT:    -7.080      4.292      5.022
REMARK INTER + INTRA:         -10.595
REMARK INTER:                  -9.816
REMARK INTRA:                  -0.779
REMARK UNBOUND:                -1.032
REMARK  Name = 
REMARK  7 active torsions:
REMARK  status: ('A' for Active; 'I' for Inactive)
REMARK    1  A    between atoms: C_1  and  C_2
REMARK    2  A    between atoms: C_2  and  N_3
REMARK    3  A    between atoms: C_2  and  C_18
REMARK    4  A    between atoms: N_3  and  C_4
REMARK    5  A    between atoms: C_7  and  C_8
REMARK    6  A    between atoms: C_8  and  N_9
REMARK    7  A    between atoms: C_18  and  C_20
REMARK                            x       y       z     vdW  Elec       q    Type
REMARK                         _______ _______ _______ _____ _____    ______ ____
ROOT
ATOM      1  N   UNL     1      45.086   7.603  12.735  0.00  0.00    +0.000 N 
ATOM      2  H   UNL     1      44.393   7.849  13.444  0.00  0.00    +0.000 HD
ENDROOT
BRANCH   1   3
ATOM      3  C   UNL     1      44.862   6.450  12.005  0.00  0.00    +0.000 A 
ATOM      4  C   UNL     1      43.894   5.534  12.422  0.00  0.00    +0.000 A 
ATOM      5  C   UNL     1      43.647   4.371  11.688  0.00  0.00    +0.000 A 
ATOM      6  C   UNL     1      44.382   4.134  10.527  0.00  0.00    +0.000 A 
ATOM      7  N   UNL     1      45.342   4.993  10.104  0.00  0.00    +0.000 NA
ATOM      8  C   UNL     1      45.557   6.105  10.849  0.00  0.00    +0.000 A 
BRANCH   6   9
ATOM      9  C   UNL     1      44.134   2.898   9.689  0.00  0.00    +0.000 C 
BRANCH   9  10
ATOM     10  N   UNL     1      45.357   2.136   9.492  0.00  0.00    +0.000 N 
ATOM     11  C   UNL     1      45.961   2.082   8.254  0.00  0.00    +0.000 A 
ATOM     12  C   UNL     1      45.947   3.125   7.346  0.00  0.00    +0.000 A 
ATOM     13  C   UNL     1      46.638   2.937   6.167  0.00  0.00    +0.000 A 
ATOM     14  N   UNL     1      47.329   1.820   5.877  0.00  0.00    +0.000 NA
ATOM     15  C   UNL     1      47.299   0.877   6.832  0.00  0.00    +0.000 A 
ATOM     16  N   UNL     1      46.641   0.950   8.000  0.00  0.00    +0.000 NA
ATOM     17  H   UNL     1      45.399   1.229   9.939  0.00  0.00    +0.000 HD
ENDBRANCH   9  10
ENDBRANCH   6   9
ENDBRANCH   1   3
BRANCH   1  19
ATOM     18  C   UNL     1      45.003  10.028  12.168  0.00  0.00    +0.000 C 
ATOM     19  C   UNL     1      45.850   8.758  12.222  0.00  0.00    +0.000 C 
BRANCH  19  20
ATOM     20  C   UNL     1      47.021   9.020  13.191  0.00  0.00    +0.000 C 
ATOM     21  O   UNL     1      46.948   8.621  14.356  0.00  0.00    +0.000 OA
BRANCH  20  22
ATOM     22  C   UNL     1      48.250   9.666  12.717  0.00  0.00    +0.000 A 
ATOM     23  C   UNL     1      48.428  11.032  12.571  0.00  0.00    +0.000 A 
ATOM     24  S   UNL     1      49.832  11.422  11.669  0.00  0.00    +0.000 S 
ATOM     25  C   UNL     1      50.261   9.781  11.516  0.00  0.00    +0.000 A 
ATOM     26  N   UNL     1      51.327   9.382  10.772  0.00  0.00    +0.000 NA
ATOM     27  C   UNL     1      51.528   8.104  10.783  0.00  0.00    +0.000 A 
ATOM     28  N   UNL     1      50.795   7.197  11.507  0.00  0.00    +0.000 N 
ATOM     29  C   UNL     1      49.775   7.570  12.352  0.00  0.00    +0.000 A 
ATOM     30  O   UNL     1      49.312   6.797  13.183  0.00  0.00    +0.000 OA
ATOM     31  C   UNL     1      49.413   8.969  12.239  0.00  0.00    +0.000 A 
ATOM     32  H   UNL     1      51.083   6.231  11.567  0.00  0.00    +0.000 HD
ENDBRANCH  20  22
ENDBRANCH  19  20
ENDBRANCH   1  19
TORSDOF 6
ENDMDL
MODEL 9
REMARK VINA RESULT:    -6.696      1.837      2.394
REMARK INTER + INTRA:         -10.077
REMARK INTER:                  -8.996
REMARK INTRA:                  -1.081
REMARK UNBOUND:                -1.032
REMARK  Name = 
REMARK  7 active torsions:
REMARK  status: ('A' for Active; 'I' for Inactive)
REMARK    1  A    between atoms: C_1  and  C_2
REMARK    2  A    between atoms: C_2  and  N_3
REMARK    3  A    between atoms: C_2  and  C_18
REMARK    4  A    between atoms: N_3  and  C_4
REMARK    5  A    between atoms: C_7  and  C_8
REMARK    6  A    between atoms: C_8  and  N_9
REMARK    7  A    between atoms: C_18  and  C_20
REMARK                            x       y       z     vdW  Elec       q    Type
REMARK                         _______ _______ _______ _____ _____    ______ ____
ROOT
ATOM      1  N   UNL     1      48.784   7.937  13.868  0.00  0.00    +0.000 N 
ATOM      2  H   UNL     1      49.241   8.677  13.332  0.00  0.00    +0.000 HD
ENDROOT
BRANCH   1   3
ATOM      3  C   UNL     1      47.681   7.332  13.293  0.00  0.00    +0.000 A 
ATOM      4  C   UNL     1      46.536   8.080  13.013  0.00  0.00    +0.000 A 
ATOM      5  C   UNL     1      45.420   7.484  12.420  0.00  0.00    +0.000 A 
ATOM      6  C   UNL     1      45.462   6.125  12.109  0.00  0.00    +0.000 A 
ATOM      7  N   UNL     1      46.551   5.366  12.384  0.00  0.00    +0.000 NA
ATOM      8  C   UNL     1      47.610   5.979  12.968  0.00  0.00    +0.000 A 
BRANCH   6   9
ATOM      9  C   UNL     1      44.285   5.443  11.448  0.00  0.00    +0.000 C 
BRANCH   9  10
ATOM     10  N   UNL     1      44.421   5.430  10.000  0.00  0.00    +0.000 N 
ATOM     11  C   UNL     1      44.961   4.339   9.354  0.00  0.00    +0.000 A 
ATOM     12  C   UNL     1      44.808   3.034   9.788  0.00  0.00    +0.000 A 
ATOM     13  C   UNL     1      45.368   2.045   9.006  0.00  0.00    +0.000 A 
ATOM     14  N   UNL     1      46.020   2.284   7.855  0.00  0.00    +0.000 NA
ATOM     15  C   UNL     1      46.095   3.579   7.510  0.00  0.00    +0.000 A 
ATOM     16  N   UNL     1      45.607   4.617   8.208  0.00  0.00    +0.000 NA
ATOM     17  H   UNL     1      44.750   6.285   9.572  0.00  0.00    +0.000 HD
ENDBRANCH   9  10
ENDBRANCH   6   9
ENDBRANCH   1   3
BRANCH   1  19
ATOM     18  C   UNL     1      50.990   8.016  15.022  0.00  0.00    +0.000 C 
ATOM     19  C   UNL     1      49.673   7.265  14.836  0.00  0.00    +0.000 C 
BRANCH  19  20
ATOM     20  C   UNL     1      48.953   7.240  16.200  0.00  0.00    +0.000 C 
ATOM     21  O   UNL     1      48.484   8.283  16.661  0.00  0.00    +0.000 OA
BRANCH  20  22
ATOM     22  C   UNL     1      48.753   5.973  16.913  0.00  0.00    +0.000 A 
ATOM     23  C   UNL     1      47.999   4.907  16.448  0.00  0.00    +0.000 A 
ATOM     24  S   UNL     1      47.683   3.743  17.666  0.00  0.00    +0.000 S 
ATOM     25  C   UNL     1      48.601   4.606  18.812  0.00  0.00    +0.000 A 
ATOM     26  N   UNL     1      48.680   4.215  20.112  0.00  0.00    +0.000 NA
ATOM     27  C   UNL     1      49.440   4.966  20.843  0.00  0.00    +0.000 A 
ATOM     28  N   UNL     1      50.163   6.039  20.383  0.00  0.00    +0.000 N 
ATOM     29  C   UNL     1      50.192   6.404  19.057  0.00  0.00    +0.000 A 
ATOM     30  O   UNL     1      51.034   7.180  18.620  0.00  0.00    +0.000 OA
ATOM     31  C   UNL     1      49.228   5.693  18.240  0.00  0.00    +0.000 A 
ATOM     32  H   UNL     1      50.830   6.505  20.981  0.00  0.00    +0.000 HD
ENDBRANCH  20  22
ENDBRANCH  19  20
ENDBRANCH   1  19
TORSDOF 6
ENDMDL
