MODEL 1
REMARK VINA RESULT:    -8.286      0.000      0.000
REMARK INTER + INTRA:         -13.891
REMARK INTER:                 -12.646
REMARK INTRA:                  -1.245
REMARK UNBOUND:                -1.245
REMARK  Name = 
REMARK  9 active torsions:
REMARK  status: ('A' for Active; 'I' for Inactive)
REMARK    1  A    between atoms: C_2  and  C_3
REMARK    2  A    between atoms: C_6  and  C_7
REMARK    3  A    between atoms: C_11  and  O_12
REMARK    4  A    between atoms: O_12  and  C_13
REMARK    5  A    between atoms: C_13  and  C_14
REMARK    6  A    between atoms: C_20  and  C_21
REMARK    7  A    between atoms: C_21  and  C_22
REMARK    8  A    between atoms: C_22  and  N_23
REMARK    9  A    between atoms: C_27  and  C_28
REMARK                            x       y       z     vdW  Elec       q    Type
REMARK                         _______ _______ _______ _____ _____    ______ ____
ROOT
ATOM      1  C   UNL     1      46.258   5.526  12.999  0.00  0.00    +0.000 A 
ATOM      2  C   UNL     1      47.272   6.497  12.954  0.00  0.00    +0.000 A 
ATOM      3  C   UNL     1      46.995   7.812  12.568  0.00  0.00    +0.000 A 
ATOM      4  C   UNL     1      45.702   8.198  12.204  0.00  0.00    +0.000 A 
ATOM      5  C   UNL     1      44.707   7.205  12.239  0.00  0.00    +0.000 A 
ATOM      6  C   UNL     1      44.941   5.870  12.642  0.00  0.00    +0.000 A 
ENDROOT
BRANCH   4   7
ATOM      7  C   UNL     1      45.372   9.582  11.785  0.00  0.00    +0.000 A 
ATOM      8  C   UNL     1      46.313  10.626  11.885  0.00  0.00    +0.000 A 
ATOM      9  C   UNL     1      45.991  11.938  11.524  0.00  0.00    +0.000 A 
ATOM     10  C   UNL     1      44.729  12.231  11.019  0.00  0.00    +0.000 A 
ATOM     11  C   UNL     1      43.794  11.210  10.868  0.00  0.00    +0.000 A 
ATOM     12  C   UNL     1      44.104   9.911  11.282  0.00  0.00    +0.000 A 
BRANCH  11  13
ATOM     13  O   UNL     1      42.538  11.369  10.355  0.00  0.00    +0.000 OA
BRANCH  13  14
ATOM     14  C   UNL     1      41.622  10.298  10.618  0.00  0.00    +0.000 C 
BRANCH  14  15
ATOM     15  C   UNL     1      40.403  10.790  11.390  0.00  0.00    +0.000 C 
ATOM     16  F   UNL     1      39.392   9.895  11.415  0.00  0.00    +0.000 F 
ATOM     17  F   UNL     1      40.727  11.073  12.674  0.00  0.00    +0.000 F 
ATOM     18  F   UNL     1      39.918  11.930  10.841  0.00  0.00    +0.000 F 
ENDBRANCH  14  15
ENDBRANCH  13  14
ENDBRANCH  11  13
ENDBRANCH   4   7
BRANCH   1  20
ATOM     19  N   UNL     1      46.957   3.144  13.759  0.00  0.00    +0.000 NA
ATOM     20  C   UNL     1      46.624   4.203  13.420  0.00  0.00    +0.000 C 
ENDBRANCH   1  20
BRANCH   6  21
ATOM     21  C   UNL     1      43.797   4.852  12.677  0.00  0.00    +0.000 C 
BRANCH  21  22
ATOM     22  C   UNL     1      43.299   4.432  11.280  0.00  0.00    +0.000 C 
BRANCH  22  23
ATOM     23  N   UNL     1      44.028   5.035  10.162  0.00  0.00    +0.000 N 
ATOM     24  C   UNL     1      44.767   4.047   9.460  0.00  0.00    +0.000 A 
ATOM     25  C   UNL     1      45.526   4.434   8.358  0.00  0.00    +0.000 A 
ATOM     26  C   UNL     1      46.258   3.476   7.647  0.00  0.00    +0.000 A 
ATOM     27  C   UNL     1      46.217   2.144   8.055  0.00  0.00    +0.000 A 
ATOM     28  C   UNL     1      45.442   1.838   9.160  0.00  0.00    +0.000 A 
ATOM     29  N   UNL     1      44.717   2.754   9.850  0.00  0.00    +0.000 NA
ATOM     30  H   UNL     1      44.674   5.759  10.464  0.00  0.00    +0.000 HD
BRANCH  27  31
ATOM     31  C   UNL     1      46.971   1.057   7.398  0.00  0.00    +0.000 C 
ATOM     32  N   UNL     1      47.889   1.409   6.448  0.00  0.00    +0.000 N 
ATOM     33  O   UNL     1      46.766  -0.121   7.672  0.00  0.00    +0.000 OA
ATOM     34  H   UNL     1      47.919   2.327   6.027  0.00  0.00    +0.000 HD
ATOM     35  H   UNL     1      48.332   0.648   5.944  0.00  0.00    +0.000 HD
ENDBRANCH  27  31
ENDBRANCH  22  23
ENDBRANCH  21  22
ENDBRANCH   6  21
TORSDOF 9
ENDMDL
MODEL 2
REMARK VINA RESULT:    -7.906      4.692      8.058
REMARK INTER + INTRA:         -13.311
REMARK INTER:                 -11.819
REMARK INTRA:                  -1.492
REMARK UNBOUND:                -1.245
REMARK  Name = 
REMARK  9 active torsions:
REMARK  status: ('A' for Active; 'I' for Inactive)
REMARK    1  A    between atoms: C_2  and  C_3
REMARK    2  A    between atoms: C_6  and  C_7
REMARK    3  A    between atoms: C_11  and  O_12
REMARK    4  A    between atoms: O_12  and  C_13
REMARK    5  A    between atoms: C_13  and  C_14
REMARK    6  A    between atoms: C_20  and  C_21
REMARK    7  A    between atoms: C_21  and  C_22
REMARK    8  A    between atoms: C_22  and  N_23
REMARK    9  A    between atoms: C_27  and  C_28
REMARK                            x       y       z     vdW  Elec       q    Type
REMARK                         _______ _______ _______ _____ _____    ______ ____
ROOT
ATOM      1  C   UNL     1      46.039   9.689  11.833  0.00  0.00    +0.000 A 
ATOM      2  C   UNL     1      44.728   9.422  11.406  0.00  0.00    +0.000 A 
ATOM      3  C   UNL     1      44.239   8.114  11.350  0.00  0.00    +0.000 A 
ATOM      4  C   UNL     1      45.045   7.029  11.706  0.00  0.00    +0.000 A 
ATOM      5  C   UNL     1      46.359   7.318  12.113  0.00  0.00    +0.000 A 
ATOM      6  C   UNL     1      46.886   8.628  12.202  0.00  0.00    +0.000 A 
ENDROOT
BRANCH   4   7
ATOM      7  C   UNL     1      44.562   5.628  11.654  0.00  0.00    +0.000 A 
ATOM      8  C   UNL     1      43.829   5.061  12.715  0.00  0.00    +0.000 A 
ATOM      9  C   UNL     1      43.406   3.729  12.682  0.00  0.00    +0.000 A 
ATOM     10  C   UNL     1      43.675   2.940  11.568  0.00  0.00    +0.000 A 
ATOM     11  C   UNL     1      44.359   3.488  10.487  0.00  0.00    +0.000 A 
ATOM     12  C   UNL     1      44.827   4.803  10.549  0.00  0.00    +0.000 A 
BRANCH  11  13
ATOM     13  O   UNL     1      44.652   2.824   9.329  0.00  0.00    +0.000 OA
BRANCH  13  14
ATOM     14  C   UNL     1      44.824   3.650   8.169  0.00  0.00    +0.000 C 
BRANCH  14  15
ATOM     15  C   UNL     1      46.153   3.362   7.479  0.00  0.00    +0.000 C 
ATOM     16  F   UNL     1      47.033   4.382   7.573  0.00  0.00    +0.000 F 
ATOM     17  F   UNL     1      46.744   2.265   8.009  0.00  0.00    +0.000 F 
ATOM     18  F   UNL     1      45.963   3.115   6.161  0.00  0.00    +0.000 F 
ENDBRANCH  14  15
ENDBRANCH  13  14
ENDBRANCH  11  13
ENDBRANCH   4   7
BRANCH   1  20
ATOM     19  N   UNL     1      46.827  12.160  11.931  0.00  0.00    +0.000 NA
ATOM     20  C   UNL     1      46.458  11.062  11.876  0.00  0.00    +0.000 C 
ENDBRANCH   1  20
BRANCH   6  21
ATOM     21  C   UNL     1      48.322   8.861  12.678  0.00  0.00    +0.000 C 
BRANCH  21  22
ATOM     22  C   UNL     1      49.085   7.564  13.006  0.00  0.00    +0.000 C 
BRANCH  22  23
ATOM     23  N   UNL     1      49.780   7.570  14.296  0.00  0.00    +0.000 N 
ATOM     24  C   UNL     1      49.226   6.594  15.164  0.00  0.00    +0.000 A 
ATOM     25  C   UNL     1      49.762   6.451  16.442  0.00  0.00    +0.000 A 
ATOM     26  C   UNL     1      49.234   5.490  17.313  0.00  0.00    +0.000 A 
ATOM     27  C   UNL     1      48.177   4.688  16.887  0.00  0.00    +0.000 A 
ATOM     28  C   UNL     1      47.698   4.892  15.605  0.00  0.00    +0.000 A 
ATOM     29  N   UNL     1      48.208   5.809  14.746  0.00  0.00    +0.000 NA
ATOM     30  H   UNL     1      49.730   8.473  14.761  0.00  0.00    +0.000 HD
BRANCH  27  31
ATOM     31  C   UNL     1      47.526   3.666  17.731  0.00  0.00    +0.000 C 
ATOM     32  N   UNL     1      48.069   3.423  18.962  0.00  0.00    +0.000 N 
ATOM     33  O   UNL     1      46.551   3.035  17.335  0.00  0.00    +0.000 OA
ATOM     34  H   UNL     1      48.992   3.737  19.227  0.00  0.00    +0.000 HD
ATOM     35  H   UNL     1      47.666   2.656  19.490  0.00  0.00    +0.000 HD
ENDBRANCH  27  31
ENDBRANCH  22  23
ENDBRANCH  21  22
ENDBRANCH   6  21
TORSDOF 9
ENDMDL
MODEL 3
REMARK VINA RESULT:    -7.535      5.073      6.196
REMARK INTER + INTRA:         -12.744
REMARK INTER:                 -11.331
REMARK INTRA:                  -1.413
REMARK UNBOUND:                -1.245
REMARK  Name = 
REMARK  9 active torsions:
REMARK  status: ('A' for Active; 'I' for Inactive)
REMARK    1  A    between atoms: C_2  and  C_3
REMARK    2  A    between atoms: C_6  and  C_7
REMARK    3  A    between atoms: C_11  and  O_12
REMARK    4  A    between atoms: O_12  and  C_13
REMARK    5  A    between atoms: C_13  and  C_14
REMARK    6  A    between atoms: C_20  and  C_21
REMARK    7  A    between atoms: C_21  and  C_22
REMARK    8  A    between atoms: C_22  and  N_23
REMARK    9  A    between atoms: C_27  and  C_28
REMARK                            x       y       z     vdW  Elec       q    Type
REMARK                         _______ _______ _______ _____ _____    ______ ____
ROOT
ATOM      1  C   UNL     1      45.405   5.037  12.815  0.00  0.00    +0.000 A 
ATOM      2  C   UNL     1      46.656   4.939  13.445  0.00  0.00    +0.000 A 
ATOM      3  C   UNL     1      47.662   5.879  13.204  0.00  0.00    +0.000 A 
ATOM      4  C   UNL     1      47.456   6.942  12.319  0.00  0.00    +0.000 A 
ATOM      5  C   UNL     1      46.202   7.011  11.687  0.00  0.00    +0.000 A 
ATOM      6  C   UNL     1      45.152   6.091  11.917  0.00  0.00    +0.000 A 
ENDROOT
BRANCH   4   7
ATOM      7  C   UNL     1      48.500   7.955  12.035  0.00  0.00    +0.000 A 
ATOM      8  C   UNL     1      48.168   9.284  11.702  0.00  0.00    +0.000 A 
ATOM      9  C   UNL     1      49.151  10.230  11.399  0.00  0.00    +0.000 A 
ATOM     10  C   UNL     1      50.496   9.879  11.455  0.00  0.00    +0.000 A 
ATOM     11  C   UNL     1      50.854   8.585  11.824  0.00  0.00    +0.000 A 
ATOM     12  C   UNL     1      49.865   7.630  12.072  0.00  0.00    +0.000 A 
BRANCH  11  13
ATOM     13  O   UNL     1      52.138   8.134  11.945  0.00  0.00    +0.000 OA
BRANCH  13  14
ATOM     14  C   UNL     1      53.043   8.561  10.917  0.00  0.00    +0.000 C 
BRANCH  14  15
ATOM     15  C   UNL     1      53.036   7.593   9.739  0.00  0.00    +0.000 C 
ATOM     16  F   UNL     1      52.229   7.988   8.730  0.00  0.00    +0.000 F 
ATOM     17  F   UNL     1      54.281   7.444   9.229  0.00  0.00    +0.000 F 
ATOM     18  F   UNL     1      52.617   6.365  10.131  0.00  0.00    +0.000 F 
ENDBRANCH  14  15
ENDBRANCH  13  14
ENDBRANCH  11  13
ENDBRANCH   4   7
BRANCH   1  20
ATOM     19  N   UNL     1      43.612   3.237  13.347  0.00  0.00    +0.000 NA
ATOM     20  C   UNL     1      44.422   4.038  13.129  0.00  0.00    +0.000 C 
ENDBRANCH   1  20
BRANCH   6  21
ATOM     21  C   UNL     1      43.805   6.249  11.207  0.00  0.00    +0.000 C 
BRANCH  21  22
ATOM     22  C   UNL     1      43.691   5.431   9.905  0.00  0.00    +0.000 C 
BRANCH  22  23
ATOM     23  N   UNL     1      43.790   3.981  10.082  0.00  0.00    +0.000 N 
ATOM     24  C   UNL     1      44.755   3.436   9.195  0.00  0.00    +0.000 A 
ATOM     25  C   UNL     1      44.990   2.064   9.219  0.00  0.00    +0.000 A 
ATOM     26  C   UNL     1      45.941   1.506   8.357  0.00  0.00    +0.000 A 
ATOM     27  C   UNL     1      46.642   2.335   7.484  0.00  0.00    +0.000 A 
ATOM     28  C   UNL     1      46.351   3.688   7.517  0.00  0.00    +0.000 A 
ATOM     29  N   UNL     1      45.442   4.244   8.356  0.00  0.00    +0.000 NA
ATOM     30  H   UNL     1      42.905   3.507   9.917  0.00  0.00    +0.000 HD
BRANCH  27  31
ATOM     31  C   UNL     1      47.644   1.852   6.513  0.00  0.00    +0.000 C 
ATOM     32  N   UNL     1      48.735   2.645   6.282  0.00  0.00    +0.000 N 
ATOM     33  O   UNL     1      47.496   0.793   5.913  0.00  0.00    +0.000 OA
ATOM     34  H   UNL     1      48.778   3.613   6.565  0.00  0.00    +0.000 HD
ATOM     35  H   UNL     1      49.365   2.342   5.548  0.00  0.00    +0.000 HD
ENDBRANCH  27  31
ENDBRANCH  22  23
ENDBRANCH  21  22
ENDBRANCH   6  21
TORSDOF 9
ENDMDL
MODEL 4
REMARK VINA RESULT:    -7.533      1.629      2.444
REMARK INTER + INTRA:         -12.742
REMARK INTER:                 -11.638
REMARK INTRA:                  -1.104
REMARK UNBOUND:                -1.245
REMARK  Name = 
REMARK  9 active torsions:
REMARK  status: ('A' for Active; 'I' for Inactive)
REMARK    1  A    between atoms: C_2  and  C_3
REMARK    2  A    between atoms: C_6  and  C_7
REMARK    3  A    between atoms: C_11  and  O_12
REMARK    4  A    between atoms: O_12  and  C_13
REMARK    5  A    between atoms: C_13  and  C_14
REMARK    6  A    between atoms: C_20  and  C_21
REMARK    7  A    between atoms: C_21  and  C_22
REMARK    8  A    between atoms: C_22  and  N_23
REMARK    9  A    between atoms: C_27  and  C_28
REMARK                            x       y       z     vdW  Elec       q    Type
REMARK                         _______ _______ _______ _____ _____    ______ ____
ROOT
ATOM      1  C   UNL     1      46.182   7.518  12.617  0.00  0.00    +0.000 A 
ATOM      2  C   UNL     1      46.498   8.884  12.528  0.00  0.00    +0.000 A 
ATOM      3  C   UNL     1      45.674   9.772  11.831  0.00  0.00    +0.000 A 
ATOM      4  C   UNL     1      44.515   9.325  11.189  0.00  0.00    +0.000 A 
ATOM      5  C   UNL     1      44.229   7.952  11.275  0.00  0.00    +0.000 A 
ATOM      6  C   UNL     1      45.025   7.024  11.987  0.00  0.00    +0.000 A 
ENDROOT
BRANCH   4   7
ATOM      7  C   UNL     1      43.621  10.237  10.436  0.00  0.00    +0.000 A 
ATOM      8  C   UNL     1      44.106  11.050   9.392  0.00  0.00    +0.000 A 
ATOM      9  C   UNL     1      43.271  11.936   8.706  0.00  0.00    +0.000 A 
ATOM     10  C   UNL     1      41.918  12.006   9.023  0.00  0.00    +0.000 A 
ATOM     11  C   UNL     1      41.403  11.181  10.020  0.00  0.00    +0.000 A 
ATOM     12  C   UNL     1      42.254  10.338  10.740  0.00  0.00    +0.000 A 
BRANCH  11  13
ATOM     13  O   UNL     1      40.091  11.137  10.397  0.00  0.00    +0.000 OA
BRANCH  13  14
ATOM     14  C   UNL     1      39.741  10.076  11.297  0.00  0.00    +0.000 C 
BRANCH  14  15
ATOM     15  C   UNL     1      38.251  10.094  11.619  0.00  0.00    +0.000 C 
ATOM     16  F   UNL     1      37.963  10.743  12.768  0.00  0.00    +0.000 F 
ATOM     17  F   UNL     1      37.550  10.693  10.628  0.00  0.00    +0.000 F 
ATOM     18  F   UNL     1      37.773   8.832  11.740  0.00  0.00    +0.000 F 
ENDBRANCH  14  15
ENDBRANCH  13  14
ENDBRANCH  11  13
ENDBRANCH   4   7
BRANCH   1  20
ATOM     19  N   UNL     1      47.819   5.998  13.939  0.00  0.00    +0.000 NA
ATOM     20  C   UNL     1      47.073   6.677  13.364  0.00  0.00    +0.000 C 
ENDBRANCH   1  20
BRANCH   6  21
ATOM     21  C   UNL     1      44.631   5.546  12.054  0.00  0.00    +0.000 C 
BRANCH  21  22
ATOM     22  C   UNL     1      43.961   5.024  10.768  0.00  0.00    +0.000 C 
BRANCH  22  23
ATOM     23  N   UNL     1      44.081   3.580  10.557  0.00  0.00    +0.000 N 
ATOM     24  C   UNL     1      44.917   3.309   9.442  0.00  0.00    +0.000 A 
ATOM     25  C   UNL     1      45.152   1.983   9.086  0.00  0.00    +0.000 A 
ATOM     26  C   UNL     1      45.977   1.692   7.993  0.00  0.00    +0.000 A 
ATOM     27  C   UNL     1      46.553   2.738   7.274  0.00  0.00    +0.000 A 
ATOM     28  C   UNL     1      46.270   4.028   7.687  0.00  0.00    +0.000 A 
ATOM     29  N   UNL     1      45.483   4.324   8.752  0.00  0.00    +0.000 NA
ATOM     30  H   UNL     1      43.183   3.133  10.395  0.00  0.00    +0.000 HD
BRANCH  27  31
ATOM     31  C   UNL     1      47.414   2.548   6.090  0.00  0.00    +0.000 C 
ATOM     32  N   UNL     1      48.768   2.574   6.281  0.00  0.00    +0.000 N 
ATOM     33  O   UNL     1      46.938   2.400   4.969  0.00  0.00    +0.000 OA
ATOM     34  H   UNL     1      49.196   2.926   7.125  0.00  0.00    +0.000 HD
ATOM     35  H   UNL     1      49.342   2.533   5.446  0.00  0.00    +0.000 HD
ENDBRANCH  27  31
ENDBRANCH  22  23
ENDBRANCH  21  22
ENDBRANCH   6  21
TORSDOF 9
ENDMDL
MODEL 5
REMARK VINA RESULT:    -7.530      5.389      8.307
REMARK INTER + INTRA:         -12.737
REMARK INTER:                 -11.789
REMARK INTRA:                  -0.948
REMARK UNBOUND:                -1.245
REMARK  Name = 
REMARK  9 active torsions:
REMARK  status: ('A' for Active; 'I' for Inactive)
REMARK    1  A    between atoms: C_2  and  C_3
REMARK    2  A    between atoms: C_6  and  C_7
REMARK    3  A    between atoms: C_11  and  O_12
REMARK    4  A    between atoms: O_12  and  C_13
REMARK    5  A    between atoms: C_13  and  C_14
REMARK    6  A    between atoms: C_20  and  C_21
REMARK    7  A    between atoms: C_21  and  C_22
REMARK    8  A    between atoms: C_22  and  N_23
REMARK    9  A    between atoms: C_27  and  C_28
REMARK                            x       y       z     vdW  Elec       q    Type
REMARK                         _______ _______ _______ _____ _____    ______ ____
ROOT
ATOM      1  C   UNL     1      47.827   8.635  13.771  0.00  0.00    +0.000 A 
ATOM      2  C   UNL     1      46.856   8.933  12.801  0.00  0.00    +0.000 A 
ATOM      3  C   UNL     1      46.097   7.922  12.205  0.00  0.00    +0.000 A 
ATOM      4  C   UNL     1      46.290   6.580  12.549  0.00  0.00    +0.000 A 
ATOM      5  C   UNL     1      47.279   6.304  13.509  0.00  0.00    +0.000 A 
ATOM      6  C   UNL     1      48.055   7.299  14.149  0.00  0.00    +0.000 A 
ENDROOT
BRANCH   4   7
ATOM      7  C   UNL     1      45.508   5.480  11.935  0.00  0.00    +0.000 A 
ATOM      8  C   UNL     1      44.802   4.548  12.722  0.00  0.00    +0.000 A 
ATOM      9  C   UNL     1      44.095   3.490  12.145  0.00  0.00    +0.000 A 
ATOM     10  C   UNL     1      44.045   3.358  10.760  0.00  0.00    +0.000 A 
ATOM     11  C   UNL     1      44.696   4.291   9.958  0.00  0.00    +0.000 A 
ATOM     12  C   UNL     1      45.447   5.314  10.542  0.00  0.00    +0.000 A 
BRANCH  11  13
ATOM     13  O   UNL     1      44.692   4.285   8.591  0.00  0.00    +0.000 OA
BRANCH  13  14
ATOM     14  C   UNL     1      45.114   3.059   7.978  0.00  0.00    +0.000 C 
BRANCH  14  15
ATOM     15  C   UNL     1      46.429   3.241   7.228  0.00  0.00    +0.000 C 
ATOM     16  F   UNL     1      46.298   3.132   5.888  0.00  0.00    +0.000 F 
ATOM     17  F   UNL     1      46.968   4.456   7.486  0.00  0.00    +0.000 F 
ATOM     18  F   UNL     1      47.335   2.313   7.620  0.00  0.00    +0.000 F 
ENDBRANCH  14  15
ENDBRANCH  13  14
ENDBRANCH  11  13
ENDBRANCH   4   7
BRANCH   1  20
ATOM     19  N   UNL     1      49.127  10.644  14.777  0.00  0.00    +0.000 NA
ATOM     20  C   UNL     1      48.553   9.734  14.344  0.00  0.00    +0.000 C 
ENDBRANCH   1  20
BRANCH   6  21
ATOM     21  C   UNL     1      49.098   6.919  15.204  0.00  0.00    +0.000 C 
BRANCH  21  22
ATOM     22  C   UNL     1      48.487   6.472  16.546  0.00  0.00    +0.000 C 
BRANCH  22  23
ATOM     23  N   UNL     1      47.949   5.110  16.551  0.00  0.00    +0.000 N 
ATOM     24  C   UNL     1      48.971   4.172  16.852  0.00  0.00    +0.000 A 
ATOM     25  C   UNL     1      48.645   2.818  16.903  0.00  0.00    +0.000 A 
ATOM     26  C   UNL     1      49.636   1.877  17.204  0.00  0.00    +0.000 A 
ATOM     27  C   UNL     1      50.939   2.308  17.448  0.00  0.00    +0.000 A 
ATOM     28  C   UNL     1      51.184   3.669  17.375  0.00  0.00    +0.000 A 
ATOM     29  N   UNL     1      50.231   4.594  17.099  0.00  0.00    +0.000 NA
ATOM     30  H   UNL     1      47.534   4.851  15.659  0.00  0.00    +0.000 HD
BRANCH  27  31
ATOM     31  C   UNL     1      52.066   1.402  17.744  0.00  0.00    +0.000 C 
ATOM     32  N   UNL     1      51.766   0.131  18.149  0.00  0.00    +0.000 N 
ATOM     33  O   UNL     1      53.230   1.779  17.659  0.00  0.00    +0.000 OA
ATOM     34  H   UNL     1      50.845  -0.143  18.459  0.00  0.00    +0.000 HD
ATOM     35  H   UNL     1      52.548  -0.448  18.435  0.00  0.00    +0.000 HD
ENDBRANCH  27  31
ENDBRANCH  22  23
ENDBRANCH  21  22
ENDBRANCH   6  21
TORSDOF 9
ENDMDL
MODEL 6
REMARK VINA RESULT:    -7.438      3.838      4.649
REMARK INTER + INTRA:         -12.597
REMARK INTER:                 -11.081
REMARK INTRA:                  -1.516
REMARK UNBOUND:                -1.245
REMARK  Name = 
REMARK  9 active torsions:
REMARK  status: ('A' for Active; 'I' for Inactive)
REMARK    1  A    between atoms: C_2  and  C_3
REMARK    2  A    between atoms: C_6  and  C_7
REMARK    3  A    between atoms: C_11  and  O_12
REMARK    4  A    between atoms: O_12  and  C_13
REMARK    5  A    between atoms: C_13  and  C_14
REMARK    6  A    between atoms: C_20  and  C_21
REMARK    7  A    between atoms: C_21  and  C_22
REMARK    8  A    between atoms: C_22  and  N_23
REMARK    9  A    between atoms: C_27  and  C_28
REMARK                            x       y       z     vdW  Elec       q    Type
REMARK                         _______ _______ _______ _____ _____    ______ ____
ROOT
ATOM      1  C   UNL     1      46.166   5.680  12.738  0.00  0.00    +0.000 A 
ATOM      2  C   UNL     1      47.380   6.380  12.825  0.00  0.00    +0.000 A 
ATOM      3  C   UNL     1      47.446   7.749  12.550  0.00  0.00    +0.000 A 
ATOM      4  C   UNL     1      46.306   8.461  12.167  0.00  0.00    +0.000 A 
ATOM      5  C   UNL     1      45.105   7.737  12.068  0.00  0.00    +0.000 A 
ATOM      6  C   UNL     1      44.993   6.356  12.357  0.00  0.00    +0.000 A 
ENDROOT
BRANCH   4   7
ATOM      7  C   UNL     1      46.339   9.912  11.862  0.00  0.00    +0.000 A 
ATOM      8  C   UNL     1      45.172  10.701  11.904  0.00  0.00    +0.000 A 
ATOM      9  C   UNL     1      45.196  12.061  11.582  0.00  0.00    +0.000 A 
ATOM     10  C   UNL     1      46.397  12.675  11.242  0.00  0.00    +0.000 A 
ATOM     11  C   UNL     1      47.573  11.929  11.236  0.00  0.00    +0.000 A 
ATOM     12  C   UNL     1      47.533  10.558  11.506  0.00  0.00    +0.000 A 
BRANCH  11  13
ATOM     13  O   UNL     1      48.813  12.427  10.952  0.00  0.00    +0.000 OA
BRANCH  13  14
ATOM     14  C   UNL     1      49.503  11.786   9.871  0.00  0.00    +0.000 C 
BRANCH  14  15
ATOM     15  C   UNL     1      50.872  11.279  10.313  0.00  0.00    +0.000 C 
ATOM     16  F   UNL     1      50.805  10.175  11.088  0.00  0.00    +0.000 F 
ATOM     17  F   UNL     1      51.644  10.977   9.242  0.00  0.00    +0.000 F 
ATOM     18  F   UNL     1      51.528  12.229  11.022  0.00  0.00    +0.000 F 
ENDBRANCH  14  15
ENDBRANCH  13  14
ENDBRANCH  11  13
ENDBRANCH   4   7
BRANCH   1  20
ATOM     19  N   UNL     1      46.207   3.139  13.268  0.00  0.00    +0.000 NA
ATOM     20  C   UNL     1      46.182   4.279  13.051  0.00  0.00    +0.000 C 
ENDBRANCH   1  20
BRANCH   6  21
ATOM     21  C   UNL     1      43.641   5.644  12.249  0.00  0.00    +0.000 C 
BRANCH  21  22
ATOM     22  C   UNL     1      43.342   5.093  10.841  0.00  0.00    +0.000 C 
BRANCH  22  23
ATOM     23  N   UNL     1      43.556   3.652  10.688  0.00  0.00    +0.000 N 
ATOM     24  C   UNL     1      44.517   3.396   9.676  0.00  0.00    +0.000 A 
ATOM     25  C   UNL     1      44.854   2.076   9.389  0.00  0.00    +0.000 A 
ATOM     26  C   UNL     1      45.804   1.801   8.398  0.00  0.00    +0.000 A 
ATOM     27  C   UNL     1      46.401   2.856   7.711  0.00  0.00    +0.000 A 
ATOM     28  C   UNL     1      46.012   4.140   8.052  0.00  0.00    +0.000 A 
ATOM     29  N   UNL     1      45.103   4.422   9.019  0.00  0.00    +0.000 NA
ATOM     30  H   UNL     1      42.702   3.155  10.448  0.00  0.00    +0.000 HD
BRANCH  27  31
ATOM     31  C   UNL     1      47.391   2.681   6.630  0.00  0.00    +0.000 C 
ATOM     32  N   UNL     1      47.111   3.249   5.418  0.00  0.00    +0.000 N 
ATOM     33  O   UNL     1      48.416   2.028   6.799  0.00  0.00    +0.000 OA
ATOM     34  H   UNL     1      46.191   3.582   5.168  0.00  0.00    +0.000 HD
ATOM     35  H   UNL     1      47.757   3.043   4.663  0.00  0.00    +0.000 HD
ENDBRANCH  27  31
ENDBRANCH  22  23
ENDBRANCH  21  22
ENDBRANCH   6  21
TORSDOF 9
ENDMDL
MODEL 7
REMARK VINA RESULT:    -7.127      4.887      7.094
REMARK INTER + INTRA:         -12.121
REMARK INTER:                 -11.043
REMARK INTRA:                  -1.078
REMARK UNBOUND:                -1.245
REMARK  Name = 
REMARK  9 active torsions:
REMARK  status: ('A' for Active; 'I' for Inactive)
REMARK    1  A    between atoms: C_2  and  C_3
REMARK    2  A    between atoms: C_6  and  C_7
REMARK    3  A    between atoms: C_11  and  O_12
REMARK    4  A    between atoms: O_12  and  C_13
REMARK    5  A    between atoms: C_13  and  C_14
REMARK    6  A    between atoms: C_20  and  C_21
REMARK    7  A    between atoms: C_21  and  C_22
REMARK    8  A    between atoms: C_22  and  N_23
REMARK    9  A    between atoms: C_27  and  C_28
REMARK                            x       y       z     vdW  Elec       q    Type
REMARK                         _______ _______ _______ _____ _____    ______ ____
ROOT
ATOM      1  C   UNL     1      45.385   6.804  12.522  0.00  0.00    +0.000 A 
ATOM      2  C   UNL     1      46.599   7.298  13.026  0.00  0.00    +0.000 A 
ATOM      3  C   UNL     1      47.341   6.571  13.961  0.00  0.00    +0.000 A 
ATOM      4  C   UNL     1      46.891   5.334  14.432  0.00  0.00    +0.000 A 
ATOM      5  C   UNL     1      45.665   4.868  13.927  0.00  0.00    +0.000 A 
ATOM      6  C   UNL     1      44.893   5.563  12.966  0.00  0.00    +0.000 A 
ENDROOT
BRANCH   4   7
ATOM      7  C   UNL     1      47.648   4.537  15.427  0.00  0.00    +0.000 A 
ATOM      8  C   UNL     1      47.709   3.131  15.354  0.00  0.00    +0.000 A 
ATOM      9  C   UNL     1      48.392   2.377  16.313  0.00  0.00    +0.000 A 
ATOM     10  C   UNL     1      49.064   3.015  17.351  0.00  0.00    +0.000 A 
ATOM     11  C   UNL     1      49.057   4.406  17.422  0.00  0.00    +0.000 A 
ATOM     12  C   UNL     1      48.326   5.150  16.492  0.00  0.00    +0.000 A 
BRANCH  11  13
ATOM     13  O   UNL     1      49.705   5.143  18.373  0.00  0.00    +0.000 OA
BRANCH  13  14
ATOM     14  C   UNL     1      48.978   6.269  18.883  0.00  0.00    +0.000 C 
BRANCH  14  15
ATOM     15  C   UNL     1      48.085   5.866  20.052  0.00  0.00    +0.000 C 
ATOM     16  F   UNL     1      48.400   4.660  20.572  0.00  0.00    +0.000 F 
ATOM     17  F   UNL     1      48.162   6.773  21.054  0.00  0.00    +0.000 F 
ATOM     18  F   UNL     1      46.787   5.810  19.665  0.00  0.00    +0.000 F 
ENDBRANCH  14  15
ENDBRANCH  13  14
ENDBRANCH  11  13
ENDBRANCH   4   7
BRANCH   1  20
ATOM     19  N   UNL     1      44.160   8.282  10.774  0.00  0.00    +0.000 NA
ATOM     20  C   UNL     1      44.692   7.606  11.553  0.00  0.00    +0.000 C 
ENDBRANCH   1  20
BRANCH   6  21
ATOM     21  C   UNL     1      43.578   4.976  12.447  0.00  0.00    +0.000 C 
BRANCH  21  22
ATOM     22  C   UNL     1      43.730   4.175  11.139  0.00  0.00    +0.000 C 
BRANCH  22  23
ATOM     23  N   UNL     1      44.365   4.908  10.042  0.00  0.00    +0.000 N 
ATOM     24  C   UNL     1      45.113   4.025   9.221  0.00  0.00    +0.000 A 
ATOM     25  C   UNL     1      45.790   4.544   8.120  0.00  0.00    +0.000 A 
ATOM     26  C   UNL     1      46.530   3.690   7.293  0.00  0.00    +0.000 A 
ATOM     27  C   UNL     1      46.579   2.328   7.586  0.00  0.00    +0.000 A 
ATOM     28  C   UNL     1      45.882   1.889   8.698  0.00  0.00    +0.000 A 
ATOM     29  N   UNL     1      45.150   2.703   9.500  0.00  0.00    +0.000 NA
ATOM     30  H   UNL     1      44.989   5.640  10.372  0.00  0.00    +0.000 HD
BRANCH  27  31
ATOM     31  C   UNL     1      47.350   1.344   6.801  0.00  0.00    +0.000 C 
ATOM     32  N   UNL     1      48.458   1.792   6.136  0.00  0.00    +0.000 N 
ATOM     33  O   UNL     1      46.998   0.171   6.722  0.00  0.00    +0.000 OA
ATOM     34  H   UNL     1      48.643   2.772   5.979  0.00  0.00    +0.000 HD
ATOM     35  H   UNL     1      48.922   1.124   5.531  0.00  0.00    +0.000 HD
ENDBRANCH  27  31
ENDBRANCH  22  23
ENDBRANCH  21  22
ENDBRANCH   6  21
TORSDOF 9
ENDMDL
MODEL 8
REMARK VINA RESULT:    -6.691      5.211      7.595
REMARK INTER + INTRA:         -11.457
REMARK INTER:                  -9.860
REMARK INTRA:                  -1.597
REMARK UNBOUND:                -1.245
REMARK  Name = 
REMARK  9 active torsions:
REMARK  status: ('A' for Active; 'I' for Inactive)
REMARK    1  A    between atoms: C_2  and  C_3
REMARK    2  A    between atoms: C_6  and  C_7
REMARK    3  A    between atoms: C_11  and  O_12
REMARK    4  A    between atoms: O_12  and  C_13
REMARK    5  A    between atoms: C_13  and  C_14
REMARK    6  A    between atoms: C_20  and  C_21
REMARK    7  A    between atoms: C_21  and  C_22
REMARK    8  A    between atoms: C_22  and  N_23
REMARK    9  A    between atoms: C_27  and  C_28
REMARK                            x       y       z     vdW  Elec       q    Type
REMARK                         _______ _______ _______ _____ _____    ______ ____
ROOT
ATOM      1  C   UNL     1      48.519  10.724  11.407  0.00  0.00    +0.000 A 
ATOM      2  C   UNL     1      49.783  10.449  11.953  0.00  0.00    +0.000 A 
ATOM      3  C   UNL     1      49.921   9.640  13.084  0.00  0.00    +0.000 A 
ATOM      4  C   UNL     1      48.801   9.089  13.715  0.00  0.00    +0.000 A 
ATOM      5  C   UNL     1      47.545   9.393  13.163  0.00  0.00    +0.000 A 
ATOM      6  C   UNL     1      47.364  10.190  12.009  0.00  0.00    +0.000 A 
ENDROOT
BRANCH   4   7
ATOM      7  C   UNL     1      48.908   8.232  14.920  0.00  0.00    +0.000 A 
ATOM      8  C   UNL     1      49.280   8.762  16.172  0.00  0.00    +0.000 A 
ATOM      9  C   UNL     1      49.417   7.948  17.300  0.00  0.00    +0.000 A 
ATOM     10  C   UNL     1      49.150   6.586  17.213  0.00  0.00    +0.000 A 
ATOM     11  C   UNL     1      48.738   6.043  15.998  0.00  0.00    +0.000 A 
ATOM     12  C   UNL     1      48.657   6.852  14.862  0.00  0.00    +0.000 A 
BRANCH  11  13
ATOM     13  O   UNL     1      48.417   4.730  15.798  0.00  0.00    +0.000 OA
BRANCH  13  14
ATOM     14  C   UNL     1      47.319   4.236  16.577  0.00  0.00    +0.000 C 
BRANCH  14  15
ATOM     15  C   UNL     1      47.721   3.003  17.378  0.00  0.00    +0.000 C 
ATOM     16  F   UNL     1      46.665   2.268  17.790  0.00  0.00    +0.000 F 
ATOM     17  F   UNL     1      48.519   2.190  16.646  0.00  0.00    +0.000 F 
ATOM     18  F   UNL     1      48.420   3.357  18.483  0.00  0.00    +0.000 F 
ENDBRANCH  14  15
ENDBRANCH  13  14
ENDBRANCH  11  13
ENDBRANCH   4   7
BRANCH   1  20
ATOM     19  N   UNL     1      48.449  12.244   9.304  0.00  0.00    +0.000 NA
ATOM     20  C   UNL     1      48.466  11.551  10.235  0.00  0.00    +0.000 C 
ENDBRANCH   1  20
BRANCH   6  21
ATOM     21  C   UNL     1      45.961  10.455  11.454  0.00  0.00    +0.000 C 
BRANCH  21  22
ATOM     22  C   UNL     1      44.843   9.721  12.220  0.00  0.00    +0.000 C 
BRANCH  22  23
ATOM     23  N   UNL     1      44.009   8.845  11.395  0.00  0.00    +0.000 N 
ATOM     24  C   UNL     1      44.266   7.482  11.700  0.00  0.00    +0.000 A 
ATOM     25  C   UNL     1      43.560   6.497  11.013  0.00  0.00    +0.000 A 
ATOM     26  C   UNL     1      43.794   5.147  11.302  0.00  0.00    +0.000 A 
ATOM     27  C   UNL     1      44.732   4.808  12.275  0.00  0.00    +0.000 A 
ATOM     28  C   UNL     1      45.394   5.844  12.911  0.00  0.00    +0.000 A 
ATOM     29  N   UNL     1      45.168   7.156  12.652  0.00  0.00    +0.000 NA
ATOM     30  H   UNL     1      44.164   8.982  10.400  0.00  0.00    +0.000 HD
BRANCH  27  31
ATOM     31  C   UNL     1      45.078   3.419  12.638  0.00  0.00    +0.000 C 
ATOM     32  N   UNL     1      44.136   2.453  12.413  0.00  0.00    +0.000 N 
ATOM     33  O   UNL     1      46.158   3.141  13.149  0.00  0.00    +0.000 OA
ATOM     34  H   UNL     1      43.167   2.665  12.224  0.00  0.00    +0.000 HD
ATOM     35  H   UNL     1      44.355   1.522  12.751  0.00  0.00    +0.000 HD
ENDBRANCH  27  31
ENDBRANCH  22  23
ENDBRANCH  21  22
ENDBRANCH   6  21
TORSDOF 9
ENDMDL
MODEL 9
REMARK VINA RESULT:    -6.679      3.703      6.477
REMARK INTER + INTRA:         -11.438
REMARK INTER:                 -10.355
REMARK INTRA:                  -1.083
REMARK UNBOUND:                -1.245
REMARK  Name = 
REMARK  9 active torsions:
REMARK  status: ('A' for Active; 'I' for Inactive)
REMARK    1  A    between atoms: C_2  and  C_3
REMARK    2  A    between atoms: C_6  and  C_7
REMARK    3  A    between atoms: C_11  and  O_12
REMARK    4  A    between atoms: O_12  and  C_13
REMARK    5  A    between atoms: C_13  and  C_14
REMARK    6  A    between atoms: C_20  and  C_21
REMARK    7  A    between atoms: C_21  and  C_22
REMARK    8  A    between atoms: C_22  and  N_23
REMARK    9  A    between atoms: C_27  and  C_28
REMARK                            x       y       z     vdW  Elec       q    Type
REMARK                         _______ _______ _______ _____ _____    ______ ____
ROOT
ATOM      1  C   UNL     1      43.879   4.414  11.797  0.00  0.00    +0.000 A 
ATOM      2  C   UNL     1      43.020   5.408  11.300  0.00  0.00    +0.000 A 
ATOM      3  C   UNL     1      43.412   6.749  11.264  0.00  0.00    +0.000 A 
ATOM      4  C   UNL     1      44.669   7.144  11.732  0.00  0.00    +0.000 A 
ATOM      5  C   UNL     1      45.505   6.135  12.241  0.00  0.00    +0.000 A 
ATOM      6  C   UNL     1      45.154   4.765  12.277  0.00  0.00    +0.000 A 
ENDROOT
BRANCH   4   7
ATOM      7  C   UNL     1      45.117   8.557  11.714  0.00  0.00    +0.000 A 
ATOM      8  C   UNL     1      46.409   8.926  12.139  0.00  0.00    +0.000 A 
ATOM      9  C   UNL     1      46.819  10.263  12.157  0.00  0.00    +0.000 A 
ATOM     10  C   UNL     1      45.957  11.262  11.716  0.00  0.00    +0.000 A 
ATOM     11  C   UNL     1      44.690  10.920  11.250  0.00  0.00    +0.000 A 
ATOM     12  C   UNL     1      44.267   9.589  11.286  0.00  0.00    +0.000 A 
BRANCH  11  13
ATOM     13  O   UNL     1      43.771  11.807  10.763  0.00  0.00    +0.000 OA
BRANCH  13  14
ATOM     14  C   UNL     1      42.437  11.653  11.267  0.00  0.00    +0.000 C 
BRANCH  14  15
ATOM     15  C   UNL     1      41.500  11.114  10.191  0.00  0.00    +0.000 C 
ATOM     16  F   UNL     1      40.394  11.871  10.021  0.00  0.00    +0.000 F 
ATOM     17  F   UNL     1      42.130  11.042   8.995  0.00  0.00    +0.000 F 
ATOM     18  F   UNL     1      41.087   9.862  10.501  0.00  0.00    +0.000 F 
ENDBRANCH  14  15
ENDBRANCH  13  14
ENDBRANCH  11  13
ENDBRANCH   4   7
BRANCH   1  20
ATOM     19  N   UNL     1      42.988   1.976  11.760  0.00  0.00    +0.000 NA
ATOM     20  C   UNL     1      43.404   3.059  11.785  0.00  0.00    +0.000 C 
ENDBRANCH   1  20
BRANCH   6  21
ATOM     21  C   UNL     1      46.132   3.722  12.826  0.00  0.00    +0.000 C 
BRANCH  21  22
ATOM     22  C   UNL     1      46.872   4.176  14.099  0.00  0.00    +0.000 C 
BRANCH  22  23
ATOM     23  N   UNL     1      47.370   3.085  14.940  0.00  0.00    +0.000 N 
ATOM     24  C   UNL     1      47.773   3.579  16.208  0.00  0.00    +0.000 A 
ATOM     25  C   UNL     1      48.275   2.682  17.149  0.00  0.00    +0.000 A 
ATOM     26  C   UNL     1      48.673   3.147  18.408  0.00  0.00    +0.000 A 
ATOM     27  C   UNL     1      48.561   4.504  18.703  0.00  0.00    +0.000 A 
ATOM     28  C   UNL     1      48.055   5.332  17.716  0.00  0.00    +0.000 A 
ATOM     29  N   UNL     1      47.652   4.894  16.496  0.00  0.00    +0.000 NA
ATOM     30  H   UNL     1      48.161   2.601  14.523  0.00  0.00    +0.000 HD
BRANCH  27  31
ATOM     31  C   UNL     1      48.976   5.107  19.985  0.00  0.00    +0.000 C 
ATOM     32  N   UNL     1      49.004   4.295  21.086  0.00  0.00    +0.000 N 
ATOM     33  O   UNL     1      49.261   6.297  20.071  0.00  0.00    +0.000 OA
ATOM     34  H   UNL     1      48.556   3.390  21.111  0.00  0.00    +0.000 HD
ATOM     35  H   UNL     1      49.203   4.744  21.973  0.00  0.00    +0.000 HD
ENDBRANCH  27  31
ENDBRANCH  22  23
ENDBRANCH  21  22
ENDBRANCH   6  21
TORSDOF 9
ENDMDL
