MODEL 1
REMARK VINA RESULT:    -8.551      0.000      0.000
REMARK INTER + INTRA:         -12.528
REMARK INTER:                 -11.550
REMARK INTRA:                  -0.978
REMARK UNBOUND:                -0.978
REMARK  Name = 
REMARK  7 active torsions:
REMARK  status: ('A' for Active; 'I' for Inactive)
REMARK    1  A    between atoms: C_1  and  C_2
REMARK    2  A    between atoms: C_2  and  N_3
REMARK    3  A    between atoms: C_2  and  C_16
REMARK    4  A    between atoms: C_4  and  C_6
REMARK    5  A    between atoms: C_19  and  C_20
REMARK    6  A    between atoms: C_20  and  O_21
REMARK    7  A    between atoms: O_21  and  C_22
REMARK                            x       y       z     vdW  Elec       q    Type
REMARK                         _______ _______ _______ _____ _____    ______ ____
ROOT
ATOM      1  C   UNL     1      45.931   8.901  12.958  0.00  0.00    +0.000 C 
ATOM      2  C   UNL     1      46.849   7.673  12.963  0.00  0.00    +0.000 C 
ENDROOT
BRANCH   2   3
ATOM      3  C   UNL     1      46.159   6.502  12.277  0.00  0.00    +0.000 A 
ATOM      4  C   UNL     1      45.970   6.489  10.888  0.00  0.00    +0.000 A 
ATOM      5  C   UNL     1      45.395   5.379  10.259  0.00  0.00    +0.000 A 
ATOM      6  C   UNL     1      44.990   4.265  11.006  0.00  0.00    +0.000 A 
ATOM      7  C   UNL     1      45.166   4.279  12.394  0.00  0.00    +0.000 A 
ATOM      8  C   UNL     1      45.739   5.386  13.021  0.00  0.00    +0.000 A 
BRANCH   6   9
ATOM      9  C   UNL     1      44.379   3.059  10.335  0.00  0.00    +0.000 C 
BRANCH   9  10
ATOM     10  O   UNL     1      44.380   3.255   8.918  0.00  0.00    +0.000 OA
BRANCH  10  11
ATOM     11  C   UNL     1      45.402   2.561   8.306  0.00  0.00    +0.000 A 
ATOM     12  C   UNL     1      46.193   3.246   7.401  0.00  0.00    +0.000 A 
ATOM     13  C   UNL     1      47.231   2.554   6.785  0.00  0.00    +0.000 A 
ATOM     14  C   UNL     1      47.417   1.224   7.115  0.00  0.00    +0.000 A 
ATOM     15  N   UNL     1      46.632   0.579   7.998  0.00  0.00    +0.000 NA
ATOM     16  N   UNL     1      45.616   1.256   8.598  0.00  0.00    +0.000 NA
ENDBRANCH  10  11
ENDBRANCH   9  10
ENDBRANCH   6   9
ENDBRANCH   2   3
BRANCH   2  17
ATOM     17  N   UNL     1      47.239   7.259  14.304  0.00  0.00    +0.000 N 
ATOM     18  C   UNL     1      48.468   6.736  14.613  0.00  0.00    +0.000 C 
ATOM     19  O   UNL     1      49.368   6.622  13.787  0.00  0.00    +0.000 OA
ATOM     20  H   UNL     1      46.468   7.043  14.932  0.00  0.00    +0.000 HD
BRANCH  18  21
ATOM     21  C   UNL     1      48.685   6.377  16.020  0.00  0.00    +0.000 A 
ATOM     22  C   UNL     1      49.229   7.311  16.890  0.00  0.00    +0.000 A 
ATOM     23  S   UNL     1      49.416   6.735  18.484  0.00  0.00    +0.000 S 
ATOM     24  C   UNL     1      48.813   5.203  18.058  0.00  0.00    +0.000 A 
ATOM     25  N   UNL     1      48.747   4.198  18.973  0.00  0.00    +0.000 NA
ATOM     26  C   UNL     1      48.297   3.081  18.507  0.00  0.00    +0.000 A 
ATOM     27  N   UNL     1      47.890   2.883  17.212  0.00  0.00    +0.000 N 
ATOM     28  C   UNL     1      47.903   3.879  16.264  0.00  0.00    +0.000 A 
ATOM     29  O   UNL     1      47.473   3.691  15.132  0.00  0.00    +0.000 OA
ATOM     30  C   UNL     1      48.436   5.144  16.729  0.00  0.00    +0.000 A 
ATOM     31  H   UNL     1      47.526   1.990  16.915  0.00  0.00    +0.000 HD
ENDBRANCH  18  21
ENDBRANCH   2  17
TORSDOF 6
ENDMDL
MODEL 2
REMARK VINA RESULT:    -8.142      1.696      2.245
REMARK INTER + INTRA:         -11.975
REMARK INTER:                 -10.904
REMARK INTRA:                  -1.071
REMARK UNBOUND:                -0.978
REMARK  Name = 
REMARK  7 active torsions:
REMARK  status: ('A' for Active; 'I' for Inactive)
REMARK    1  A    between atoms: C_1  and  C_2
REMARK    2  A    between atoms: C_2  and  N_3
REMARK    3  A    between atoms: C_2  and  C_16
REMARK    4  A    between atoms: C_4  and  C_6
REMARK    5  A    between atoms: C_19  and  C_20
REMARK    6  A    between atoms: C_20  and  O_21
REMARK    7  A    between atoms: O_21  and  C_22
REMARK                            x       y       z     vdW  Elec       q    Type
REMARK                         _______ _______ _______ _____ _____    ______ ____
ROOT
ATOM      1  C   UNL     1      47.225   8.479  13.604  0.00  0.00    +0.000 C 
ATOM      2  C   UNL     1      47.664   7.010  13.597  0.00  0.00    +0.000 C 
ENDROOT
BRANCH   2   3
ATOM      3  C   UNL     1      46.725   6.188  12.725  0.00  0.00    +0.000 A 
ATOM      4  C   UNL     1      46.431   6.581  11.412  0.00  0.00    +0.000 A 
ATOM      5  C   UNL     1      45.619   5.785  10.596  0.00  0.00    +0.000 A 
ATOM      6  C   UNL     1      45.080   4.585  11.078  0.00  0.00    +0.000 A 
ATOM      7  C   UNL     1      45.363   4.194  12.392  0.00  0.00    +0.000 A 
ATOM      8  C   UNL     1      46.171   4.989  13.205  0.00  0.00    +0.000 A 
BRANCH   6   9
ATOM      9  C   UNL     1      44.214   3.713  10.201  0.00  0.00    +0.000 C 
BRANCH   9  10
ATOM     10  O   UNL     1      44.501   3.991   8.828  0.00  0.00    +0.000 OA
BRANCH  10  11
ATOM     11  C   UNL     1      45.402   3.089   8.301  0.00  0.00    +0.000 A 
ATOM     12  C   UNL     1      46.293   3.551   7.348  0.00  0.00    +0.000 A 
ATOM     13  C   UNL     1      47.209   2.648   6.818  0.00  0.00    +0.000 A 
ATOM     14  C   UNL     1      47.180   1.344   7.274  0.00  0.00    +0.000 A 
ATOM     15  N   UNL     1      46.302   0.918   8.201  0.00  0.00    +0.000 NA
ATOM     16  N   UNL     1      45.405   1.800   8.718  0.00  0.00    +0.000 NA
ENDBRANCH  10  11
ENDBRANCH   9  10
ENDBRANCH   6   9
ENDBRANCH   2   3
BRANCH   2  17
ATOM     17  N   UNL     1      47.694   6.419  14.928  0.00  0.00    +0.000 N 
ATOM     18  C   UNL     1      48.837   6.275  15.672  0.00  0.00    +0.000 C 
ATOM     19  O   UNL     1      49.930   6.684  15.296  0.00  0.00    +0.000 OA
ATOM     20  H   UNL     1      46.913   5.805  15.147  0.00  0.00    +0.000 HD
BRANCH  18  21
ATOM     21  C   UNL     1      48.675   5.659  16.995  0.00  0.00    +0.000 A 
ATOM     22  C   UNL     1      48.857   4.291  17.141  0.00  0.00    +0.000 A 
ATOM     23  S   UNL     1      48.632   3.736  18.738  0.00  0.00    +0.000 S 
ATOM     24  C   UNL     1      48.244   5.300  19.283  0.00  0.00    +0.000 A 
ATOM     25  N   UNL     1      47.895   5.523  20.579  0.00  0.00    +0.000 NA
ATOM     26  C   UNL     1      47.597   6.750  20.848  0.00  0.00    +0.000 A 
ATOM     27  N   UNL     1      47.634   7.778  19.941  0.00  0.00    +0.000 N 
ATOM     28  C   UNL     1      48.017   7.607  18.632  0.00  0.00    +0.000 A 
ATOM     29  O   UNL     1      48.102   8.555  17.860  0.00  0.00    +0.000 OA
ATOM     30  C   UNL     1      48.325   6.238  18.270  0.00  0.00    +0.000 A 
ATOM     31  H   UNL     1      47.410   8.722  20.220  0.00  0.00    +0.000 HD
ENDBRANCH  18  21
ENDBRANCH   2  17
TORSDOF 6
ENDMDL
MODEL 3
REMARK VINA RESULT:    -7.962      1.839      2.280
REMARK INTER + INTRA:         -11.733
REMARK INTER:                 -10.676
REMARK INTRA:                  -1.057
REMARK UNBOUND:                -0.978
REMARK  Name = 
REMARK  7 active torsions:
REMARK  status: ('A' for Active; 'I' for Inactive)
REMARK    1  A    between atoms: C_1  and  C_2
REMARK    2  A    between atoms: C_2  and  N_3
REMARK    3  A    between atoms: C_2  and  C_16
REMARK    4  A    between atoms: C_4  and  C_6
REMARK    5  A    between atoms: C_19  and  C_20
REMARK    6  A    between atoms: C_20  and  O_21
REMARK    7  A    between atoms: O_21  and  C_22
REMARK                            x       y       z     vdW  Elec       q    Type
REMARK                         _______ _______ _______ _____ _____    ______ ____
ROOT
ATOM      1  C   UNL     1      48.698   7.950  13.153  0.00  0.00    +0.000 C 
ATOM      2  C   UNL     1      48.369   6.633  13.867  0.00  0.00    +0.000 C 
ENDROOT
BRANCH   2   3
ATOM      3  C   UNL     1      47.143   5.989  13.235  0.00  0.00    +0.000 A 
ATOM      4  C   UNL     1      46.281   6.729  12.415  0.00  0.00    +0.000 A 
ATOM      5  C   UNL     1      45.194   6.112  11.786  0.00  0.00    +0.000 A 
ATOM      6  C   UNL     1      44.943   4.745  11.970  0.00  0.00    +0.000 A 
ATOM      7  C   UNL     1      45.795   4.006  12.797  0.00  0.00    +0.000 A 
ATOM      8  C   UNL     1      46.878   4.621  13.425  0.00  0.00    +0.000 A 
BRANCH   6   9
ATOM      9  C   UNL     1      43.780   4.069  11.286  0.00  0.00    +0.000 C 
BRANCH   9  10
ATOM     10  O   UNL     1      43.712   4.506   9.926  0.00  0.00    +0.000 OA
BRANCH  10  11
ATOM     11  C   UNL     1      44.666   3.890   9.143  0.00  0.00    +0.000 A 
ATOM     12  C   UNL     1      44.785   2.515   9.234  0.00  0.00    +0.000 A 
ATOM     13  C   UNL     1      45.740   1.887   8.442  0.00  0.00    +0.000 A 
ATOM     14  C   UNL     1      46.514   2.670   7.607  0.00  0.00    +0.000 A 
ATOM     15  N   UNL     1      46.382   4.008   7.537  0.00  0.00    +0.000 NA
ATOM     16  N   UNL     1      45.448   4.622   8.314  0.00  0.00    +0.000 NA
ENDBRANCH  10  11
ENDBRANCH   9  10
ENDBRANCH   6   9
ENDBRANCH   2   3
BRANCH   2  17
ATOM     17  N   UNL     1      48.120   6.804  15.292  0.00  0.00    +0.000 N 
ATOM     18  C   UNL     1      49.041   6.517  16.266  0.00  0.00    +0.000 C 
ATOM     19  O   UNL     1      50.180   6.139  16.013  0.00  0.00    +0.000 OA
ATOM     20  H   UNL     1      47.140   6.810  15.562  0.00  0.00    +0.000 HD
BRANCH  18  21
ATOM     21  C   UNL     1      48.614   6.755  17.651  0.00  0.00    +0.000 A 
ATOM     22  C   UNL     1      48.239   8.032  18.043  0.00  0.00    +0.000 A 
ATOM     23  S   UNL     1      47.774   8.138  19.679  0.00  0.00    +0.000 S 
ATOM     24  C   UNL     1      48.096   6.487  19.933  0.00  0.00    +0.000 A 
ATOM     25  N   UNL     1      47.945   5.925  21.163  0.00  0.00    +0.000 NA
ATOM     26  C   UNL     1      48.253   4.672  21.218  0.00  0.00    +0.000 A 
ATOM     27  N   UNL     1      48.681   3.926  20.150  0.00  0.00    +0.000 N 
ATOM     28  C   UNL     1      48.811   4.441  18.882  0.00  0.00    +0.000 A 
ATOM     29  O   UNL     1      49.134   3.735  17.934  0.00  0.00    +0.000 OA
ATOM     30  C   UNL     1      48.514   5.856  18.775  0.00  0.00    +0.000 A 
ATOM     31  H   UNL     1      48.885   2.943  20.254  0.00  0.00    +0.000 HD
ENDBRANCH  18  21
ENDBRANCH   2  17
TORSDOF 6
ENDMDL
MODEL 4
REMARK VINA RESULT:    -7.542      1.847      2.301
REMARK INTER + INTRA:         -11.166
REMARK INTER:                  -9.932
REMARK INTRA:                  -1.234
REMARK UNBOUND:                -0.978
REMARK  Name = 
REMARK  7 active torsions:
REMARK  status: ('A' for Active; 'I' for Inactive)
REMARK    1  A    between atoms: C_1  and  C_2
REMARK    2  A    between atoms: C_2  and  N_3
REMARK    3  A    between atoms: C_2  and  C_16
REMARK    4  A    between atoms: C_4  and  C_6
REMARK    5  A    between atoms: C_19  and  C_20
REMARK    6  A    between atoms: C_20  and  O_21
REMARK    7  A    between atoms: O_21  and  C_22
REMARK                            x       y       z     vdW  Elec       q    Type
REMARK                         _______ _______ _______ _____ _____    ______ ____
ROOT
ATOM      1  C   UNL     1      45.705   9.909  12.333  0.00  0.00    +0.000 C 
ATOM      2  C   UNL     1      46.655   8.757  12.684  0.00  0.00    +0.000 C 
ENDROOT
BRANCH   2   3
ATOM      3  C   UNL     1      46.037   7.427  12.277  0.00  0.00    +0.000 A 
ATOM      4  C   UNL     1      46.702   6.218  12.519  0.00  0.00    +0.000 A 
ATOM      5  C   UNL     1      46.097   4.997  12.201  0.00  0.00    +0.000 A 
ATOM      6  C   UNL     1      44.818   4.961  11.628  0.00  0.00    +0.000 A 
ATOM      7  C   UNL     1      44.156   6.167  11.374  0.00  0.00    +0.000 A 
ATOM      8  C   UNL     1      44.760   7.384  11.690  0.00  0.00    +0.000 A 
BRANCH   6   9
ATOM      9  C   UNL     1      44.153   3.648  11.293  0.00  0.00    +0.000 C 
BRANCH   9  10
ATOM     10  O   UNL     1      43.691   3.684   9.940  0.00  0.00    +0.000 OA
BRANCH  10  11
ATOM     11  C   UNL     1      44.692   3.361   9.049  0.00  0.00    +0.000 A 
ATOM     12  C   UNL     1      45.191   2.071   9.079  0.00  0.00    +0.000 A 
ATOM     13  C   UNL     1      46.196   1.736   8.178  0.00  0.00    +0.000 A 
ATOM     14  C   UNL     1      46.638   2.709   7.301  0.00  0.00    +0.000 A 
ATOM     15  N   UNL     1      46.139   3.959   7.292  0.00  0.00    +0.000 NA
ATOM     16  N   UNL     1      45.157   4.286   8.175  0.00  0.00    +0.000 NA
ENDBRANCH  10  11
ENDBRANCH   9  10
ENDBRANCH   6   9
ENDBRANCH   2   3
BRANCH   2  17
ATOM     17  N   UNL     1      46.982   8.700  14.103  0.00  0.00    +0.000 N 
ATOM     18  C   UNL     1      48.251   8.851  14.599  0.00  0.00    +0.000 C 
ATOM     19  O   UNL     1      49.217   9.102  13.887  0.00  0.00    +0.000 OA
ATOM     20  H   UNL     1      46.309   8.204  14.682  0.00  0.00    +0.000 HD
BRANCH  18  21
ATOM     21  C   UNL     1      48.390   8.767  16.059  0.00  0.00    +0.000 A 
ATOM     22  C   UNL     1      48.238   9.911  16.829  0.00  0.00    +0.000 A 
ATOM     23  S   UNL     1      48.432   9.641  18.501  0.00  0.00    +0.000 S 
ATOM     24  C   UNL     1      48.766   7.992  18.251  0.00  0.00    +0.000 A 
ATOM     25  N   UNL     1      49.073   7.174  19.294  0.00  0.00    +0.000 NA
ATOM     26  C   UNL     1      49.333   5.955  18.957  0.00  0.00    +0.000 A 
ATOM     27  N   UNL     1      49.296   5.476  17.673  0.00  0.00    +0.000 N 
ATOM     28  C   UNL     1      48.955   6.256  16.593  0.00  0.00    +0.000 A 
ATOM     29  O   UNL     1      48.868   5.786  15.465  0.00  0.00    +0.000 OA
ATOM     30  C   UNL     1      48.691   7.644  16.915  0.00  0.00    +0.000 A 
ATOM     31  H   UNL     1      49.489   4.505  17.477  0.00  0.00    +0.000 HD
ENDBRANCH  18  21
ENDBRANCH   2  17
TORSDOF 6
ENDMDL
MODEL 5
REMARK VINA RESULT:    -7.470      3.285      7.824
REMARK INTER + INTRA:         -11.068
REMARK INTER:                  -9.905
REMARK INTRA:                  -1.163
REMARK UNBOUND:                -0.978
REMARK  Name = 
REMARK  7 active torsions:
REMARK  status: ('A' for Active; 'I' for Inactive)
REMARK    1  A    between atoms: C_1  and  C_2
REMARK    2  A    between atoms: C_2  and  N_3
REMARK    3  A    between atoms: C_2  and  C_16
REMARK    4  A    between atoms: C_4  and  C_6
REMARK    5  A    between atoms: C_19  and  C_20
REMARK    6  A    between atoms: C_20  and  O_21
REMARK    7  A    between atoms: O_21  and  C_22
REMARK                            x       y       z     vdW  Elec       q    Type
REMARK                         _______ _______ _______ _____ _____    ______ ____
ROOT
ATOM      1  C   UNL     1      49.654   8.309  11.586  0.00  0.00    +0.000 C 
ATOM      2  C   UNL     1      48.463   7.819  12.419  0.00  0.00    +0.000 C 
ENDROOT
BRANCH   2   3
ATOM      3  C   UNL     1      48.950   7.267  13.752  0.00  0.00    +0.000 A 
ATOM      4  C   UNL     1      50.193   7.642  14.277  0.00  0.00    +0.000 A 
ATOM      5  C   UNL     1      50.603   7.181  15.533  0.00  0.00    +0.000 A 
ATOM      6  C   UNL     1      49.780   6.331  16.286  0.00  0.00    +0.000 A 
ATOM      7  C   UNL     1      48.542   5.946  15.759  0.00  0.00    +0.000 A 
ATOM      8  C   UNL     1      48.135   6.405  14.506  0.00  0.00    +0.000 A 
BRANCH   6   9
ATOM      9  C   UNL     1      50.209   5.839  17.647  0.00  0.00    +0.000 C 
BRANCH   9  10
ATOM     10  O   UNL     1      49.559   4.596  17.927  0.00  0.00    +0.000 OA
BRANCH  10  11
ATOM     11  C   UNL     1      50.410   3.524  17.757  0.00  0.00    +0.000 A 
ATOM     12  C   UNL     1      51.699   3.641  18.248  0.00  0.00    +0.000 A 
ATOM     13  C   UNL     1      52.560   2.561  18.087  0.00  0.00    +0.000 A 
ATOM     14  C   UNL     1      52.082   1.432  17.449  0.00  0.00    +0.000 A 
ATOM     15  N   UNL     1      50.824   1.343  16.977  0.00  0.00    +0.000 NA
ATOM     16  N   UNL     1      49.982   2.400  17.134  0.00  0.00    +0.000 NA
ENDBRANCH  10  11
ENDBRANCH   9  10
ENDBRANCH   6   9
ENDBRANCH   2   3
BRANCH   2  17
ATOM     17  N   UNL     1      47.684   6.787  11.747  0.00  0.00    +0.000 N 
ATOM     18  C   UNL     1      46.319   6.826  11.619  0.00  0.00    +0.000 C 
ATOM     19  O   UNL     1      45.641   7.766  12.017  0.00  0.00    +0.000 OA
ATOM     20  H   UNL     1      48.134   5.878  11.683  0.00  0.00    +0.000 HD
BRANCH  18  21
ATOM     21  C   UNL     1      45.704   5.698  10.908  0.00  0.00    +0.000 A 
ATOM     22  C   UNL     1      45.815   5.615   9.527  0.00  0.00    +0.000 A 
ATOM     23  S   UNL     1      45.045   4.250   8.858  0.00  0.00    +0.000 S 
ATOM     24  C   UNL     1      44.500   3.741  10.387  0.00  0.00    +0.000 A 
ATOM     25  N   UNL     1      43.723   2.632  10.520  0.00  0.00    +0.000 NA
ATOM     26  C   UNL     1      43.358   2.380  11.732  0.00  0.00    +0.000 A 
ATOM     27  N   UNL     1      43.714   3.126  12.826  0.00  0.00    +0.000 N 
ATOM     28  C   UNL     1      44.528   4.231  12.745  0.00  0.00    +0.000 A 
ATOM     29  O   UNL     1      44.882   4.841  13.747  0.00  0.00    +0.000 OA
ATOM     30  C   UNL     1      44.935   4.579  11.398  0.00  0.00    +0.000 A 
ATOM     31  H   UNL     1      43.413   2.862  13.753  0.00  0.00    +0.000 HD
ENDBRANCH  18  21
ENDBRANCH   2  17
TORSDOF 6
ENDMDL
MODEL 6
REMARK VINA RESULT:    -7.293      2.622      4.397
REMARK INTER + INTRA:         -10.829
REMARK INTER:                  -9.637
REMARK INTRA:                  -1.192
REMARK UNBOUND:                -0.978
REMARK  Name = 
REMARK  7 active torsions:
REMARK  status: ('A' for Active; 'I' for Inactive)
REMARK    1  A    between atoms: C_1  and  C_2
REMARK    2  A    between atoms: C_2  and  N_3
REMARK    3  A    between atoms: C_2  and  C_16
REMARK    4  A    between atoms: C_4  and  C_6
REMARK    5  A    between atoms: C_19  and  C_20
REMARK    6  A    between atoms: C_20  and  O_21
REMARK    7  A    between atoms: O_21  and  C_22
REMARK                            x       y       z     vdW  Elec       q    Type
REMARK                         _______ _______ _______ _____ _____    ______ ____
ROOT
ATOM      1  C   UNL     1      47.244   4.319  15.231  0.00  0.00    +0.000 C 
ATOM      2  C   UNL     1      47.062   5.566  14.357  0.00  0.00    +0.000 C 
ENDROOT
BRANCH   2   3
ATOM      3  C   UNL     1      46.381   5.191  13.048  0.00  0.00    +0.000 A 
ATOM      4  C   UNL     1      45.685   3.982  12.917  0.00  0.00    +0.000 A 
ATOM      5  C   UNL     1      45.007   3.677  11.732  0.00  0.00    +0.000 A 
ATOM      6  C   UNL     1      45.017   4.570  10.652  0.00  0.00    +0.000 A 
ATOM      7  C   UNL     1      45.721   5.773  10.775  0.00  0.00    +0.000 A 
ATOM      8  C   UNL     1      46.397   6.077  11.957  0.00  0.00    +0.000 A 
BRANCH   6   9
ATOM      9  C   UNL     1      44.279   4.254   9.374  0.00  0.00    +0.000 C 
BRANCH   9  10
ATOM     10  O   UNL     1      44.282   2.840   9.163  0.00  0.00    +0.000 OA
BRANCH  10  11
ATOM     11  C   UNL     1      45.368   2.438   8.413  0.00  0.00    +0.000 A 
ATOM     12  C   UNL     1      45.933   3.361   7.551  0.00  0.00    +0.000 A 
ATOM     13  C   UNL     1      47.033   2.964   6.798  0.00  0.00    +0.000 A 
ATOM     14  C   UNL     1      47.502   1.673   6.954  0.00  0.00    +0.000 A 
ATOM     15  N   UNL     1      46.933   0.792   7.798  0.00  0.00    +0.000 NA
ATOM     16  N   UNL     1      45.856   1.180   8.534  0.00  0.00    +0.000 NA
ENDBRANCH  10  11
ENDBRANCH   9  10
ENDBRANCH   6   9
ENDBRANCH   2   3
BRANCH   2  17
ATOM     17  N   UNL     1      48.319   6.235  14.050  0.00  0.00    +0.000 N 
ATOM     18  C   UNL     1      48.907   7.165  14.868  0.00  0.00    +0.000 C 
ATOM     19  O   UNL     1      48.445   7.475  15.961  0.00  0.00    +0.000 OA
ATOM     20  H   UNL     1      48.570   6.254  13.064  0.00  0.00    +0.000 HD
BRANCH  18  21
ATOM     21  C   UNL     1      50.176   7.733  14.396  0.00  0.00    +0.000 A 
ATOM     22  C   UNL     1      51.325   7.573  15.159  0.00  0.00    +0.000 A 
ATOM     23  S   UNL     1      52.709   8.292  14.472  0.00  0.00    +0.000 S 
ATOM     24  C   UNL     1      51.815   8.876  13.149  0.00  0.00    +0.000 A 
ATOM     25  N   UNL     1      52.405   9.634  12.185  0.00  0.00    +0.000 NA
ATOM     26  C   UNL     1      51.603  10.035  11.256  0.00  0.00    +0.000 A 
ATOM     27  N   UNL     1      50.267   9.732  11.194  0.00  0.00    +0.000 N 
ATOM     28  C   UNL     1      49.637   8.939  12.124  0.00  0.00    +0.000 A 
ATOM     29  O   UNL     1      48.456   8.632  12.009  0.00  0.00    +0.000 OA
ATOM     30  C   UNL     1      50.487   8.494  13.210  0.00  0.00    +0.000 A 
ATOM     31  H   UNL     1      49.697  10.058  10.428  0.00  0.00    +0.000 HD
ENDBRANCH  18  21
ENDBRANCH   2  17
TORSDOF 6
ENDMDL
MODEL 7
REMARK VINA RESULT:    -7.216      3.389      4.728
REMARK INTER + INTRA:         -10.724
REMARK INTER:                  -9.580
REMARK INTRA:                  -1.144
REMARK UNBOUND:                -0.978
REMARK  Name = 
REMARK  7 active torsions:
REMARK  status: ('A' for Active; 'I' for Inactive)
REMARK    1  A    between atoms: C_1  and  C_2
REMARK    2  A    between atoms: C_2  and  N_3
REMARK    3  A    between atoms: C_2  and  C_16
REMARK    4  A    between atoms: C_4  and  C_6
REMARK    5  A    between atoms: C_19  and  C_20
REMARK    6  A    between atoms: C_20  and  O_21
REMARK    7  A    between atoms: O_21  and  C_22
REMARK                            x       y       z     vdW  Elec       q    Type
REMARK                         _______ _______ _______ _____ _____    ______ ____
ROOT
ATOM      1  C   UNL     1      47.125   3.289  17.493  0.00  0.00    +0.000 C 
ATOM      2  C   UNL     1      48.052   4.455  17.131  0.00  0.00    +0.000 C 
ENDROOT
BRANCH   2   3
ATOM      3  C   UNL     1      47.778   4.916  15.705  0.00  0.00    +0.000 A 
ATOM      4  C   UNL     1      47.014   4.134  14.829  0.00  0.00    +0.000 A 
ATOM      5  C   UNL     1      46.713   4.596  13.543  0.00  0.00    +0.000 A 
ATOM      6  C   UNL     1      47.176   5.845  13.106  0.00  0.00    +0.000 A 
ATOM      7  C   UNL     1      47.948   6.623  13.975  0.00  0.00    +0.000 A 
ATOM      8  C   UNL     1      48.249   6.161  15.256  0.00  0.00    +0.000 A 
BRANCH   6   9
ATOM      9  C   UNL     1      46.845   6.356  11.724  0.00  0.00    +0.000 C 
BRANCH   9  10
ATOM     10  O   UNL     1      45.471   6.085  11.435  0.00  0.00    +0.000 OA
BRANCH  10  11
ATOM     11  C   UNL     1      45.334   5.221  10.369  0.00  0.00    +0.000 A 
ATOM     12  C   UNL     1      44.573   4.081  10.558  0.00  0.00    +0.000 A 
ATOM     13  C   UNL     1      44.424   3.209   9.484  0.00  0.00    +0.000 A 
ATOM     14  C   UNL     1      45.041   3.532   8.290  0.00  0.00    +0.000 A 
ATOM     15  N   UNL     1      45.778   4.647   8.131  0.00  0.00    +0.000 NA
ATOM     16  N   UNL     1      45.925   5.498   9.182  0.00  0.00    +0.000 NA
ENDBRANCH  10  11
ENDBRANCH   9  10
ENDBRANCH   6   9
ENDBRANCH   2   3
BRANCH   2  17
ATOM     17  N   UNL     1      49.464   4.118  17.245  0.00  0.00    +0.000 N 
ATOM     18  C   UNL     1      50.203   4.305  18.385  0.00  0.00    +0.000 C 
ATOM     19  O   UNL     1      49.718   4.728  19.428  0.00  0.00    +0.000 OA
ATOM     20  H   UNL     1      49.969   4.065  16.364  0.00  0.00    +0.000 HD
BRANCH  18  21
ATOM     21  C   UNL     1      51.614   3.903  18.316  0.00  0.00    +0.000 A 
ATOM     22  C   UNL     1      52.602   4.807  18.681  0.00  0.00    +0.000 A 
ATOM     23  S   UNL     1      54.183   4.184  18.542  0.00  0.00    +0.000 S 
ATOM     24  C   UNL     1      53.604   2.698  17.952  0.00  0.00    +0.000 A 
ATOM     25  N   UNL     1      54.463   1.708  17.586  0.00  0.00    +0.000 NA
ATOM     26  C   UNL     1      53.888   0.646  17.128  0.00  0.00    +0.000 A 
ATOM     27  N   UNL     1      52.531   0.478  17.021  0.00  0.00    +0.000 N 
ATOM     28  C   UNL     1      51.626   1.434  17.414  0.00  0.00    +0.000 A 
ATOM     29  O   UNL     1      50.418   1.232  17.366  0.00  0.00    +0.000 OA
ATOM     30  C   UNL     1      52.222   2.663  17.900  0.00  0.00    +0.000 A 
ATOM     31  H   UNL     1      52.143  -0.387  16.675  0.00  0.00    +0.000 HD
ENDBRANCH  18  21
ENDBRANCH   2  17
TORSDOF 6
ENDMDL
MODEL 8
REMARK VINA RESULT:    -7.027      4.378      8.752
REMARK INTER + INTRA:         -10.469
REMARK INTER:                  -9.668
REMARK INTRA:                  -0.801
REMARK UNBOUND:                -0.978
REMARK  Name = 
REMARK  7 active torsions:
REMARK  status: ('A' for Active; 'I' for Inactive)
REMARK    1  A    between atoms: C_1  and  C_2
REMARK    2  A    between atoms: C_2  and  N_3
REMARK    3  A    between atoms: C_2  and  C_16
REMARK    4  A    between atoms: C_4  and  C_6
REMARK    5  A    between atoms: C_19  and  C_20
REMARK    6  A    between atoms: C_20  and  O_21
REMARK    7  A    between atoms: O_21  and  C_22
REMARK                            x       y       z     vdW  Elec       q    Type
REMARK                         _______ _______ _______ _____ _____    ______ ____
ROOT
ATOM      1  C   UNL     1      47.039   5.062  18.609  0.00  0.00    +0.000 C 
ATOM      2  C   UNL     1      47.407   4.227  17.376  0.00  0.00    +0.000 C 
ENDROOT
BRANCH   2   3
ATOM      3  C   UNL     1      48.849   3.748  17.481  0.00  0.00    +0.000 A 
ATOM      4  C   UNL     1      49.175   2.399  17.293  0.00  0.00    +0.000 A 
ATOM      5  C   UNL     1      50.510   1.979  17.326  0.00  0.00    +0.000 A 
ATOM      6  C   UNL     1      51.543   2.899  17.554  0.00  0.00    +0.000 A 
ATOM      7  C   UNL     1      51.219   4.246  17.752  0.00  0.00    +0.000 A 
ATOM      8  C   UNL     1      49.888   4.663  17.721  0.00  0.00    +0.000 A 
BRANCH   6   9
ATOM      9  C   UNL     1      52.986   2.457  17.579  0.00  0.00    +0.000 C 
BRANCH   9  10
ATOM     10  O   UNL     1      53.171   1.504  18.629  0.00  0.00    +0.000 OA
BRANCH  10  11
ATOM     11  C   UNL     1      53.778   0.353  18.173  0.00  0.00    +0.000 A 
ATOM     12  C   UNL     1      54.233   0.338  16.867  0.00  0.00    +0.000 A 
ATOM     13  C   UNL     1      54.852  -0.818  16.403  0.00  0.00    +0.000 A 
ATOM     14  C   UNL     1      54.982  -1.884  17.273  0.00  0.00    +0.000 A 
ATOM     15  N   UNL     1      54.529  -1.847  18.540  0.00  0.00    +0.000 NA
ATOM     16  N   UNL     1      53.922  -0.716  18.993  0.00  0.00    +0.000 NA
ENDBRANCH  10  11
ENDBRANCH   9  10
ENDBRANCH   6   9
ENDBRANCH   2   3
BRANCH   2  17
ATOM     17  N   UNL     1      47.252   4.959  16.126  0.00  0.00    +0.000 N 
ATOM     18  C   UNL     1      47.265   4.365  14.890  0.00  0.00    +0.000 C 
ATOM     19  O   UNL     1      47.357   3.152  14.736  0.00  0.00    +0.000 OA
ATOM     20  H   UNL     1      47.481   5.949  16.172  0.00  0.00    +0.000 HD
BRANCH  18  21
ATOM     21  C   UNL     1      47.091   5.261  13.739  0.00  0.00    +0.000 A 
ATOM     22  C   UNL     1      48.126   6.109  13.368  0.00  0.00    +0.000 A 
ATOM     23  S   UNL     1      47.762   7.082  12.016  0.00  0.00    +0.000 S 
ATOM     24  C   UNL     1      46.194   6.433  11.904  0.00  0.00    +0.000 A 
ATOM     25  N   UNL     1      45.318   6.878  10.962  0.00  0.00    +0.000 NA
ATOM     26  C   UNL     1      44.155   6.320  11.010  0.00  0.00    +0.000 A 
ATOM     27  N   UNL     1      43.793   5.345  11.903  0.00  0.00    +0.000 N 
ATOM     28  C   UNL     1      44.656   4.838  12.846  0.00  0.00    +0.000 A 
ATOM     29  O   UNL     1      44.326   3.921  13.589  0.00  0.00    +0.000 OA
ATOM     30  C   UNL     1      45.965   5.459  12.858  0.00  0.00    +0.000 A 
ATOM     31  H   UNL     1      42.873   4.932  11.874  0.00  0.00    +0.000 HD
ENDBRANCH  18  21
ENDBRANCH   2  17
TORSDOF 6
ENDMDL
MODEL 9
REMARK VINA RESULT:    -7.014      4.156      9.740
REMARK INTER + INTRA:         -10.452
REMARK INTER:                  -9.169
REMARK INTRA:                  -1.283
REMARK UNBOUND:                -0.978
REMARK  Name = 
REMARK  7 active torsions:
REMARK  status: ('A' for Active; 'I' for Inactive)
REMARK    1  A    between atoms: C_1  and  C_2
REMARK    2  A    between atoms: C_2  and  N_3
REMARK    3  A    between atoms: C_2  and  C_16
REMARK    4  A    between atoms: C_4  and  C_6
REMARK    5  A    between atoms: C_19  and  C_20
REMARK    6  A    between atoms: C_20  and  O_21
REMARK    7  A    between atoms: O_21  and  C_22
REMARK                            x       y       z     vdW  Elec       q    Type
REMARK                         _______ _______ _______ _____ _____    ______ ____
ROOT
ATOM      1  C   UNL     1      48.046   3.176  16.822  0.00  0.00    +0.000 C 
ATOM      2  C   UNL     1      48.173   4.610  16.295  0.00  0.00    +0.000 C 
ENDROOT
BRANCH   2   3
ATOM      3  C   UNL     1      47.989   5.604  17.434  0.00  0.00    +0.000 A 
ATOM      4  C   UNL     1      47.155   5.309  18.520  0.00  0.00    +0.000 A 
ATOM      5  C   UNL     1      47.043   6.200  19.593  0.00  0.00    +0.000 A 
ATOM      6  C   UNL     1      47.759   7.405  19.599  0.00  0.00    +0.000 A 
ATOM      7  C   UNL     1      48.585   7.707  18.511  0.00  0.00    +0.000 A 
ATOM      8  C   UNL     1      48.695   6.819  17.440  0.00  0.00    +0.000 A 
BRANCH   6   9
ATOM      9  C   UNL     1      47.654   8.366  20.758  0.00  0.00    +0.000 C 
BRANCH   9  10
ATOM     10  O   UNL     1      48.031   9.675  20.323  0.00  0.00    +0.000 OA
BRANCH  10  11
ATOM     11  C   UNL     1      46.960  10.544  20.330  0.00  0.00    +0.000 A 
ATOM     12  C   UNL     1      45.932  10.292  21.221  0.00  0.00    +0.000 A 
ATOM     13  C   UNL     1      44.852  11.169  21.238  0.00  0.00    +0.000 A 
ATOM     14  C   UNL     1      44.867  12.243  20.368  0.00  0.00    +0.000 A 
ATOM     15  N   UNL     1      45.879  12.466  19.508  0.00  0.00    +0.000 NA
ATOM     16  N   UNL     1      46.934  11.607  19.491  0.00  0.00    +0.000 NA
ENDBRANCH  10  11
ENDBRANCH   9  10
ENDBRANCH   6   9
ENDBRANCH   2   3
BRANCH   2  17
ATOM     17  N   UNL     1      47.208   4.921  15.249  0.00  0.00    +0.000 N 
ATOM     18  C   UNL     1      47.497   5.685  14.148  0.00  0.00    +0.000 C 
ATOM     19  O   UNL     1      48.617   6.130  13.923  0.00  0.00    +0.000 OA
ATOM     20  H   UNL     1      46.232   4.851  15.526  0.00  0.00    +0.000 HD
BRANCH  18  21
ATOM     21  C   UNL     1      46.398   5.891  13.196  0.00  0.00    +0.000 A 
ATOM     22  C   UNL     1      46.049   7.180  12.820  0.00  0.00    +0.000 A 
ATOM     23  S   UNL     1      44.755   7.245  11.712  0.00  0.00    +0.000 S 
ATOM     24  C   UNL     1      44.588   5.552  11.726  0.00  0.00    +0.000 A 
ATOM     25  N   UNL     1      43.609   4.939  11.007  0.00  0.00    +0.000 NA
ATOM     26  C   UNL     1      43.580   3.654  11.133  0.00  0.00    +0.000 A 
ATOM     27  N   UNL     1      44.453   2.925  11.899  0.00  0.00    +0.000 N 
ATOM     28  C   UNL     1      45.481   3.498  12.611  0.00  0.00    +0.000 A 
ATOM     29  O   UNL     1      46.285   2.816  13.236  0.00  0.00    +0.000 OA
ATOM     30  C   UNL     1      45.533   4.944  12.533  0.00  0.00    +0.000 A 
ATOM     31  H   UNL     1      44.391   1.919  11.939  0.00  0.00    +0.000 HD
ENDBRANCH  18  21
ENDBRANCH   2  17
TORSDOF 6
ENDMDL
