MODEL 1
REMARK VINA RESULT:    -8.101      0.000      0.000
REMARK INTER + INTRA:         -12.577
REMARK INTER:                 -11.653
REMARK INTRA:                  -0.924
REMARK UNBOUND:                -0.924
REMARK  Name = 
REMARK  8 active torsions:
REMARK  status: ('A' for Active; 'I' for Inactive)
REMARK    1  A    between atoms: N_1  and  C_2
REMARK    2  A    between atoms: C_2  and  C_3
REMARK    3  A    between atoms: C_2  and  C_24
REMARK    4  A    between atoms: C_3  and  C_4
REMARK    5  A    between atoms: C_7  and  C_8
REMARK    6  A    between atoms: C_8  and  N_9
REMARK    7  A    between atoms: C_10  and  C_12
REMARK    8  A    between atoms: C_24  and  C_26
REMARK                            x       y       z     vdW  Elec       q    Type
REMARK                         _______ _______ _______ _____ _____    ______ ____
ROOT
ATOM      1  C   UNL     1      45.646   4.860  11.912  0.00  0.00    +0.000 A 
ATOM      2  C   UNL     1      46.168   4.459  13.146  0.00  0.00    +0.000 A 
ATOM      3  C   UNL     1      47.086   5.262  13.830  0.00  0.00    +0.000 A 
ATOM      4  C   UNL     1      47.478   6.501  13.301  0.00  0.00    +0.000 A 
ATOM      5  C   UNL     1      46.950   6.904  12.069  0.00  0.00    +0.000 A 
ATOM      6  C   UNL     1      46.035   6.099  11.385  0.00  0.00    +0.000 A 
ENDROOT
BRANCH   1   7
ATOM      7  C   UNL     1      44.775   3.913  11.120  0.00  0.00    +0.000 C 
BRANCH   7   8
ATOM      8  C   UNL     1      44.845   3.955   9.583  0.00  0.00    +0.000 C 
BRANCH   8   9
ATOM      9  N   UNL     1      43.655   4.609   9.000  0.00  0.00    +0.000 NA
ATOM     10  H   UNL     1      43.535   4.301   8.037  0.00  0.00    +0.000 HD
ATOM     11  H   UNL     1      43.855   5.613   8.954  0.00  0.00    +0.000 HD
ENDBRANCH   8   9
BRANCH   8  12
ATOM     12  C   UNL     1      45.031   2.564   8.946  0.00  0.00    +0.000 C 
ATOM     13  O   UNL     1      44.416   1.576   9.351  0.00  0.00    +0.000 OA
BRANCH  12  14
ATOM     14  C   UNL     1      45.988   2.387   7.813  0.00  0.00    +0.000 A 
ATOM     15  C   UNL     1      46.164   3.303   6.773  0.00  0.00    +0.000 A 
ATOM     16  C   UNL     1      47.047   3.007   5.733  0.00  0.00    +0.000 A 
ATOM     17  C   UNL     1      47.758   1.820   5.781  0.00  0.00    +0.000 A 
ATOM     18  N   UNL     1      47.640   0.927   6.785  0.00  0.00    +0.000 NA
ATOM     19  C   UNL     1      46.755   1.225   7.772  0.00  0.00    +0.000 A 
ENDBRANCH  12  14
ENDBRANCH   8  12
ENDBRANCH   7   8
ENDBRANCH   1   7
BRANCH   4  20
ATOM     20  C   UNL     1      48.460   7.392  14.013  0.00  0.00    +0.000 C 
BRANCH  20  21
ATOM     21  N   UNL     1      48.303   7.323  15.444  0.00  0.00    +0.000 N 
ATOM     22  C   UNL     1      49.304   6.847  16.251  0.00  0.00    +0.000 C 
ATOM     23  O   UNL     1      50.381   6.459  15.818  0.00  0.00    +0.000 OA
ATOM     24  H   UNL     1      47.352   7.333  15.797  0.00  0.00    +0.000 HD
BRANCH  22  25
ATOM     25  C   UNL     1      49.019   6.900  17.690  0.00  0.00    +0.000 A 
ATOM     26  C   UNL     1      48.899   8.127  18.327  0.00  0.00    +0.000 A 
ATOM     27  S   UNL     1      48.501   7.995  19.981  0.00  0.00    +0.000 S 
ATOM     28  C   UNL     1      48.532   6.293  19.912  0.00  0.00    +0.000 A 
ATOM     29  N   UNL     1      48.309   5.543  21.024  0.00  0.00    +0.000 NA
ATOM     30  C   UNL     1      48.383   4.270  20.831  0.00  0.00    +0.000 A 
ATOM     31  N   UNL     1      48.668   3.674  19.629  0.00  0.00    +0.000 N 
ATOM     32  C   UNL     1      48.856   4.390  18.471  0.00  0.00    +0.000 A 
ATOM     33  O   UNL     1      49.019   3.824  17.397  0.00  0.00    +0.000 OA
ATOM     34  C   UNL     1      48.811   5.832  18.640  0.00  0.00    +0.000 A 
ATOM     35  H   UNL     1      48.703   2.670  19.542  0.00  0.00    +0.000 HD
ENDBRANCH  22  25
ENDBRANCH  20  21
ENDBRANCH   4  20
TORSDOF 8
ENDMDL
MODEL 2
REMARK VINA RESULT:    -8.093      1.363      1.987
REMARK INTER + INTRA:         -12.566
REMARK INTER:                 -11.554
REMARK INTRA:                  -1.012
REMARK UNBOUND:                -0.924
REMARK  Name = 
REMARK  8 active torsions:
REMARK  status: ('A' for Active; 'I' for Inactive)
REMARK    1  A    between atoms: N_1  and  C_2
REMARK    2  A    between atoms: C_2  and  C_3
REMARK    3  A    between atoms: C_2  and  C_24
REMARK    4  A    between atoms: C_3  and  C_4
REMARK    5  A    between atoms: C_7  and  C_8
REMARK    6  A    between atoms: C_8  and  N_9
REMARK    7  A    between atoms: C_10  and  C_12
REMARK    8  A    between atoms: C_24  and  C_26
REMARK                            x       y       z     vdW  Elec       q    Type
REMARK                         _______ _______ _______ _____ _____    ______ ____
ROOT
ATOM      1  C   UNL     1      45.552   4.573  12.033  0.00  0.00    +0.000 A 
ATOM      2  C   UNL     1      45.999   4.031  13.242  0.00  0.00    +0.000 A 
ATOM      3  C   UNL     1      46.917   4.720  14.040  0.00  0.00    +0.000 A 
ATOM      4  C   UNL     1      47.384   5.985  13.654  0.00  0.00    +0.000 A 
ATOM      5  C   UNL     1      46.931   6.531  12.448  0.00  0.00    +0.000 A 
ATOM      6  C   UNL     1      46.017   5.839  11.649  0.00  0.00    +0.000 A 
ENDROOT
BRANCH   1   7
ATOM      7  C   UNL     1      44.681   3.748  11.115  0.00  0.00    +0.000 C 
BRANCH   7   8
ATOM      8  C   UNL     1      44.884   3.873   9.594  0.00  0.00    +0.000 C 
BRANCH   8   9
ATOM      9  N   UNL     1      43.771   4.600   8.951  0.00  0.00    +0.000 NA
ATOM     10  H   UNL     1      43.092   3.933   8.589  0.00  0.00    +0.000 HD
ATOM     11  H   UNL     1      44.158   5.083   8.134  0.00  0.00    +0.000 HD
ENDBRANCH   8   9
BRANCH   8  12
ATOM     12  C   UNL     1      45.082   2.513   8.896  0.00  0.00    +0.000 C 
ATOM     13  O   UNL     1      44.466   1.505   9.250  0.00  0.00    +0.000 OA
BRANCH  12  14
ATOM     14  C   UNL     1      46.049   2.390   7.765  0.00  0.00    +0.000 A 
ATOM     15  C   UNL     1      46.210   3.339   6.752  0.00  0.00    +0.000 A 
ATOM     16  C   UNL     1      47.106   3.094   5.710  0.00  0.00    +0.000 A 
ATOM     17  C   UNL     1      47.845   1.923   5.730  0.00  0.00    +0.000 A 
ATOM     18  N   UNL     1      47.741   0.999   6.707  0.00  0.00    +0.000 NA
ATOM     19  C   UNL     1      46.844   1.248   7.696  0.00  0.00    +0.000 A 
ENDBRANCH  12  14
ENDBRANCH   8  12
ENDBRANCH   7   8
ENDBRANCH   1   7
BRANCH   4  20
ATOM     20  C   UNL     1      48.368   6.757  14.492  0.00  0.00    +0.000 C 
BRANCH  20  21
ATOM     21  N   UNL     1      48.169   6.522  15.900  0.00  0.00    +0.000 N 
ATOM     22  C   UNL     1      49.194   6.091  16.704  0.00  0.00    +0.000 C 
ATOM     23  O   UNL     1      50.326   5.885  16.288  0.00  0.00    +0.000 OA
ATOM     24  H   UNL     1      47.213   6.379  16.206  0.00  0.00    +0.000 HD
BRANCH  22  25
ATOM     25  C   UNL     1      48.853   5.960  18.126  0.00  0.00    +0.000 A 
ATOM     26  C   UNL     1      49.095   4.766  18.789  0.00  0.00    +0.000 A 
ATOM     27  S   UNL     1      48.700   4.820  20.448  0.00  0.00    +0.000 S 
ATOM     28  C   UNL     1      48.138   6.423  20.321  0.00  0.00    +0.000 A 
ATOM     29  N   UNL     1      47.614   7.070  21.397  0.00  0.00    +0.000 NA
ATOM     30  C   UNL     1      47.210   8.269  21.153  0.00  0.00    +0.000 A 
ATOM     31  N   UNL     1      47.273   8.884  19.928  0.00  0.00    +0.000 N 
ATOM     32  C   UNL     1      47.833   8.287  18.824  0.00  0.00    +0.000 A 
ATOM     33  O   UNL     1      47.956   8.896  17.770  0.00  0.00    +0.000 OA
ATOM     34  C   UNL     1      48.279   6.921  19.040  0.00  0.00    +0.000 A 
ATOM     35  H   UNL     1      46.947   9.830  19.804  0.00  0.00    +0.000 HD
ENDBRANCH  22  25
ENDBRANCH  20  21
ENDBRANCH   4  20
TORSDOF 8
ENDMDL
MODEL 3
REMARK VINA RESULT:    -7.826      2.391      3.036
REMARK INTER + INTRA:         -12.182
REMARK INTER:                 -10.872
REMARK INTRA:                  -1.310
REMARK UNBOUND:                -0.924
REMARK  Name = 
REMARK  8 active torsions:
REMARK  status: ('A' for Active; 'I' for Inactive)
REMARK    1  A    between atoms: N_1  and  C_2
REMARK    2  A    between atoms: C_2  and  C_3
REMARK    3  A    between atoms: C_2  and  C_24
REMARK    4  A    between atoms: C_3  and  C_4
REMARK    5  A    between atoms: C_7  and  C_8
REMARK    6  A    between atoms: C_8  and  N_9
REMARK    7  A    between atoms: C_10  and  C_12
REMARK    8  A    between atoms: C_24  and  C_26
REMARK                            x       y       z     vdW  Elec       q    Type
REMARK                         _______ _______ _______ _____ _____    ______ ____
ROOT
ATOM      1  C   UNL     1      45.301   6.115  12.864  0.00  0.00    +0.000 A 
ATOM      2  C   UNL     1      46.438   5.359  13.166  0.00  0.00    +0.000 A 
ATOM      3  C   UNL     1      47.715   5.922  13.080  0.00  0.00    +0.000 A 
ATOM      4  C   UNL     1      47.875   7.267  12.717  0.00  0.00    +0.000 A 
ATOM      5  C   UNL     1      46.736   8.025  12.422  0.00  0.00    +0.000 A 
ATOM      6  C   UNL     1      45.460   7.460  12.504  0.00  0.00    +0.000 A 
ENDROOT
BRANCH   1   7
ATOM      7  C   UNL     1      43.945   5.448  12.816  0.00  0.00    +0.000 C 
BRANCH   7   8
ATOM      8  C   UNL     1      43.312   5.162  11.444  0.00  0.00    +0.000 C 
BRANCH   8   9
ATOM      9  N   UNL     1      41.852   5.392  11.456  0.00  0.00    +0.000 NA
ATOM     10  H   UNL     1      41.383   4.632  10.967  0.00  0.00    +0.000 HD
ATOM     11  H   UNL     1      41.675   6.236  10.904  0.00  0.00    +0.000 HD
ENDBRANCH   8   9
BRANCH   8  12
ATOM     12  C   UNL     1      43.603   3.739  10.926  0.00  0.00    +0.000 C 
ATOM     13  O   UNL     1      43.096   2.742  11.444  0.00  0.00    +0.000 OA
BRANCH  12  14
ATOM     14  C   UNL     1      44.532   3.542   9.774  0.00  0.00    +0.000 A 
ATOM     15  C   UNL     1      44.882   2.298   9.242  0.00  0.00    +0.000 A 
ATOM     16  C   UNL     1      45.807   2.227   8.198  0.00  0.00    +0.000 A 
ATOM     17  C   UNL     1      46.327   3.405   7.690  0.00  0.00    +0.000 A 
ATOM     18  N   UNL     1      45.989   4.625   8.155  0.00  0.00    +0.000 NA
ATOM     19  C   UNL     1      45.107   4.666   9.188  0.00  0.00    +0.000 A 
ENDBRANCH  12  14
ENDBRANCH   8  12
ENDBRANCH   7   8
ENDBRANCH   1   7
BRANCH   4  20
ATOM     20  C   UNL     1      49.234   7.906  12.620  0.00  0.00    +0.000 C 
BRANCH  20  21
ATOM     21  N   UNL     1      50.158   7.342  13.571  0.00  0.00    +0.000 N 
ATOM     22  C   UNL     1      50.376   7.931  14.791  0.00  0.00    +0.000 C 
ATOM     23  O   UNL     1      49.808   8.953  15.149  0.00  0.00    +0.000 OA
ATOM     24  H   UNL     1      50.856   6.705  13.203  0.00  0.00    +0.000 HD
BRANCH  22  25
ATOM     25  C   UNL     1      51.296   7.203  15.674  0.00  0.00    +0.000 A 
ATOM     26  C   UNL     1      52.654   7.483  15.642  0.00  0.00    +0.000 A 
ATOM     27  S   UNL     1      53.557   6.591  16.782  0.00  0.00    +0.000 S 
ATOM     28  C   UNL     1      52.169   5.760  17.317  0.00  0.00    +0.000 A 
ATOM     29  N   UNL     1      52.253   4.801  18.277  0.00  0.00    +0.000 NA
ATOM     30  C   UNL     1      51.130   4.240  18.569  0.00  0.00    +0.000 A 
ATOM     31  N   UNL     1      49.927   4.543  17.986  0.00  0.00    +0.000 N 
ATOM     32  C   UNL     1      49.786   5.535  17.044  0.00  0.00    +0.000 A 
ATOM     33  O   UNL     1      48.684   5.842  16.609  0.00  0.00    +0.000 OA
ATOM     34  C   UNL     1      51.029   6.179  16.658  0.00  0.00    +0.000 A 
ATOM     35  H   UNL     1      49.079   4.073  18.265  0.00  0.00    +0.000 HD
ENDBRANCH  22  25
ENDBRANCH  20  21
ENDBRANCH   4  20
TORSDOF 8
ENDMDL
MODEL 4
REMARK VINA RESULT:    -7.715      3.204      3.996
REMARK INTER + INTRA:         -12.023
REMARK INTER:                 -10.809
REMARK INTRA:                  -1.214
REMARK UNBOUND:                -0.924
REMARK  Name = 
REMARK  8 active torsions:
REMARK  status: ('A' for Active; 'I' for Inactive)
REMARK    1  A    between atoms: N_1  and  C_2
REMARK    2  A    between atoms: C_2  and  C_3
REMARK    3  A    between atoms: C_2  and  C_24
REMARK    4  A    between atoms: C_3  and  C_4
REMARK    5  A    between atoms: C_7  and  C_8
REMARK    6  A    between atoms: C_8  and  N_9
REMARK    7  A    between atoms: C_10  and  C_12
REMARK    8  A    between atoms: C_24  and  C_26
REMARK                            x       y       z     vdW  Elec       q    Type
REMARK                         _______ _______ _______ _____ _____    ______ ____
ROOT
ATOM      1  C   UNL     1      46.835   4.960  14.045  0.00  0.00    +0.000 A 
ATOM      2  C   UNL     1      46.886   4.276  15.264  0.00  0.00    +0.000 A 
ATOM      3  C   UNL     1      47.715   4.718  16.299  0.00  0.00    +0.000 A 
ATOM      4  C   UNL     1      48.489   5.877  16.143  0.00  0.00    +0.000 A 
ATOM      5  C   UNL     1      48.432   6.566  14.926  0.00  0.00    +0.000 A 
ATOM      6  C   UNL     1      47.606   6.120  13.890  0.00  0.00    +0.000 A 
ENDROOT
BRANCH   1   7
ATOM      7  C   UNL     1      46.051   4.382  12.890  0.00  0.00    +0.000 C 
BRANCH   7   8
ATOM      8  C   UNL     1      44.974   5.253  12.219  0.00  0.00    +0.000 C 
BRANCH   8   9
ATOM      9  N   UNL     1      44.049   5.839  13.211  0.00  0.00    +0.000 NA
ATOM     10  H   UNL     1      44.263   6.826  13.337  0.00  0.00    +0.000 HD
ATOM     11  H   UNL     1      44.247   5.390  14.111  0.00  0.00    +0.000 HD
ENDBRANCH   8   9
BRANCH   8  12
ATOM     12  C   UNL     1      44.166   4.499  11.145  0.00  0.00    +0.000 C 
ATOM     13  O   UNL     1      42.946   4.342  11.239  0.00  0.00    +0.000 OA
BRANCH  12  14
ATOM     14  C   UNL     1      44.863   3.924   9.956  0.00  0.00    +0.000 A 
ATOM     15  C   UNL     1      45.511   4.679   8.975  0.00  0.00    +0.000 A 
ATOM     16  C   UNL     1      46.082   4.038   7.874  0.00  0.00    +0.000 A 
ATOM     17  C   UNL     1      46.021   2.657   7.803  0.00  0.00    +0.000 A 
ATOM     18  N   UNL     1      45.433   1.893   8.746  0.00  0.00    +0.000 NA
ATOM     19  C   UNL     1      44.863   2.541   9.795  0.00  0.00    +0.000 A 
ENDBRANCH  12  14
ENDBRANCH   8  12
ENDBRANCH   7   8
ENDBRANCH   1   7
BRANCH   4  20
ATOM     20  C   UNL     1      49.387   6.384  17.239  0.00  0.00    +0.000 C 
BRANCH  20  21
ATOM     21  N   UNL     1      50.334   5.383  17.660  0.00  0.00    +0.000 N 
ATOM     22  C   UNL     1      51.632   5.395  17.217  0.00  0.00    +0.000 C 
ATOM     23  O   UNL     1      52.067   6.246  16.452  0.00  0.00    +0.000 OA
ATOM     24  H   UNL     1      49.948   4.517  18.022  0.00  0.00    +0.000 HD
BRANCH  22  25
ATOM     25  C   UNL     1      52.491   4.349  17.785  0.00  0.00    +0.000 A 
ATOM     26  C   UNL     1      53.670   4.695  18.430  0.00  0.00    +0.000 A 
ATOM     27  S   UNL     1      54.502   3.357  19.085  0.00  0.00    +0.000 S 
ATOM     28  C   UNL     1      53.343   2.266  18.477  0.00  0.00    +0.000 A 
ATOM     29  N   UNL     1      53.481   0.925  18.656  0.00  0.00    +0.000 NA
ATOM     30  C   UNL     1      52.543   0.218  18.127  0.00  0.00    +0.000 A 
ATOM     31  N   UNL     1      51.478   0.725  17.427  0.00  0.00    +0.000 N 
ATOM     32  C   UNL     1      51.273   2.073  17.259  0.00  0.00    +0.000 A 
ATOM     33  O   UNL     1      50.266   2.496  16.707  0.00  0.00    +0.000 OA
ATOM     34  C   UNL     1      52.320   2.915  17.813  0.00  0.00    +0.000 A 
ATOM     35  H   UNL     1      50.770   0.117  17.044  0.00  0.00    +0.000 HD
ENDBRANCH  22  25
ENDBRANCH  20  21
ENDBRANCH   4  20
TORSDOF 8
ENDMDL
MODEL 5
REMARK VINA RESULT:    -7.479      2.014      2.501
REMARK INTER + INTRA:         -11.682
REMARK INTER:                 -10.604
REMARK INTRA:                  -1.078
REMARK UNBOUND:                -0.924
REMARK  Name = 
REMARK  8 active torsions:
REMARK  status: ('A' for Active; 'I' for Inactive)
REMARK    1  A    between atoms: N_1  and  C_2
REMARK    2  A    between atoms: C_2  and  C_3
REMARK    3  A    between atoms: C_2  and  C_24
REMARK    4  A    between atoms: C_3  and  C_4
REMARK    5  A    between atoms: C_7  and  C_8
REMARK    6  A    between atoms: C_8  and  N_9
REMARK    7  A    between atoms: C_10  and  C_12
REMARK    8  A    between atoms: C_24  and  C_26
REMARK                            x       y       z     vdW  Elec       q    Type
REMARK                         _______ _______ _______ _____ _____    ______ ____
ROOT
ATOM      1  C   UNL     1      45.808   4.888  11.964  0.00  0.00    +0.000 A 
ATOM      2  C   UNL     1      46.103   6.156  11.454  0.00  0.00    +0.000 A 
ATOM      3  C   UNL     1      46.877   7.060  12.187  0.00  0.00    +0.000 A 
ATOM      4  C   UNL     1      47.397   6.698  13.439  0.00  0.00    +0.000 A 
ATOM      5  C   UNL     1      47.107   5.426  13.945  0.00  0.00    +0.000 A 
ATOM      6  C   UNL     1      46.329   4.524  13.213  0.00  0.00    +0.000 A 
ENDROOT
BRANCH   1   7
ATOM      7  C   UNL     1      44.847   3.985  11.225  0.00  0.00    +0.000 C 
BRANCH   7   8
ATOM      8  C   UNL     1      44.836   4.020   9.687  0.00  0.00    +0.000 C 
BRANCH   8   9
ATOM      9  N   UNL     1      43.613   4.661   9.163  0.00  0.00    +0.000 NA
ATOM     10  H   UNL     1      42.972   3.947   8.822  0.00  0.00    +0.000 HD
ATOM     11  H   UNL     1      43.888   5.210   8.342  0.00  0.00    +0.000 HD
ENDBRANCH   8   9
BRANCH   8  12
ATOM     12  C   UNL     1      45.000   2.626   9.048  0.00  0.00    +0.000 C 
ATOM     13  O   UNL     1      44.368   1.647   9.451  0.00  0.00    +0.000 OA
BRANCH  12  14
ATOM     14  C   UNL     1      45.953   2.434   7.915  0.00  0.00    +0.000 A 
ATOM     15  C   UNL     1      46.229   3.395   6.939  0.00  0.00    +0.000 A 
ATOM     16  C   UNL     1      47.098   3.087   5.890  0.00  0.00    +0.000 A 
ATOM     17  C   UNL     1      47.695   1.838   5.867  0.00  0.00    +0.000 A 
ATOM     18  N   UNL     1      47.479   0.897   6.808  0.00  0.00    +0.000 NA
ATOM     19  C   UNL     1      46.610   1.211   7.804  0.00  0.00    +0.000 A 
ENDBRANCH  12  14
ENDBRANCH   8  12
ENDBRANCH   7   8
ENDBRANCH   1   7
BRANCH   4  20
ATOM     20  C   UNL     1      48.239   7.644  14.252  0.00  0.00    +0.000 C 
BRANCH  20  21
ATOM     21  N   UNL     1      49.395   6.988  14.806  0.00  0.00    +0.000 N 
ATOM     22  C   UNL     1      50.166   7.590  15.768  0.00  0.00    +0.000 C 
ATOM     23  O   UNL     1      49.925   8.703  16.215  0.00  0.00    +0.000 OA
ATOM     24  H   UNL     1      49.796   6.235  14.258  0.00  0.00    +0.000 HD
BRANCH  22  25
ATOM     25  C   UNL     1      51.271   6.770  16.280  0.00  0.00    +0.000 A 
ATOM     26  C   UNL     1      52.582   7.191  16.112  0.00  0.00    +0.000 A 
ATOM     27  S   UNL     1      53.726   6.149  16.829  0.00  0.00    +0.000 S 
ATOM     28  C   UNL     1      52.509   5.070  17.338  0.00  0.00    +0.000 A 
ATOM     29  N   UNL     1      52.822   3.919  17.992  0.00  0.00    +0.000 NA
ATOM     30  C   UNL     1      51.805   3.189  18.299  0.00  0.00    +0.000 A 
ATOM     31  N   UNL     1      50.501   3.496  18.007  0.00  0.00    +0.000 N 
ATOM     32  C   UNL     1      50.135   4.667  17.388  0.00  0.00    +0.000 A 
ATOM     33  O   UNL     1      48.956   4.953  17.222  0.00  0.00    +0.000 OA
ATOM     34  C   UNL     1      51.247   5.514  16.994  0.00  0.00    +0.000 A 
ATOM     35  H   UNL     1      49.748   2.885  18.283  0.00  0.00    +0.000 HD
ENDBRANCH  22  25
ENDBRANCH  20  21
ENDBRANCH   4  20
TORSDOF 8
ENDMDL
MODEL 6
REMARK VINA RESULT:    -7.318      4.226     10.410
REMARK INTER + INTRA:         -11.450
REMARK INTER:                  -9.714
REMARK INTRA:                  -1.736
REMARK UNBOUND:                -0.924
REMARK  Name = 
REMARK  8 active torsions:
REMARK  status: ('A' for Active; 'I' for Inactive)
REMARK    1  A    between atoms: N_1  and  C_2
REMARK    2  A    between atoms: C_2  and  C_3
REMARK    3  A    between atoms: C_2  and  C_24
REMARK    4  A    between atoms: C_3  and  C_4
REMARK    5  A    between atoms: C_7  and  C_8
REMARK    6  A    between atoms: C_8  and  N_9
REMARK    7  A    between atoms: C_10  and  C_12
REMARK    8  A    between atoms: C_24  and  C_26
REMARK                            x       y       z     vdW  Elec       q    Type
REMARK                         _______ _______ _______ _____ _____    ______ ____
ROOT
ATOM      1  C   UNL     1      51.348   4.659  17.805  0.00  0.00    +0.000 A 
ATOM      2  C   UNL     1      50.968   3.313  17.778  0.00  0.00    +0.000 A 
ATOM      3  C   UNL     1      49.677   2.942  17.393  0.00  0.00    +0.000 A 
ATOM      4  C   UNL     1      48.746   3.913  16.996  0.00  0.00    +0.000 A 
ATOM      5  C   UNL     1      49.130   5.260  17.016  0.00  0.00    +0.000 A 
ATOM      6  C   UNL     1      50.420   5.630  17.405  0.00  0.00    +0.000 A 
ENDROOT
BRANCH   1   7
ATOM      7  C   UNL     1      52.695   5.050  18.367  0.00  0.00    +0.000 C 
BRANCH   7   8
ATOM      8  C   UNL     1      52.743   5.828  19.694  0.00  0.00    +0.000 C 
BRANCH   8   9
ATOM      9  N   UNL     1      54.127   5.980  20.189  0.00  0.00    +0.000 NA
ATOM     10  H   UNL     1      54.137   6.616  20.984  0.00  0.00    +0.000 HD
ATOM     11  H   UNL     1      54.664   6.442  19.449  0.00  0.00    +0.000 HD
ENDBRANCH   8   9
BRANCH   8  12
ATOM     12  C   UNL     1      51.868   5.201  20.797  0.00  0.00    +0.000 C 
ATOM     13  O   UNL     1      52.294   4.311  21.537  0.00  0.00    +0.000 OA
BRANCH  12  14
ATOM     14  C   UNL     1      50.461   5.662  20.984  0.00  0.00    +0.000 A 
ATOM     15  C   UNL     1      49.346   4.820  20.996  0.00  0.00    +0.000 A 
ATOM     16  C   UNL     1      48.067   5.366  21.121  0.00  0.00    +0.000 A 
ATOM     17  C   UNL     1      47.941   6.737  21.267  0.00  0.00    +0.000 A 
ATOM     18  N   UNL     1      48.995   7.579  21.293  0.00  0.00    +0.000 NA
ATOM     19  C   UNL     1      50.227   7.025  21.144  0.00  0.00    +0.000 A 
ENDBRANCH  12  14
ENDBRANCH   8  12
ENDBRANCH   7   8
ENDBRANCH   1   7
BRANCH   4  20
ATOM     20  C   UNL     1      47.350   3.548  16.570  0.00  0.00    +0.000 C 
BRANCH  20  21
ATOM     21  N   UNL     1      46.813   4.498  15.630  0.00  0.00    +0.000 N 
ATOM     22  C   UNL     1      46.758   4.223  14.287  0.00  0.00    +0.000 C 
ATOM     23  O   UNL     1      47.152   3.169  13.807  0.00  0.00    +0.000 OA
ATOM     24  H   UNL     1      46.775   5.465  15.933  0.00  0.00    +0.000 HD
BRANCH  22  25
ATOM     25  C   UNL     1      46.125   5.262  13.467  0.00  0.00    +0.000 A 
ATOM     26  C   UNL     1      46.791   6.456  13.225  0.00  0.00    +0.000 A 
ATOM     27  S   UNL     1      45.933   7.514  12.199  0.00  0.00    +0.000 S 
ATOM     28  C   UNL     1      44.618   6.436  12.090  0.00  0.00    +0.000 A 
ATOM     29  N   UNL     1      43.506   6.758  11.377  0.00  0.00    +0.000 NA
ATOM     30  C   UNL     1      42.583   5.859  11.397  0.00  0.00    +0.000 A 
ATOM     31  N   UNL     1      42.662   4.667  12.072  0.00  0.00    +0.000 N 
ATOM     32  C   UNL     1      43.783   4.281  12.768  0.00  0.00    +0.000 A 
ATOM     33  O   UNL     1      43.856   3.173  13.283  0.00  0.00    +0.000 OA
ATOM     34  C   UNL     1      44.844   5.273  12.799  0.00  0.00    +0.000 A 
ATOM     35  H   UNL     1      41.907   4.000  12.041  0.00  0.00    +0.000 HD
ENDBRANCH  22  25
ENDBRANCH  20  21
ENDBRANCH   4  20
TORSDOF 8
ENDMDL
MODEL 7
REMARK VINA RESULT:    -7.294      4.294      9.855
REMARK INTER + INTRA:         -11.416
REMARK INTER:                  -9.780
REMARK INTRA:                  -1.636
REMARK UNBOUND:                -0.924
REMARK  Name = 
REMARK  8 active torsions:
REMARK  status: ('A' for Active; 'I' for Inactive)
REMARK    1  A    between atoms: N_1  and  C_2
REMARK    2  A    between atoms: C_2  and  C_3
REMARK    3  A    between atoms: C_2  and  C_24
REMARK    4  A    between atoms: C_3  and  C_4
REMARK    5  A    between atoms: C_7  and  C_8
REMARK    6  A    between atoms: C_8  and  N_9
REMARK    7  A    between atoms: C_10  and  C_12
REMARK    8  A    between atoms: C_24  and  C_26
REMARK                            x       y       z     vdW  Elec       q    Type
REMARK                         _______ _______ _______ _____ _____    ______ ____
ROOT
ATOM      1  C   UNL     1      50.312   5.383  19.165  0.00  0.00    +0.000 A 
ATOM      2  C   UNL     1      50.169   5.802  17.838  0.00  0.00    +0.000 A 
ATOM      3  C   UNL     1      49.209   5.222  17.004  0.00  0.00    +0.000 A 
ATOM      4  C   UNL     1      48.350   4.227  17.494  0.00  0.00    +0.000 A 
ATOM      5  C   UNL     1      48.489   3.813  18.823  0.00  0.00    +0.000 A 
ATOM      6  C   UNL     1      49.452   4.391  19.655  0.00  0.00    +0.000 A 
ENDROOT
BRANCH   1   7
ATOM      7  C   UNL     1      51.452   5.913  20.003  0.00  0.00    +0.000 C 
BRANCH   7   8
ATOM      8  C   UNL     1      52.614   4.966  20.353  0.00  0.00    +0.000 C 
BRANCH   8   9
ATOM      9  N   UNL     1      53.569   5.595  21.289  0.00  0.00    +0.000 NA
ATOM     10  H   UNL     1      53.465   6.607  21.253  0.00  0.00    +0.000 HD
ATOM     11  H   UNL     1      54.511   5.395  20.938  0.00  0.00    +0.000 HD
ENDBRANCH   8   9
BRANCH   8  12
ATOM     12  C   UNL     1      53.372   4.453  19.113  0.00  0.00    +0.000 C 
ATOM     13  O   UNL     1      54.162   5.168  18.492  0.00  0.00    +0.000 OA
BRANCH  12  14
ATOM     14  C   UNL     1      53.149   3.059  18.627  0.00  0.00    +0.000 A 
ATOM     15  C   UNL     1      52.076   2.662  17.824  0.00  0.00    +0.000 A 
ATOM     16  C   UNL     1      51.934   1.317  17.475  0.00  0.00    +0.000 A 
ATOM     17  C   UNL     1      52.889   0.414  17.908  0.00  0.00    +0.000 A 
ATOM     18  N   UNL     1      53.954   0.764  18.656  0.00  0.00    +0.000 NA
ATOM     19  C   UNL     1      54.057   2.074  19.004  0.00  0.00    +0.000 A 
ENDBRANCH  12  14
ENDBRANCH   8  12
ENDBRANCH   7   8
ENDBRANCH   1   7
BRANCH   4  20
ATOM     20  C   UNL     1      47.302   3.586  16.624  0.00  0.00    +0.000 C 
BRANCH  20  21
ATOM     21  N   UNL     1      46.766   4.515  15.661  0.00  0.00    +0.000 N 
ATOM     22  C   UNL     1      46.802   4.248  14.316  0.00  0.00    +0.000 C 
ATOM     23  O   UNL     1      47.278   3.221  13.852  0.00  0.00    +0.000 OA
ATOM     24  H   UNL     1      46.659   5.475  15.968  0.00  0.00    +0.000 HD
BRANCH  22  25
ATOM     25  C   UNL     1      46.159   5.259  13.467  0.00  0.00    +0.000 A 
ATOM     26  C   UNL     1      46.815   6.450  13.192  0.00  0.00    +0.000 A 
ATOM     27  S   UNL     1      45.948   7.473  12.137  0.00  0.00    +0.000 S 
ATOM     28  C   UNL     1      44.642   6.381  12.059  0.00  0.00    +0.000 A 
ATOM     29  N   UNL     1      43.527   6.673  11.338  0.00  0.00    +0.000 NA
ATOM     30  C   UNL     1      42.611   5.767  11.384  0.00  0.00    +0.000 A 
ATOM     31  N   UNL     1      42.701   4.596  12.092  0.00  0.00    +0.000 N 
ATOM     32  C   UNL     1      43.825   4.239  12.798  0.00  0.00    +0.000 A 
ATOM     33  O   UNL     1      43.908   3.146  13.344  0.00  0.00    +0.000 OA
ATOM     34  C   UNL     1      44.878   5.240  12.801  0.00  0.00    +0.000 A 
ATOM     35  H   UNL     1      41.951   3.922  12.081  0.00  0.00    +0.000 HD
ENDBRANCH  22  25
ENDBRANCH  20  21
ENDBRANCH   4  20
TORSDOF 8
ENDMDL
MODEL 8
REMARK VINA RESULT:    -7.219      4.621      6.312
REMARK INTER + INTRA:         -11.309
REMARK INTER:                  -9.972
REMARK INTRA:                  -1.337
REMARK UNBOUND:                -0.924
REMARK  Name = 
REMARK  8 active torsions:
REMARK  status: ('A' for Active; 'I' for Inactive)
REMARK    1  A    between atoms: N_1  and  C_2
REMARK    2  A    between atoms: C_2  and  C_3
REMARK    3  A    between atoms: C_2  and  C_24
REMARK    4  A    between atoms: C_3  and  C_4
REMARK    5  A    between atoms: C_7  and  C_8
REMARK    6  A    between atoms: C_8  and  N_9
REMARK    7  A    between atoms: C_10  and  C_12
REMARK    8  A    between atoms: C_24  and  C_26
REMARK                            x       y       z     vdW  Elec       q    Type
REMARK                         _______ _______ _______ _____ _____    ______ ____
ROOT
ATOM      1  C   UNL     1      45.704   6.115  12.975  0.00  0.00    +0.000 A 
ATOM      2  C   UNL     1      47.001   6.170  13.496  0.00  0.00    +0.000 A 
ATOM      3  C   UNL     1      47.696   7.381  13.558  0.00  0.00    +0.000 A 
ATOM      4  C   UNL     1      47.092   8.570  13.125  0.00  0.00    +0.000 A 
ATOM      5  C   UNL     1      45.791   8.515  12.610  0.00  0.00    +0.000 A 
ATOM      6  C   UNL     1      45.098   7.303  12.545  0.00  0.00    +0.000 A 
ENDROOT
BRANCH   1   7
ATOM      7  C   UNL     1      45.029   4.777  12.777  0.00  0.00    +0.000 C 
BRANCH   7   8
ATOM      8  C   UNL     1      43.838   4.688  11.807  0.00  0.00    +0.000 C 
BRANCH   8   9
ATOM      9  N   UNL     1      42.546   4.790  12.516  0.00  0.00    +0.000 NA
ATOM     10  H   UNL     1      42.309   5.771  12.653  0.00  0.00    +0.000 HD
ATOM     11  H   UNL     1      42.684   4.399  13.452  0.00  0.00    +0.000 HD
ENDBRANCH   8   9
BRANCH   8  12
ATOM     12  C   UNL     1      43.851   3.410  10.945  0.00  0.00    +0.000 C 
ATOM     13  O   UNL     1      43.174   2.422  11.237  0.00  0.00    +0.000 OA
BRANCH  12  14
ATOM     14  C   UNL     1      44.712   3.342   9.727  0.00  0.00    +0.000 A 
ATOM     15  C   UNL     1      45.147   2.156   9.129  0.00  0.00    +0.000 A 
ATOM     16  C   UNL     1      45.998   2.211   8.023  0.00  0.00    +0.000 A 
ATOM     17  C   UNL     1      46.359   3.450   7.523  0.00  0.00    +0.000 A 
ATOM     18  N   UNL     1      45.933   4.615   8.053  0.00  0.00    +0.000 NA
ATOM     19  C   UNL     1      45.127   4.536   9.144  0.00  0.00    +0.000 A 
ENDBRANCH  12  14
ENDBRANCH   8  12
ENDBRANCH   7   8
ENDBRANCH   1   7
BRANCH   4  20
ATOM     20  C   UNL     1      47.810   9.892  13.183  0.00  0.00    +0.000 C 
BRANCH  20  21
ATOM     21  N   UNL     1      49.124   9.812  12.597  0.00  0.00    +0.000 N 
ATOM     22  C   UNL     1      49.396  10.369  11.373  0.00  0.00    +0.000 C 
ATOM     23  O   UNL     1      48.557  10.965  10.711  0.00  0.00    +0.000 OA
ATOM     24  H   UNL     1      49.735   9.083  12.950  0.00  0.00    +0.000 HD
BRANCH  22  25
ATOM     25  C   UNL     1      50.794  10.261  10.940  0.00  0.00    +0.000 A 
ATOM     26  C   UNL     1      51.525  11.409  10.667  0.00  0.00    +0.000 A 
ATOM     27  S   UNL     1      53.148  11.094  10.244  0.00  0.00    +0.000 S 
ATOM     28  C   UNL     1      52.911   9.411  10.357  0.00  0.00    +0.000 A 
ATOM     29  N   UNL     1      53.918   8.541  10.075  0.00  0.00    +0.000 NA
ATOM     30  C   UNL     1      53.593   7.298  10.182  0.00  0.00    +0.000 A 
ATOM     31  N   UNL     1      52.351   6.840  10.538  0.00  0.00    +0.000 N 
ATOM     32  C   UNL     1      51.316   7.680  10.874  0.00  0.00    +0.000 A 
ATOM     33  O   UNL     1      50.247   7.238  11.274  0.00  0.00    +0.000 OA
ATOM     34  C   UNL     1      51.622   9.094  10.743  0.00  0.00    +0.000 A 
ATOM     35  H   UNL     1      52.162   5.852  10.612  0.00  0.00    +0.000 HD
ENDBRANCH  22  25
ENDBRANCH  20  21
ENDBRANCH   4  20
TORSDOF 8
ENDMDL
MODEL 9
REMARK VINA RESULT:    -7.193      3.065      9.089
REMARK INTER + INTRA:         -11.272
REMARK INTER:                  -9.448
REMARK INTRA:                  -1.824
REMARK UNBOUND:                -0.924
REMARK  Name = 
REMARK  8 active torsions:
REMARK  status: ('A' for Active; 'I' for Inactive)
REMARK    1  A    between atoms: N_1  and  C_2
REMARK    2  A    between atoms: C_2  and  C_3
REMARK    3  A    between atoms: C_2  and  C_24
REMARK    4  A    between atoms: C_3  and  C_4
REMARK    5  A    between atoms: C_7  and  C_8
REMARK    6  A    between atoms: C_8  and  N_9
REMARK    7  A    between atoms: C_10  and  C_12
REMARK    8  A    between atoms: C_24  and  C_26
REMARK                            x       y       z     vdW  Elec       q    Type
REMARK                         _______ _______ _______ _____ _____    ______ ____
ROOT
ATOM      1  C   UNL     1      49.389   8.238  15.961  0.00  0.00    +0.000 A 
ATOM      2  C   UNL     1      49.974   7.378  15.026  0.00  0.00    +0.000 A 
ATOM      3  C   UNL     1      49.435   7.243  13.743  0.00  0.00    +0.000 A 
ATOM      4  C   UNL     1      48.313   7.993  13.361  0.00  0.00    +0.000 A 
ATOM      5  C   UNL     1      47.733   8.859  14.295  0.00  0.00    +0.000 A 
ATOM      6  C   UNL     1      48.270   8.990  15.579  0.00  0.00    +0.000 A 
ENDROOT
BRANCH   1   7
ATOM      7  C   UNL     1      49.894   8.256  17.386  0.00  0.00    +0.000 C 
BRANCH   7   8
ATOM      8  C   UNL     1      49.122   7.459  18.452  0.00  0.00    +0.000 C 
BRANCH   8   9
ATOM      9  N   UNL     1      49.127   8.148  19.760  0.00  0.00    +0.000 NA
ATOM     10  H   UNL     1      49.023   7.463  20.506  0.00  0.00    +0.000 HD
ATOM     11  H   UNL     1      48.289   8.735  19.795  0.00  0.00    +0.000 HD
ENDBRANCH   8   9
BRANCH   8  12
ATOM     12  C   UNL     1      49.642   6.019  18.628  0.00  0.00    +0.000 C 
ATOM     13  O   UNL     1      50.497   5.734  19.470  0.00  0.00    +0.000 OA
BRANCH  12  14
ATOM     14  C   UNL     1      49.117   4.926  17.756  0.00  0.00    +0.000 A 
ATOM     15  C   UNL     1      47.898   4.972  17.074  0.00  0.00    +0.000 A 
ATOM     16  C   UNL     1      47.478   3.867  16.331  0.00  0.00    +0.000 A 
ATOM     17  C   UNL     1      48.308   2.761  16.259  0.00  0.00    +0.000 A 
ATOM     18  N   UNL     1      49.505   2.692  16.876  0.00  0.00    +0.000 NA
ATOM     19  C   UNL     1      49.879   3.770  17.614  0.00  0.00    +0.000 A 
ENDBRANCH  12  14
ENDBRANCH   8  12
ENDBRANCH   7   8
ENDBRANCH   1   7
BRANCH   4  20
ATOM     20  C   UNL     1      47.712   7.876  11.987  0.00  0.00    +0.000 C 
BRANCH  20  21
ATOM     21  N   UNL     1      46.973   6.649  11.830  0.00  0.00    +0.000 N 
ATOM     22  C   UNL     1      45.641   6.570  12.151  0.00  0.00    +0.000 C 
ATOM     23  O   UNL     1      45.002   7.521  12.581  0.00  0.00    +0.000 OA
ATOM     24  H   UNL     1      47.517   5.794  11.783  0.00  0.00    +0.000 HD
BRANCH  22  25
ATOM     25  C   UNL     1      45.013   5.273  11.875  0.00  0.00    +0.000 A 
ATOM     26  C   UNL     1      44.312   4.616  12.876  0.00  0.00    +0.000 A 
ATOM     27  S   UNL     1      43.594   3.158  12.356  0.00  0.00    +0.000 S 
ATOM     28  C   UNL     1      44.245   3.329  10.790  0.00  0.00    +0.000 A 
ATOM     29  N   UNL     1      44.038   2.381   9.838  0.00  0.00    +0.000 NA
ATOM     30  C   UNL     1      44.606   2.629   8.708  0.00  0.00    +0.000 A 
ATOM     31  N   UNL     1      45.369   3.736   8.439  0.00  0.00    +0.000 N 
ATOM     32  C   UNL     1      45.568   4.742   9.355  0.00  0.00    +0.000 A 
ATOM     33  O   UNL     1      46.179   5.759   9.055  0.00  0.00    +0.000 OA
ATOM     34  C   UNL     1      44.972   4.496  10.657  0.00  0.00    +0.000 A 
ATOM     35  H   UNL     1      45.779   3.877   7.529  0.00  0.00    +0.000 HD
ENDBRANCH  22  25
ENDBRANCH  20  21
ENDBRANCH   4  20
TORSDOF 8
ENDMDL
