MODEL 1
REMARK VINA RESULT:    -7.581      0.000      0.000
REMARK INTER + INTRA:         -10.964
REMARK INTER:                  -9.797
REMARK INTRA:                  -1.168
REMARK UNBOUND:                -1.168
REMARK  Name = 
REMARK  6 active torsions:
REMARK  status: ('A' for Active; 'I' for Inactive)
REMARK    1  A    between atoms: C_1  and  N_2
REMARK    2  A    between atoms: N_2  and  C_3
REMARK    3  A    between atoms: C_3  and  C_4
REMARK    4  A    between atoms: C_7  and  C_8
REMARK    5  A    between atoms: C_8  and  N_9
REMARK    6  A    between atoms: C_18  and  C_20
REMARK                            x       y       z     vdW  Elec       q    Type
REMARK                         _______ _______ _______ _____ _____    ______ ____
ROOT
ATOM      1  C   UNL     1      47.239   7.984  13.662  0.00  0.00    +0.000 C 
ENDROOT
BRANCH   1   2
ATOM      2  C   UNL     1      46.316   7.069  12.914  0.00  0.00    +0.000 A 
ATOM      3  C   UNL     1      46.535   5.688  12.903  0.00  0.00    +0.000 A 
ATOM      4  C   UNL     1      45.737   4.864  12.119  0.00  0.00    +0.000 A 
ATOM      5  C   UNL     1      44.717   5.443  11.371  0.00  0.00    +0.000 A 
ATOM      6  N   UNL     1      44.472   6.779  11.386  0.00  0.00    +0.000 NA
ATOM      7  C   UNL     1      45.269   7.559  12.148  0.00  0.00    +0.000 A 
BRANCH   5   8
ATOM      8  C   UNL     1      43.836   4.578  10.495  0.00  0.00    +0.000 C 
BRANCH   8   9
ATOM      9  N   UNL     1      44.241   4.646   9.102  0.00  0.00    +0.000 N 
ATOM     10  C   UNL     1      45.106   3.709   8.573  0.00  0.00    +0.000 A 
ATOM     11  C   UNL     1      45.168   2.403   9.018  0.00  0.00    +0.000 A 
ATOM     12  C   UNL     1      46.038   1.561   8.365  0.00  0.00    +0.000 A 
ATOM     13  N   UNL     1      46.796   1.942   7.327  0.00  0.00    +0.000 NA
ATOM     14  C   UNL     1      46.651   3.222   6.958  0.00  0.00    +0.000 A 
ATOM     15  N   UNL     1      45.851   4.131   7.541  0.00  0.00    +0.000 NA
ATOM     16  H   UNL     1      44.448   5.564   8.724  0.00  0.00    +0.000 HD
ENDBRANCH   8   9
ENDBRANCH   5   8
ENDBRANCH   1   2
BRANCH   1  18
ATOM     17  C   UNL     1      49.477   8.010  12.489  0.00  0.00    +0.000 C 
ATOM     18  N   UNL     1      48.665   7.672  13.654  0.00  0.00    +0.000 N 
ATOM     19  C   UNL     1      49.397   7.366  14.813  0.00  0.00    +0.000 C 
ATOM     20  O   UNL     1      50.578   7.035  14.743  0.00  0.00    +0.000 OA
BRANCH  19  21
ATOM     21  C   UNL     1      48.803   7.575  16.151  0.00  0.00    +0.000 A 
ATOM     22  C   UNL     1      48.685   8.800  16.790  0.00  0.00    +0.000 A 
ATOM     23  S   UNL     1      48.247   8.685  18.436  0.00  0.00    +0.000 S 
ATOM     24  C   UNL     1      48.258   6.988  18.367  0.00  0.00    +0.000 A 
ATOM     25  N   UNL     1      48.101   6.242  19.490  0.00  0.00    +0.000 NA
ATOM     26  C   UNL     1      48.124   4.968  19.283  0.00  0.00    +0.000 A 
ATOM     27  N   UNL     1      48.242   4.377  18.050  0.00  0.00    +0.000 N 
ATOM     28  C   UNL     1      48.320   5.094  16.875  0.00  0.00    +0.000 A 
ATOM     29  O   UNL     1      48.201   4.550  15.783  0.00  0.00    +0.000 OA
ATOM     30  C   UNL     1      48.444   6.526  17.075  0.00  0.00    +0.000 A 
ATOM     31  H   UNL     1      48.149   3.377  17.949  0.00  0.00    +0.000 HD
ENDBRANCH  19  21
ENDBRANCH   1  18
TORSDOF 5
ENDMDL
MODEL 2
REMARK VINA RESULT:    -7.336      2.129      2.616
REMARK INTER + INTRA:         -10.648
REMARK INTER:                  -9.473
REMARK INTRA:                  -1.175
REMARK UNBOUND:                -1.168
REMARK  Name = 
REMARK  6 active torsions:
REMARK  status: ('A' for Active; 'I' for Inactive)
REMARK    1  A    between atoms: C_1  and  N_2
REMARK    2  A    between atoms: N_2  and  C_3
REMARK    3  A    between atoms: C_3  and  C_4
REMARK    4  A    between atoms: C_7  and  C_8
REMARK    5  A    between atoms: C_8  and  N_9
REMARK    6  A    between atoms: C_18  and  C_20
REMARK                            x       y       z     vdW  Elec       q    Type
REMARK                         _______ _______ _______ _____ _____    ______ ____
ROOT
ATOM      1  C   UNL     1      48.771   6.804  13.866  0.00  0.00    +0.000 C 
ENDROOT
BRANCH   1   2
ATOM      2  C   UNL     1      47.545   6.331  13.144  0.00  0.00    +0.000 A 
ATOM      3  C   UNL     1      46.775   5.283  13.659  0.00  0.00    +0.000 A 
ATOM      4  C   UNL     1      45.705   4.783  12.927  0.00  0.00    +0.000 A 
ATOM      5  C   UNL     1      45.416   5.358  11.695  0.00  0.00    +0.000 A 
ATOM      6  N   UNL     1      46.136   6.392  11.186  0.00  0.00    +0.000 NA
ATOM      7  C   UNL     1      47.178   6.852  11.913  0.00  0.00    +0.000 A 
BRANCH   5   8
ATOM      8  C   UNL     1      44.266   4.829  10.863  0.00  0.00    +0.000 C 
BRANCH   8   9
ATOM      9  N   UNL     1      44.552   4.917   9.442  0.00  0.00    +0.000 N 
ATOM     10  C   UNL     1      45.253   3.915   8.802  0.00  0.00    +0.000 A 
ATOM     11  C   UNL     1      45.202   2.590   9.191  0.00  0.00    +0.000 A 
ATOM     12  C   UNL     1      45.908   1.688   8.430  0.00  0.00    +0.000 A 
ATOM     13  N   UNL     1      46.611   2.030   7.341  0.00  0.00    +0.000 NA
ATOM     14  C   UNL     1      46.583   3.334   7.035  0.00  0.00    +0.000 A 
ATOM     15  N   UNL     1      45.949   4.299   7.722  0.00  0.00    +0.000 NA
ATOM     16  H   UNL     1      44.830   5.823   9.081  0.00  0.00    +0.000 HD
ENDBRANCH   8   9
ENDBRANCH   5   8
ENDBRANCH   1   2
BRANCH   1  18
ATOM     17  C   UNL     1      47.778   8.930  14.803  0.00  0.00    +0.000 C 
ATOM     18  N   UNL     1      48.592   7.732  14.978  0.00  0.00    +0.000 N 
ATOM     19  C   UNL     1      48.872   7.401  16.314  0.00  0.00    +0.000 C 
ATOM     20  O   UNL     1      48.778   8.242  17.205  0.00  0.00    +0.000 OA
BRANCH  19  21
ATOM     21  C   UNL     1      49.146   5.998  16.698  0.00  0.00    +0.000 A 
ATOM     22  C   UNL     1      48.183   5.064  17.047  0.00  0.00    +0.000 A 
ATOM     23  S   UNL     1      48.820   3.636  17.733  0.00  0.00    +0.000 S 
ATOM     24  C   UNL     1      50.402   4.243  17.641  0.00  0.00    +0.000 A 
ATOM     25  N   UNL     1      51.443   3.571  18.198  0.00  0.00    +0.000 NA
ATOM     26  C   UNL     1      52.586   4.150  18.043  0.00  0.00    +0.000 A 
ATOM     27  N   UNL     1      52.788   5.312  17.342  0.00  0.00    +0.000 N 
ATOM     28  C   UNL     1      51.775   5.985  16.691  0.00  0.00    +0.000 A 
ATOM     29  O   UNL     1      52.013   6.886  15.896  0.00  0.00    +0.000 OA
ATOM     30  C   UNL     1      50.454   5.449  16.962  0.00  0.00    +0.000 A 
ATOM     31  H   UNL     1      53.722   5.655  17.173  0.00  0.00    +0.000 HD
ENDBRANCH  19  21
ENDBRANCH   1  18
TORSDOF 5
ENDMDL
MODEL 3
REMARK VINA RESULT:    -7.205      3.571      8.069
REMARK INTER + INTRA:         -10.479
REMARK INTER:                  -9.452
REMARK INTRA:                  -1.027
REMARK UNBOUND:                -1.168
REMARK  Name = 
REMARK  6 active torsions:
REMARK  status: ('A' for Active; 'I' for Inactive)
REMARK    1  A    between atoms: C_1  and  N_2
REMARK    2  A    between atoms: N_2  and  C_3
REMARK    3  A    between atoms: C_3  and  C_4
REMARK    4  A    between atoms: C_7  and  C_8
REMARK    5  A    between atoms: C_8  and  N_9
REMARK    6  A    between atoms: C_18  and  C_20
REMARK                            x       y       z     vdW  Elec       q    Type
REMARK                         _______ _______ _______ _____ _____    ______ ____
ROOT
ATOM      1  C   UNL     1      47.732   6.899  12.345  0.00  0.00    +0.000 C 
ENDROOT
BRANCH   1   2
ATOM      2  C   UNL     1      48.091   6.546  13.757  0.00  0.00    +0.000 A 
ATOM      3  C   UNL     1      48.976   7.345  14.488  0.00  0.00    +0.000 A 
ATOM      4  C   UNL     1      49.384   6.949  15.756  0.00  0.00    +0.000 A 
ATOM      5  C   UNL     1      48.880   5.763  16.277  0.00  0.00    +0.000 A 
ATOM      6  N   UNL     1      48.000   4.983  15.594  0.00  0.00    +0.000 NA
ATOM      7  C   UNL     1      47.629   5.385  14.359  0.00  0.00    +0.000 A 
BRANCH   5   8
ATOM      8  C   UNL     1      49.313   5.293  17.650  0.00  0.00    +0.000 C 
BRANCH   8   9
ATOM      9  N   UNL     1      49.368   3.844  17.723  0.00  0.00    +0.000 N 
ATOM     10  C   UNL     1      50.582   3.186  17.760  0.00  0.00    +0.000 A 
ATOM     11  C   UNL     1      51.718   3.731  18.327  0.00  0.00    +0.000 A 
ATOM     12  C   UNL     1      52.846   2.943  18.343  0.00  0.00    +0.000 A 
ATOM     13  N   UNL     1      52.881   1.693  17.861  0.00  0.00    +0.000 NA
ATOM     14  C   UNL     1      51.725   1.249  17.351  0.00  0.00    +0.000 A 
ATOM     15  N   UNL     1      50.576   1.941  17.263  0.00  0.00    +0.000 NA
ATOM     16  H   UNL     1      48.707   3.325  17.154  0.00  0.00    +0.000 HD
ENDBRANCH   8   9
ENDBRANCH   5   8
ENDBRANCH   1   2
BRANCH   1  18
ATOM     17  C   UNL     1      46.642   9.173  12.202  0.00  0.00    +0.000 C 
ATOM     18  N   UNL     1      46.545   7.719  12.127  0.00  0.00    +0.000 N 
ATOM     19  C   UNL     1      45.373   7.238  11.521  0.00  0.00    +0.000 C 
ATOM     20  O   UNL     1      44.374   7.947  11.430  0.00  0.00    +0.000 OA
BRANCH  19  21
ATOM     21  C   UNL     1      45.362   5.919  10.852  0.00  0.00    +0.000 A 
ATOM     22  C   UNL     1      45.761   5.683   9.545  0.00  0.00    +0.000 A 
ATOM     23  S   UNL     1      45.347   4.132   8.962  0.00  0.00    +0.000 S 
ATOM     24  C   UNL     1      44.565   3.744  10.418  0.00  0.00    +0.000 A 
ATOM     25  N   UNL     1      43.855   2.593  10.546  0.00  0.00    +0.000 NA
ATOM     26  C   UNL     1      43.322   2.430  11.711  0.00  0.00    +0.000 A 
ATOM     27  N   UNL     1      43.475   3.289  12.770  0.00  0.00    +0.000 N 
ATOM     28  C   UNL     1      44.253   4.426  12.711  0.00  0.00    +0.000 A 
ATOM     29  O   UNL     1      44.551   5.051  13.723  0.00  0.00    +0.000 OA
ATOM     30  C   UNL     1      44.750   4.723  11.381  0.00  0.00    +0.000 A 
ATOM     31  H   UNL     1      43.117   3.049  13.682  0.00  0.00    +0.000 HD
ENDBRANCH  19  21
ENDBRANCH   1  18
TORSDOF 5
ENDMDL
MODEL 4
REMARK VINA RESULT:    -7.077      1.995      2.526
REMARK INTER + INTRA:         -10.314
REMARK INTER:                  -9.267
REMARK INTRA:                  -1.046
REMARK UNBOUND:                -1.168
REMARK  Name = 
REMARK  6 active torsions:
REMARK  status: ('A' for Active; 'I' for Inactive)
REMARK    1  A    between atoms: C_1  and  N_2
REMARK    2  A    between atoms: N_2  and  C_3
REMARK    3  A    between atoms: C_3  and  C_4
REMARK    4  A    between atoms: C_7  and  C_8
REMARK    5  A    between atoms: C_8  and  N_9
REMARK    6  A    between atoms: C_18  and  C_20
REMARK                            x       y       z     vdW  Elec       q    Type
REMARK                         _______ _______ _______ _____ _____    ______ ____
ROOT
ATOM      1  C   UNL     1      49.278   6.985  14.510  0.00  0.00    +0.000 C 
ENDROOT
BRANCH   1   2
ATOM      2  C   UNL     1      48.138   6.542  13.642  0.00  0.00    +0.000 A 
ATOM      3  C   UNL     1      47.879   7.180  12.425  0.00  0.00    +0.000 A 
ATOM      4  C   UNL     1      46.758   6.832  11.683  0.00  0.00    +0.000 A 
ATOM      5  C   UNL     1      45.923   5.831  12.169  0.00  0.00    +0.000 A 
ATOM      6  N   UNL     1      46.169   5.181  13.337  0.00  0.00    +0.000 NA
ATOM      7  C   UNL     1      47.260   5.547  14.044  0.00  0.00    +0.000 A 
BRANCH   5   8
ATOM      8  C   UNL     1      44.684   5.435  11.393  0.00  0.00    +0.000 C 
BRANCH   8   9
ATOM      9  N   UNL     1      44.906   5.514   9.960  0.00  0.00    +0.000 N 
ATOM     10  C   UNL     1      45.341   4.411   9.253  0.00  0.00    +0.000 A 
ATOM     11  C   UNL     1      45.029   3.114   9.611  0.00  0.00    +0.000 A 
ATOM     12  C   UNL     1      45.484   2.111   8.786  0.00  0.00    +0.000 A 
ATOM     13  N   UNL     1      46.184   2.337   7.666  0.00  0.00    +0.000 NA
ATOM     14  C   UNL     1      46.419   3.628   7.395  0.00  0.00    +0.000 A 
ATOM     15  N   UNL     1      46.044   4.679   8.143  0.00  0.00    +0.000 NA
ATOM     16  H   UNL     1      45.351   6.354   9.605  0.00  0.00    +0.000 HD
ENDBRANCH   8   9
ENDBRANCH   5   8
ENDBRANCH   1   2
BRANCH   1  18
ATOM     17  C   UNL     1      47.983   8.951  15.426  0.00  0.00    +0.000 C 
ATOM     18  N   UNL     1      48.986   7.906  15.603  0.00  0.00    +0.000 N 
ATOM     19  C   UNL     1      49.357   7.667  16.937  0.00  0.00    +0.000 C 
ATOM     20  O   UNL     1      49.156   8.509  17.807  0.00  0.00    +0.000 OA
BRANCH  19  21
ATOM     21  C   UNL     1      49.865   6.339  17.346  0.00  0.00    +0.000 A 
ATOM     22  C   UNL     1      51.190   5.936  17.279  0.00  0.00    +0.000 A 
ATOM     23  S   UNL     1      51.419   4.262  17.527  0.00  0.00    +0.000 S 
ATOM     24  C   UNL     1      49.747   4.009  17.673  0.00  0.00    +0.000 A 
ATOM     25  N   UNL     1      49.235   2.754  17.760  0.00  0.00    +0.000 NA
ATOM     26  C   UNL     1      47.949   2.718  17.874  0.00  0.00    +0.000 A 
ATOM     27  N   UNL     1      47.138   3.821  17.956  0.00  0.00    +0.000 N 
ATOM     28  C   UNL     1      47.621   5.113  17.956  0.00  0.00    +0.000 A 
ATOM     29  O   UNL     1      46.906   6.064  18.252  0.00  0.00    +0.000 OA
ATOM     30  C   UNL     1      49.043   5.201  17.684  0.00  0.00    +0.000 A 
ATOM     31  H   UNL     1      46.152   3.721  18.148  0.00  0.00    +0.000 HD
ENDBRANCH  19  21
ENDBRANCH   1  18
TORSDOF 5
ENDMDL
MODEL 5
REMARK VINA RESULT:    -6.801      3.555      8.442
REMARK INTER + INTRA:          -9.956
REMARK INTER:                  -8.934
REMARK INTRA:                  -1.022
REMARK UNBOUND:                -1.168
REMARK  Name = 
REMARK  6 active torsions:
REMARK  status: ('A' for Active; 'I' for Inactive)
REMARK    1  A    between atoms: C_1  and  N_2
REMARK    2  A    between atoms: N_2  and  C_3
REMARK    3  A    between atoms: C_3  and  C_4
REMARK    4  A    between atoms: C_7  and  C_8
REMARK    5  A    between atoms: C_8  and  N_9
REMARK    6  A    between atoms: C_18  and  C_20
REMARK                            x       y       z     vdW  Elec       q    Type
REMARK                         _______ _______ _______ _____ _____    ______ ____
ROOT
ATOM      1  C   UNL     1      47.112   5.413  12.585  0.00  0.00    +0.000 C 
ENDROOT
BRANCH   1   2
ATOM      2  C   UNL     1      47.380   5.170  14.041  0.00  0.00    +0.000 A 
ATOM      3  C   UNL     1      48.126   6.085  14.791  0.00  0.00    +0.000 A 
ATOM      4  C   UNL     1      48.457   5.796  16.109  0.00  0.00    +0.000 A 
ATOM      5  C   UNL     1      48.015   4.598  16.658  0.00  0.00    +0.000 A 
ATOM      6  N   UNL     1      47.269   3.705  15.955  0.00  0.00    +0.000 NA
ATOM      7  C   UNL     1      46.971   4.005  14.672  0.00  0.00    +0.000 A 
BRANCH   5   8
ATOM      8  C   UNL     1      48.369   4.244  18.087  0.00  0.00    +0.000 C 
BRANCH   8   9
ATOM      9  N   UNL     1      48.944   2.913  18.179  0.00  0.00    +0.000 N 
ATOM     10  C   UNL     1      50.292   2.712  17.959  0.00  0.00    +0.000 A 
ATOM     11  C   UNL     1      51.254   3.661  18.245  0.00  0.00    +0.000 A 
ATOM     12  C   UNL     1      52.565   3.307  18.026  0.00  0.00    +0.000 A 
ATOM     13  N   UNL     1      52.940   2.101  17.577  0.00  0.00    +0.000 NA
ATOM     14  C   UNL     1      51.936   1.244  17.347  0.00  0.00    +0.000 A 
ATOM     15  N   UNL     1      50.625   1.495  17.502  0.00  0.00    +0.000 NA
ATOM     16  H   UNL     1      48.408   2.148  17.783  0.00  0.00    +0.000 HD
ENDBRANCH   8   9
ENDBRANCH   5   8
ENDBRANCH   1   2
BRANCH   1  18
ATOM     17  C   UNL     1      46.975   7.856  11.960  0.00  0.00    +0.000 C 
ATOM     18  N   UNL     1      46.317   6.580  12.223  0.00  0.00    +0.000 N 
ATOM     19  C   UNL     1      44.986   6.502  11.780  0.00  0.00    +0.000 C 
ATOM     20  O   UNL     1      44.334   7.520  11.561  0.00  0.00    +0.000 OA
BRANCH  19  21
ATOM     21  C   UNL     1      44.387   5.195  11.432  0.00  0.00    +0.000 A 
ATOM     22  C   UNL     1      43.524   4.471  12.241  0.00  0.00    +0.000 A 
ATOM     23  S   UNL     1      43.249   2.873  11.706  0.00  0.00    +0.000 S 
ATOM     24  C   UNL     1      44.322   3.076  10.406  0.00  0.00    +0.000 A 
ATOM     25  N   UNL     1      44.664   2.028   9.613  0.00  0.00    +0.000 NA
ATOM     26  C   UNL     1      45.482   2.334   8.661  0.00  0.00    +0.000 A 
ATOM     27  N   UNL     1      45.949   3.598   8.406  0.00  0.00    +0.000 N 
ATOM     28  C   UNL     1      45.564   4.705   9.133  0.00  0.00    +0.000 A 
ATOM     29  O   UNL     1      45.816   5.842   8.751  0.00  0.00    +0.000 OA
ATOM     30  C   UNL     1      44.762   4.384  10.298  0.00  0.00    +0.000 A 
ATOM     31  H   UNL     1      46.504   3.785   7.584  0.00  0.00    +0.000 HD
ENDBRANCH  19  21
ENDBRANCH   1  18
TORSDOF 5
ENDMDL
MODEL 6
REMARK VINA RESULT:    -6.765      2.975      4.456
REMARK INTER + INTRA:          -9.910
REMARK INTER:                  -8.812
REMARK INTRA:                  -1.099
REMARK UNBOUND:                -1.168
REMARK  Name = 
REMARK  6 active torsions:
REMARK  status: ('A' for Active; 'I' for Inactive)
REMARK    1  A    between atoms: C_1  and  N_2
REMARK    2  A    between atoms: N_2  and  C_3
REMARK    3  A    between atoms: C_3  and  C_4
REMARK    4  A    between atoms: C_7  and  C_8
REMARK    5  A    between atoms: C_8  and  N_9
REMARK    6  A    between atoms: C_18  and  C_20
REMARK                            x       y       z     vdW  Elec       q    Type
REMARK                         _______ _______ _______ _____ _____    ______ ____
ROOT
ATOM      1  C   UNL     1      49.811   8.046  17.141  0.00  0.00    +0.000 C 
ENDROOT
BRANCH   1   2
ATOM      2  C   UNL     1      49.082   7.751  15.864  0.00  0.00    +0.000 A 
ATOM      3  C   UNL     1      48.387   8.761  15.192  0.00  0.00    +0.000 A 
ATOM      4  C   UNL     1      47.628   8.453  14.070  0.00  0.00    +0.000 A 
ATOM      5  C   UNL     1      47.595   7.134  13.630  0.00  0.00    +0.000 A 
ATOM      6  N   UNL     1      48.282   6.142  14.255  0.00  0.00    +0.000 NA
ATOM      7  C   UNL     1      49.004   6.466  15.350  0.00  0.00    +0.000 A 
BRANCH   5   8
ATOM      8  C   UNL     1      46.767   6.759  12.420  0.00  0.00    +0.000 C 
BRANCH   8   9
ATOM      9  N   UNL     1      46.565   5.323  12.337  0.00  0.00    +0.000 N 
ATOM     10  C   UNL     1      45.323   4.804  12.029  0.00  0.00    +0.000 A 
ATOM     11  C   UNL     1      44.411   5.455  11.222  0.00  0.00    +0.000 A 
ATOM     12  C   UNL     1      43.233   4.797  10.954  0.00  0.00    +0.000 A 
ATOM     13  N   UNL     1      42.949   3.572  11.417  0.00  0.00    +0.000 NA
ATOM     14  C   UNL     1      43.904   3.017  12.174  0.00  0.00    +0.000 A 
ATOM     15  N   UNL     1      45.075   3.579  12.517  0.00  0.00    +0.000 NA
ATOM     16  H   UNL     1      47.018   4.750  13.041  0.00  0.00    +0.000 HD
ENDBRANCH   8   9
ENDBRANCH   5   8
ENDBRANCH   1   2
BRANCH   1  18
ATOM     17  C   UNL     1      47.984   9.012  18.593  0.00  0.00    +0.000 C 
ATOM     18  N   UNL     1      49.046   8.033  18.383  0.00  0.00    +0.000 N 
ATOM     19  C   UNL     1      49.024   6.942  19.268  0.00  0.00    +0.000 C 
ATOM     20  O   UNL     1      48.426   7.011  20.338  0.00  0.00    +0.000 OA
BRANCH  19  21
ATOM     21  C   UNL     1      49.600   5.640  18.866  0.00  0.00    +0.000 A 
ATOM     22  C   UNL     1      50.944   5.305  18.936  0.00  0.00    +0.000 A 
ATOM     23  S   UNL     1      51.342   3.859  18.119  0.00  0.00    +0.000 S 
ATOM     24  C   UNL     1      49.740   3.663  17.593  0.00  0.00    +0.000 A 
ATOM     25  N   UNL     1      49.408   2.680  16.716  0.00  0.00    +0.000 NA
ATOM     26  C   UNL     1      48.153   2.648  16.412  0.00  0.00    +0.000 A 
ATOM     27  N   UNL     1      47.197   3.478  16.941  0.00  0.00    +0.000 N 
ATOM     28  C   UNL     1      47.474   4.435  17.895  0.00  0.00    +0.000 A 
ATOM     29  O   UNL     1      46.580   5.005  18.509  0.00  0.00    +0.000 OA
ATOM     30  C   UNL     1      48.892   4.601  18.156  0.00  0.00    +0.000 A 
ATOM     31  H   UNL     1      46.220   3.331  16.738  0.00  0.00    +0.000 HD
ENDBRANCH  19  21
ENDBRANCH   1  18
TORSDOF 5
ENDMDL
MODEL 7
REMARK VINA RESULT:    -6.381      3.306      5.317
REMARK INTER + INTRA:          -9.414
REMARK INTER:                  -8.336
REMARK INTRA:                  -1.078
REMARK UNBOUND:                -1.168
REMARK  Name = 
REMARK  6 active torsions:
REMARK  status: ('A' for Active; 'I' for Inactive)
REMARK    1  A    between atoms: C_1  and  N_2
REMARK    2  A    between atoms: N_2  and  C_3
REMARK    3  A    between atoms: C_3  and  C_4
REMARK    4  A    between atoms: C_7  and  C_8
REMARK    5  A    between atoms: C_8  and  N_9
REMARK    6  A    between atoms: C_18  and  C_20
REMARK                            x       y       z     vdW  Elec       q    Type
REMARK                         _______ _______ _______ _____ _____    ______ ____
ROOT
ATOM      1  C   UNL     1      50.657   7.400  17.951  0.00  0.00    +0.000 C 
ENDROOT
BRANCH   1   2
ATOM      2  C   UNL     1      49.891   7.594  16.677  0.00  0.00    +0.000 A 
ATOM      3  C   UNL     1      48.822   8.493  16.618  0.00  0.00    +0.000 A 
ATOM      4  C   UNL     1      48.054   8.584  15.464  0.00  0.00    +0.000 A 
ATOM      5  C   UNL     1      48.386   7.781  14.379  0.00  0.00    +0.000 A 
ATOM      6  N   UNL     1      49.436   6.918  14.406  0.00  0.00    +0.000 NA
ATOM      7  C   UNL     1      50.160   6.841  15.544  0.00  0.00    +0.000 A 
BRANCH   5   8
ATOM      8  C   UNL     1      47.563   7.844  13.110  0.00  0.00    +0.000 C 
BRANCH   8   9
ATOM      9  N   UNL     1      46.188   7.441  13.346  0.00  0.00    +0.000 N 
ATOM     10  C   UNL     1      45.792   6.134  13.138  0.00  0.00    +0.000 A 
ATOM     11  C   UNL     1      46.636   5.054  13.307  0.00  0.00    +0.000 A 
ATOM     12  C   UNL     1      46.094   3.803  13.117  0.00  0.00    +0.000 A 
ATOM     13  N   UNL     1      44.808   3.595  12.804  0.00  0.00    +0.000 NA
ATOM     14  C   UNL     1      44.067   4.705  12.682  0.00  0.00    +0.000 A 
ATOM     15  N   UNL     1      44.500   5.969  12.820  0.00  0.00    +0.000 NA
ATOM     16  H   UNL     1      45.459   8.078  13.045  0.00  0.00    +0.000 HD
ENDBRANCH   8   9
ENDBRANCH   5   8
ENDBRANCH   1   2
BRANCH   1  18
ATOM     17  C   UNL     1      49.514   8.180  20.065  0.00  0.00    +0.000 C 
ATOM     18  N   UNL     1      49.902   7.100  19.163  0.00  0.00    +0.000 N 
ATOM     19  C   UNL     1      49.225   5.887  19.373  0.00  0.00    +0.000 C 
ATOM     20  O   UNL     1      48.668   5.653  20.442  0.00  0.00    +0.000 OA
BRANCH  19  21
ATOM     21  C   UNL     1      49.047   4.926  18.262  0.00  0.00    +0.000 A 
ATOM     22  C   UNL     1      47.880   4.757  17.532  0.00  0.00    +0.000 A 
ATOM     23  S   UNL     1      47.882   3.373  16.532  0.00  0.00    +0.000 S 
ATOM     24  C   UNL     1      49.422   2.919  17.086  0.00  0.00    +0.000 A 
ATOM     25  N   UNL     1      49.971   1.729  16.730  0.00  0.00    +0.000 NA
ATOM     26  C   UNL     1      51.147   1.524  17.221  0.00  0.00    +0.000 A 
ATOM     27  N   UNL     1      51.841   2.421  17.994  0.00  0.00    +0.000 N 
ATOM     28  C   UNL     1      51.358   3.673  18.311  0.00  0.00    +0.000 A 
ATOM     29  O   UNL     1      52.079   4.531  18.809  0.00  0.00    +0.000 OA
ATOM     30  C   UNL     1      49.983   3.887  17.903  0.00  0.00    +0.000 A 
ATOM     31  H   UNL     1      52.797   2.239  18.258  0.00  0.00    +0.000 HD
ENDBRANCH  19  21
ENDBRANCH   1  18
TORSDOF 5
ENDMDL
MODEL 8
REMARK VINA RESULT:    -6.354      2.717      4.853
REMARK INTER + INTRA:          -9.379
REMARK INTER:                  -8.280
REMARK INTRA:                  -1.098
REMARK UNBOUND:                -1.168
REMARK  Name = 
REMARK  6 active torsions:
REMARK  status: ('A' for Active; 'I' for Inactive)
REMARK    1  A    between atoms: C_1  and  N_2
REMARK    2  A    between atoms: N_2  and  C_3
REMARK    3  A    between atoms: C_3  and  C_4
REMARK    4  A    between atoms: C_7  and  C_8
REMARK    5  A    between atoms: C_8  and  N_9
REMARK    6  A    between atoms: C_18  and  C_20
REMARK                            x       y       z     vdW  Elec       q    Type
REMARK                         _______ _______ _______ _____ _____    ______ ____
ROOT
ATOM      1  C   UNL     1      48.741   6.486  13.629  0.00  0.00    +0.000 C 
ENDROOT
BRANCH   1   2
ATOM      2  C   UNL     1      47.397   6.114  13.076  0.00  0.00    +0.000 A 
ATOM      3  C   UNL     1      46.725   4.980  13.542  0.00  0.00    +0.000 A 
ATOM      4  C   UNL     1      45.532   4.587  12.948  0.00  0.00    +0.000 A 
ATOM      5  C   UNL     1      45.025   5.353  11.904  0.00  0.00    +0.000 A 
ATOM      6  N   UNL     1      45.650   6.472  11.452  0.00  0.00    +0.000 NA
ATOM      7  C   UNL     1      46.814   6.826  12.040  0.00  0.00    +0.000 A 
BRANCH   5   8
ATOM      8  C   UNL     1      43.735   4.947  11.223  0.00  0.00    +0.000 C 
BRANCH   8   9
ATOM      9  N   UNL     1      43.882   4.921   9.778  0.00  0.00    +0.000 N 
ATOM     10  C   UNL     1      44.640   3.943   9.165  0.00  0.00    +0.000 A 
ATOM     11  C   UNL     1      44.784   2.668   9.677  0.00  0.00    +0.000 A 
ATOM     12  C   UNL     1      45.525   1.777   8.934  0.00  0.00    +0.000 A 
ATOM     13  N   UNL     1      46.082   2.083   7.754  0.00  0.00    +0.000 NA
ATOM     14  C   UNL     1      45.869   3.337   7.334  0.00  0.00    +0.000 A 
ATOM     15  N   UNL     1      45.185   4.290   7.991  0.00  0.00    +0.000 NA
ATOM     16  H   UNL     1      44.015   5.810   9.310  0.00  0.00    +0.000 HD
ENDBRANCH   8   9
ENDBRANCH   5   8
ENDBRANCH   1   2
BRANCH   1  18
ATOM     17  C   UNL     1      48.752   7.067  16.088  0.00  0.00    +0.000 C 
ATOM     18  N   UNL     1      48.790   7.486  14.690  0.00  0.00    +0.000 N 
ATOM     19  C   UNL     1      49.205   8.812  14.485  0.00  0.00    +0.000 C 
ATOM     20  O   UNL     1      49.155   9.636  15.395  0.00  0.00    +0.000 OA
BRANCH  19  21
ATOM     21  C   UNL     1      49.845   9.209  13.212  0.00  0.00    +0.000 A 
ATOM     22  C   UNL     1      51.164   8.956  12.869  0.00  0.00    +0.000 A 
ATOM     23  S   UNL     1      51.694   9.798  11.481  0.00  0.00    +0.000 S 
ATOM     24  C   UNL     1      50.193  10.578  11.326  0.00  0.00    +0.000 A 
ATOM     25  N   UNL     1      50.007  11.560  10.407  0.00  0.00    +0.000 NA
ATOM     26  C   UNL     1      48.814  12.055  10.400  0.00  0.00    +0.000 A 
ATOM     27  N   UNL     1      47.783  11.623  11.195  0.00  0.00    +0.000 N 
ATOM     28  C   UNL     1      47.903  10.575  12.083  0.00  0.00    +0.000 A 
ATOM     29  O   UNL     1      46.921  10.069  12.613  0.00  0.00    +0.000 OA
ATOM     30  C   UNL     1      49.262  10.088  12.226  0.00  0.00    +0.000 A 
ATOM     31  H   UNL     1      46.849  11.984  11.066  0.00  0.00    +0.000 HD
ENDBRANCH  19  21
ENDBRANCH   1  18
TORSDOF 5
ENDMDL
MODEL 9
REMARK VINA RESULT:    -6.134      2.131      3.358
REMARK INTER + INTRA:          -9.095
REMARK INTER:                  -7.685
REMARK INTRA:                  -1.409
REMARK UNBOUND:                -1.168
REMARK  Name = 
REMARK  6 active torsions:
REMARK  status: ('A' for Active; 'I' for Inactive)
REMARK    1  A    between atoms: C_1  and  N_2
REMARK    2  A    between atoms: N_2  and  C_3
REMARK    3  A    between atoms: C_3  and  C_4
REMARK    4  A    between atoms: C_7  and  C_8
REMARK    5  A    between atoms: C_8  and  N_9
REMARK    6  A    between atoms: C_18  and  C_20
REMARK                            x       y       z     vdW  Elec       q    Type
REMARK                         _______ _______ _______ _____ _____    ______ ____
ROOT
ATOM      1  C   UNL     1      50.788   8.798  14.857  0.00  0.00    +0.000 C 
ENDROOT
BRANCH   1   2
ATOM      2  C   UNL     1      49.513   8.437  14.154  0.00  0.00    +0.000 A 
ATOM      3  C   UNL     1      49.534   7.635  13.008  0.00  0.00    +0.000 A 
ATOM      4  C   UNL     1      48.359   7.397  12.306  0.00  0.00    +0.000 A 
ATOM      5  C   UNL     1      47.176   7.955  12.779  0.00  0.00    +0.000 A 
ATOM      6  N   UNL     1      47.130   8.717  13.904  0.00  0.00    +0.000 NA
ATOM      7  C   UNL     1      48.288   8.942  14.561  0.00  0.00    +0.000 A 
BRANCH   5   8
ATOM      8  C   UNL     1      45.880   7.728  12.032  0.00  0.00    +0.000 C 
BRANCH   8   9
ATOM      9  N   UNL     1      45.926   6.510  11.243  0.00  0.00    +0.000 N 
ATOM     10  C   UNL     1      44.908   5.580  11.323  0.00  0.00    +0.000 A 
ATOM     11  C   UNL     1      43.596   5.919  11.591  0.00  0.00    +0.000 A 
ATOM     12  C   UNL     1      42.674   4.897  11.588  0.00  0.00    +0.000 A 
ATOM     13  N   UNL     1      42.986   3.621  11.323  0.00  0.00    +0.000 NA
ATOM     14  C   UNL     1      44.280   3.398  11.057  0.00  0.00    +0.000 A 
ATOM     15  N   UNL     1      45.263   4.315  11.059  0.00  0.00    +0.000 NA
ATOM     16  H   UNL     1      46.822   6.040  11.168  0.00  0.00    +0.000 HD
ENDBRANCH   8   9
ENDBRANCH   5   8
ENDBRANCH   1   2
BRANCH   1  18
ATOM     17  C   UNL     1      53.031   7.640  14.760  0.00  0.00    +0.000 C 
ATOM     18  N   UNL     1      51.668   7.713  15.276  0.00  0.00    +0.000 N 
ATOM     19  C   UNL     1      51.420   6.906  16.399  0.00  0.00    +0.000 C 
ATOM     20  O   UNL     1      52.151   5.956  16.666  0.00  0.00    +0.000 OA
BRANCH  19  21
ATOM     21  C   UNL     1      50.360   7.271  17.365  0.00  0.00    +0.000 A 
ATOM     22  C   UNL     1      50.497   8.193  18.391  0.00  0.00    +0.000 A 
ATOM     23  S   UNL     1      49.215   8.172  19.518  0.00  0.00    +0.000 S 
ATOM     24  C   UNL     1      48.461   6.886  18.705  0.00  0.00    +0.000 A 
ATOM     25  N   UNL     1      47.368   6.273  19.228  0.00  0.00    +0.000 NA
ATOM     26  C   UNL     1      46.900   5.318  18.496  0.00  0.00    +0.000 A 
ATOM     27  N   UNL     1      47.398   4.954  17.270  0.00  0.00    +0.000 N 
ATOM     28  C   UNL     1      48.454   5.601  16.664  0.00  0.00    +0.000 A 
ATOM     29  O   UNL     1      48.734   5.405  15.487  0.00  0.00    +0.000 OA
ATOM     30  C   UNL     1      49.100   6.583  17.514  0.00  0.00    +0.000 A 
ATOM     31  H   UNL     1      46.921   4.267  16.705  0.00  0.00    +0.000 HD
ENDBRANCH  19  21
ENDBRANCH   1  18
TORSDOF 5
ENDMDL
