MODEL 1
REMARK VINA RESULT:    -7.350      0.000      0.000
REMARK INTER + INTRA:         -10.300
REMARK INTER:                  -9.498
REMARK INTRA:                  -0.802
REMARK UNBOUND:                -0.802
REMARK  Name = 
REMARK  5 active torsions:
REMARK  status: ('A' for Active; 'I' for Inactive)
REMARK    1  A    between atoms: C_2  and  C_18
REMARK    2  A    between atoms: N_3  and  C_4
REMARK    3  A    between atoms: C_4  and  C_5
REMARK    4  A    between atoms: C_8  and  C_9
REMARK    5  A    between atoms: C_9  and  N_10
REMARK                            x       y       z     vdW  Elec       q    Type
REMARK                         _______ _______ _______ _____ _____    ______ ____
ROOT
ATOM      1  O   UNL     1      48.338   7.198  12.665  0.00  0.00    +0.000 OA
ATOM      2  C   UNL     1      47.640   6.949  13.639  0.00  0.00    +0.000 C 
ATOM      3  N   UNL     1      46.277   7.006  13.616  0.00  0.00    +0.000 N 
ATOM      4  H   UNL     1      45.735   6.572  14.349  0.00  0.00    +0.000 HD
ENDROOT
BRANCH   2   5
ATOM      5  C   UNL     1      48.223   6.650  14.942  0.00  0.00    +0.000 A 
ATOM      6  C   UNL     1      49.052   7.510  15.647  0.00  0.00    +0.000 A 
ATOM      7  S   UNL     1      49.854   6.724  16.943  0.00  0.00    +0.000 S 
ATOM      8  C   UNL     1      49.063   5.250  16.615  0.00  0.00    +0.000 A 
ATOM      9  N   UNL     1      49.354   4.105  17.290  0.00  0.00    +0.000 NA
ATOM     10  C   UNL     1      48.635   3.089  16.936  0.00  0.00    +0.000 A 
ATOM     11  N   UNL     1      47.623   3.123  16.007  0.00  0.00    +0.000 N 
ATOM     12  C   UNL     1      47.244   4.275  15.358  0.00  0.00    +0.000 A 
ATOM     13  O   UNL     1      46.200   4.340  14.716  0.00  0.00    +0.000 OA
ATOM     14  C   UNL     1      48.122   5.394  15.618  0.00  0.00    +0.000 A 
ATOM     15  H   UNL     1      47.023   2.324  15.863  0.00  0.00    +0.000 HD
ENDBRANCH   2   5
BRANCH   3  16
ATOM     16  C   UNL     1      45.594   7.411  12.404  0.00  0.00    +0.000 C 
BRANCH  16  17
ATOM     17  C   UNL     1      45.407   6.253  11.458  0.00  0.00    +0.000 A 
ATOM     18  N   UNL     1      46.050   6.290  10.274  0.00  0.00    +0.000 NA
ATOM     19  C   UNL     1      45.821   5.261   9.436  0.00  0.00    +0.000 A 
ATOM     20  C   UNL     1      44.969   4.216   9.722  0.00  0.00    +0.000 A 
ATOM     21  C   UNL     1      44.328   4.301  10.940  0.00  0.00    +0.000 A 
ATOM     22  N   UNL     1      44.515   5.305  11.815  0.00  0.00    +0.000 NA
BRANCH  20  23
ATOM     23  C   UNL     1      44.756   3.072   8.781  0.00  0.00    +0.000 C 
BRANCH  23  24
ATOM     24  N   UNL     1      45.989   2.648   8.088  0.00  0.00    +0.000 NA
ATOM     25  C   UNL     1      46.138   1.181   8.119  0.00  0.00    +0.000 C 
ATOM     26  C   UNL     1      47.357   0.698   7.332  0.00  0.00    +0.000 C 
ATOM     27  C   UNL     1      47.317   1.204   5.898  0.00  0.00    +0.000 C 
ATOM     28  C   UNL     1      47.186   2.721   5.896  0.00  0.00    +0.000 C 
ATOM     29  C   UNL     1      45.972   3.166   6.710  0.00  0.00    +0.000 C 
ENDBRANCH  23  24
ENDBRANCH  20  23
ENDBRANCH  16  17
ENDBRANCH   3  16
TORSDOF 5
ENDMDL
MODEL 2
REMARK VINA RESULT:    -7.183      3.039      3.777
REMARK INTER + INTRA:         -10.084
REMARK INTER:                  -9.405
REMARK INTRA:                  -0.679
REMARK UNBOUND:                -0.802
REMARK  Name = 
REMARK  5 active torsions:
REMARK  status: ('A' for Active; 'I' for Inactive)
REMARK    1  A    between atoms: C_2  and  C_18
REMARK    2  A    between atoms: N_3  and  C_4
REMARK    3  A    between atoms: C_4  and  C_5
REMARK    4  A    between atoms: C_8  and  C_9
REMARK    5  A    between atoms: C_9  and  N_10
REMARK                            x       y       z     vdW  Elec       q    Type
REMARK                         _______ _______ _______ _____ _____    ______ ____
ROOT
ATOM      1  O   UNL     1      44.641   8.044  11.058  0.00  0.00    +0.000 OA
ATOM      2  C   UNL     1      45.373   7.960  12.035  0.00  0.00    +0.000 C 
ATOM      3  N   UNL     1      45.165   7.074  13.051  0.00  0.00    +0.000 N 
ATOM      4  H   UNL     1      45.902   6.869  13.709  0.00  0.00    +0.000 HD
ENDROOT
BRANCH   2   5
ATOM      5  C   UNL     1      46.493   8.873  12.232  0.00  0.00    +0.000 A 
ATOM      6  C   UNL     1      46.384  10.255  12.270  0.00  0.00    +0.000 A 
ATOM      7  S   UNL     1      47.906  11.033  12.143  0.00  0.00    +0.000 S 
ATOM      8  C   UNL     1      48.729   9.541  12.096  0.00  0.00    +0.000 A 
ATOM      9  N   UNL     1      50.072   9.461  11.895  0.00  0.00    +0.000 NA
ATOM     10  C   UNL     1      50.536   8.253  11.923  0.00  0.00    +0.000 A 
ATOM     11  N   UNL     1      49.792   7.126  12.180  0.00  0.00    +0.000 N 
ATOM     12  C   UNL     1      48.447   7.170  12.466  0.00  0.00    +0.000 A 
ATOM     13  O   UNL     1      47.853   6.197  12.919  0.00  0.00    +0.000 OA
ATOM     14  C   UNL     1      47.868   8.484  12.295  0.00  0.00    +0.000 A 
ATOM     15  H   UNL     1      50.236   6.229  12.304  0.00  0.00    +0.000 HD
ENDBRANCH   2   5
BRANCH   3  16
ATOM     16  C   UNL     1      44.010   6.200  13.018  0.00  0.00    +0.000 C 
BRANCH  16  17
ATOM     17  C   UNL     1      44.198   5.067  12.041  0.00  0.00    +0.000 A 
ATOM     18  N   UNL     1      45.133   4.138  12.320  0.00  0.00    +0.000 NA
ATOM     19  C   UNL     1      45.305   3.168  11.401  0.00  0.00    +0.000 A 
ATOM     20  C   UNL     1      44.601   3.101  10.218  0.00  0.00    +0.000 A 
ATOM     21  C   UNL     1      43.702   4.127  10.013  0.00  0.00    +0.000 A 
ATOM     22  N   UNL     1      43.490   5.122  10.893  0.00  0.00    +0.000 NA
BRANCH  20  23
ATOM     23  C   UNL     1      44.794   1.994   9.229  0.00  0.00    +0.000 C 
BRANCH  23  24
ATOM     24  N   UNL     1      45.976   2.184   8.364  0.00  0.00    +0.000 NA
ATOM     25  C   UNL     1      46.431   0.900   7.797  0.00  0.00    +0.000 C 
ATOM     26  C   UNL     1      47.598   1.068   6.823  0.00  0.00    +0.000 C 
ATOM     27  C   UNL     1      47.247   2.051   5.717  0.00  0.00    +0.000 C 
ATOM     28  C   UNL     1      46.805   3.373   6.329  0.00  0.00    +0.000 C 
ATOM     29  C   UNL     1      45.654   3.162   7.312  0.00  0.00    +0.000 C 
ENDBRANCH  23  24
ENDBRANCH  20  23
ENDBRANCH  16  17
ENDBRANCH   3  16
TORSDOF 5
ENDMDL
MODEL 3
REMARK VINA RESULT:    -7.090      2.365      3.267
REMARK INTER + INTRA:          -9.964
REMARK INTER:                  -9.728
REMARK INTRA:                  -0.236
REMARK UNBOUND:                -0.802
REMARK  Name = 
REMARK  5 active torsions:
REMARK  status: ('A' for Active; 'I' for Inactive)
REMARK    1  A    between atoms: C_2  and  C_18
REMARK    2  A    between atoms: N_3  and  C_4
REMARK    3  A    between atoms: C_4  and  C_5
REMARK    4  A    between atoms: C_8  and  C_9
REMARK    5  A    between atoms: C_9  and  N_10
REMARK                            x       y       z     vdW  Elec       q    Type
REMARK                         _______ _______ _______ _____ _____    ______ ____
ROOT
ATOM      1  O   UNL     1      50.103   6.086  15.933  0.00  0.00    +0.000 OA
ATOM      2  C   UNL     1      48.969   6.457  16.207  0.00  0.00    +0.000 C 
ATOM      3  N   UNL     1      48.006   6.674  15.266  0.00  0.00    +0.000 N 
ATOM      4  H   UNL     1      47.035   6.745  15.535  0.00  0.00    +0.000 HD
ENDROOT
BRANCH   2   5
ATOM      5  C   UNL     1      48.580   6.782  17.575  0.00  0.00    +0.000 A 
ATOM      6  C   UNL     1      48.391   8.069  18.053  0.00  0.00    +0.000 A 
ATOM      7  S   UNL     1      48.308   8.123  19.765  0.00  0.00    +0.000 S 
ATOM      8  C   UNL     1      48.463   6.429  19.883  0.00  0.00    +0.000 A 
ATOM      9  N   UNL     1      48.567   5.792  21.080  0.00  0.00    +0.000 NA
ATOM     10  C   UNL     1      48.643   4.504  20.986  0.00  0.00    +0.000 A 
ATOM     11  N   UNL     1      48.577   3.792  19.812  0.00  0.00    +0.000 N 
ATOM     12  C   UNL     1      48.394   4.391  18.586  0.00  0.00    +0.000 A 
ATOM     13  O   UNL     1      48.105   3.739  17.588  0.00  0.00    +0.000 OA
ATOM     14  C   UNL     1      48.456   5.835  18.639  0.00  0.00    +0.000 A 
ATOM     15  H   UNL     1      48.524   2.785  19.818  0.00  0.00    +0.000 HD
ENDBRANCH   2   5
BRANCH   3  16
ATOM     16  C   UNL     1      48.318   6.500  13.862  0.00  0.00    +0.000 C 
BRANCH  16  17
ATOM     17  C   UNL     1      47.105   6.085  13.070  0.00  0.00    +0.000 A 
ATOM     18  N   UNL     1      46.543   4.892  13.348  0.00  0.00    +0.000 NA
ATOM     19  C   UNL     1      45.491   4.535  12.587  0.00  0.00    +0.000 A 
ATOM     20  C   UNL     1      44.993   5.305  11.558  0.00  0.00    +0.000 A 
ATOM     21  C   UNL     1      45.670   6.484  11.330  0.00  0.00    +0.000 A 
ATOM     22  N   UNL     1      46.728   6.891  12.055  0.00  0.00    +0.000 NA
BRANCH  20  23
ATOM     23  C   UNL     1      43.803   4.894  10.749  0.00  0.00    +0.000 C 
BRANCH  23  24
ATOM     24  N   UNL     1      44.149   4.041   9.594  0.00  0.00    +0.000 NA
ATOM     25  C   UNL     1      45.360   4.536   8.911  0.00  0.00    +0.000 C 
ATOM     26  C   UNL     1      45.802   3.626   7.764  0.00  0.00    +0.000 C 
ATOM     27  C   UNL     1      46.003   2.198   8.248  0.00  0.00    +0.000 C 
ATOM     28  C   UNL     1      44.732   1.705   8.926  0.00  0.00    +0.000 C 
ATOM     29  C   UNL     1      44.310   2.651  10.050  0.00  0.00    +0.000 C 
ENDBRANCH  23  24
ENDBRANCH  20  23
ENDBRANCH  16  17
ENDBRANCH   3  16
TORSDOF 5
ENDMDL
MODEL 4
REMARK VINA RESULT:    -7.036      3.927      9.441
REMARK INTER + INTRA:          -9.894
REMARK INTER:                  -9.220
REMARK INTRA:                  -0.674
REMARK UNBOUND:                -0.802
REMARK  Name = 
REMARK  5 active torsions:
REMARK  status: ('A' for Active; 'I' for Inactive)
REMARK    1  A    between atoms: C_2  and  C_18
REMARK    2  A    between atoms: N_3  and  C_4
REMARK    3  A    between atoms: C_4  and  C_5
REMARK    4  A    between atoms: C_8  and  C_9
REMARK    5  A    between atoms: C_9  and  N_10
REMARK                            x       y       z     vdW  Elec       q    Type
REMARK                         _______ _______ _______ _____ _____    ______ ____
ROOT
ATOM      1  O   UNL     1      47.323   3.111  13.993  0.00  0.00    +0.000 OA
ATOM      2  C   UNL     1      46.878   4.215  14.279  0.00  0.00    +0.000 C 
ATOM      3  N   UNL     1      46.718   4.647  15.563  0.00  0.00    +0.000 N 
ATOM      4  H   UNL     1      46.579   5.628  15.758  0.00  0.00    +0.000 HD
ENDROOT
BRANCH   2   5
ATOM      5  C   UNL     1      46.399   5.135  13.253  0.00  0.00    +0.000 A 
ATOM      6  C   UNL     1      47.069   6.279  12.848  0.00  0.00    +0.000 A 
ATOM      7  S   UNL     1      46.077   7.319  11.913  0.00  0.00    +0.000 S 
ATOM      8  C   UNL     1      44.767   6.232  11.988  0.00  0.00    +0.000 A 
ATOM      9  N   UNL     1      43.544   6.534  11.475  0.00  0.00    +0.000 NA
ATOM     10  C   UNL     1      42.676   5.581  11.589  0.00  0.00    +0.000 A 
ATOM     11  N   UNL     1      42.930   4.341  12.125  0.00  0.00    +0.000 N 
ATOM     12  C   UNL     1      44.172   3.967  12.584  0.00  0.00    +0.000 A 
ATOM     13  O   UNL     1      44.439   2.796  12.838  0.00  0.00    +0.000 OA
ATOM     14  C   UNL     1      45.124   5.054  12.610  0.00  0.00    +0.000 A 
ATOM     15  H   UNL     1      42.242   3.604  12.076  0.00  0.00    +0.000 HD
ENDBRANCH   2   5
BRANCH   3  16
ATOM     16  C   UNL     1      47.049   3.767  16.665  0.00  0.00    +0.000 C 
BRANCH  16  17
ATOM     17  C   UNL     1      48.508   3.862  17.033  0.00  0.00    +0.000 A 
ATOM     18  N   UNL     1      49.049   5.088  17.170  0.00  0.00    +0.000 NA
ATOM     19  C   UNL     1      50.365   5.133  17.453  0.00  0.00    +0.000 A 
ATOM     20  C   UNL     1      51.159   4.013  17.584  0.00  0.00    +0.000 A 
ATOM     21  C   UNL     1      50.513   2.812  17.379  0.00  0.00    +0.000 A 
ATOM     22  N   UNL     1      49.203   2.707  17.092  0.00  0.00    +0.000 NA
BRANCH  20  23
ATOM     23  C   UNL     1      52.613   4.094  17.927  0.00  0.00    +0.000 C 
BRANCH  23  24
ATOM     24  N   UNL     1      52.932   3.540  19.258  0.00  0.00    +0.000 NA
ATOM     25  C   UNL     1      54.336   3.094  19.326  0.00  0.00    +0.000 C 
ATOM     26  C   UNL     1      54.729   2.598  20.718  0.00  0.00    +0.000 C 
ATOM     27  C   UNL     1      54.450   3.658  21.773  0.00  0.00    +0.000 C 
ATOM     28  C   UNL     1      52.990   4.081  21.696  0.00  0.00    +0.000 C 
ATOM     29  C   UNL     1      52.629   4.549  20.286  0.00  0.00    +0.000 C 
ENDBRANCH  23  24
ENDBRANCH  20  23
ENDBRANCH  16  17
ENDBRANCH   3  16
TORSDOF 5
ENDMDL
MODEL 5
REMARK VINA RESULT:    -6.797      3.262      8.760
REMARK INTER + INTRA:          -9.585
REMARK INTER:                  -8.598
REMARK INTRA:                  -0.987
REMARK UNBOUND:                -0.802
REMARK  Name = 
REMARK  5 active torsions:
REMARK  status: ('A' for Active; 'I' for Inactive)
REMARK    1  A    between atoms: C_2  and  C_18
REMARK    2  A    between atoms: N_3  and  C_4
REMARK    3  A    between atoms: C_4  and  C_5
REMARK    4  A    between atoms: C_8  and  C_9
REMARK    5  A    between atoms: C_9  and  N_10
REMARK                            x       y       z     vdW  Elec       q    Type
REMARK                         _______ _______ _______ _____ _____    ______ ____
ROOT
ATOM      1  O   UNL     1      45.473   7.775  11.693  0.00  0.00    +0.000 OA
ATOM      2  C   UNL     1      46.148   6.754  11.649  0.00  0.00    +0.000 C 
ATOM      3  N   UNL     1      47.365   6.636  12.253  0.00  0.00    +0.000 N 
ATOM      4  H   UNL     1      47.777   5.726  12.399  0.00  0.00    +0.000 HD
ENDROOT
BRANCH   2   5
ATOM      5  C   UNL     1      45.733   5.596  10.865  0.00  0.00    +0.000 A 
ATOM      6  C   UNL     1      45.859   5.493   9.488  0.00  0.00    +0.000 A 
ATOM      7  S   UNL     1      44.951   4.188   8.846  0.00  0.00    +0.000 S 
ATOM      8  C   UNL     1      44.430   3.712  10.398  0.00  0.00    +0.000 A 
ATOM      9  N   UNL     1      43.534   2.706  10.584  0.00  0.00    +0.000 NA
ATOM     10  C   UNL     1      43.276   2.454  11.827  0.00  0.00    +0.000 A 
ATOM     11  N   UNL     1      43.865   3.083  12.898  0.00  0.00    +0.000 N 
ATOM     12  C   UNL     1      44.832   4.051  12.756  0.00  0.00    +0.000 A 
ATOM     13  O   UNL     1      45.509   4.430  13.707  0.00  0.00    +0.000 OA
ATOM     14  C   UNL     1      45.035   4.461  11.384  0.00  0.00    +0.000 A 
ATOM     15  H   UNL     1      43.707   2.758  13.841  0.00  0.00    +0.000 HD
ENDBRANCH   2   5
BRANCH   3  16
ATOM     16  C   UNL     1      47.931   7.768  12.959  0.00  0.00    +0.000 C 
BRANCH  16  17
ATOM     17  C   UNL     1      48.532   7.356  14.279  0.00  0.00    +0.000 A 
ATOM     18  N   UNL     1      48.220   6.138  14.765  0.00  0.00    +0.000 NA
ATOM     19  C   UNL     1      48.738   5.824  15.968  0.00  0.00    +0.000 A 
ATOM     20  C   UNL     1      49.531   6.677  16.707  0.00  0.00    +0.000 A 
ATOM     21  C   UNL     1      49.749   7.913  16.136  0.00  0.00    +0.000 A 
ATOM     22  N   UNL     1      49.256   8.283  14.940  0.00  0.00    +0.000 NA
BRANCH  20  23
ATOM     23  C   UNL     1      50.115   6.289  18.029  0.00  0.00    +0.000 C 
BRANCH  23  24
ATOM     24  N   UNL     1      49.106   5.814  18.996  0.00  0.00    +0.000 NA
ATOM     25  C   UNL     1      49.731   5.013  20.066  0.00  0.00    +0.000 C 
ATOM     26  C   UNL     1      48.729   4.579  21.137  0.00  0.00    +0.000 C 
ATOM     27  C   UNL     1      48.001   5.781  21.721  0.00  0.00    +0.000 C 
ATOM     28  C   UNL     1      47.346   6.574  20.599  0.00  0.00    +0.000 C 
ATOM     29  C   UNL     1      48.373   6.970  19.538  0.00  0.00    +0.000 C 
ENDBRANCH  23  24
ENDBRANCH  20  23
ENDBRANCH  16  17
ENDBRANCH   3  16
TORSDOF 5
ENDMDL
MODEL 6
REMARK VINA RESULT:    -6.490      3.453      5.757
REMARK INTER + INTRA:          -9.189
REMARK INTER:                  -8.126
REMARK INTRA:                  -1.064
REMARK UNBOUND:                -0.802
REMARK  Name = 
REMARK  5 active torsions:
REMARK  status: ('A' for Active; 'I' for Inactive)
REMARK    1  A    between atoms: C_2  and  C_18
REMARK    2  A    between atoms: N_3  and  C_4
REMARK    3  A    between atoms: C_4  and  C_5
REMARK    4  A    between atoms: C_8  and  C_9
REMARK    5  A    between atoms: C_9  and  N_10
REMARK                            x       y       z     vdW  Elec       q    Type
REMARK                         _______ _______ _______ _____ _____    ______ ____
ROOT
ATOM      1  O   UNL     1      51.814   6.012  16.574  0.00  0.00    +0.000 OA
ATOM      2  C   UNL     1      51.311   5.350  17.473  0.00  0.00    +0.000 C 
ATOM      3  N   UNL     1      49.994   5.434  17.816  0.00  0.00    +0.000 N 
ATOM      4  H   UNL     1      49.568   4.718  18.386  0.00  0.00    +0.000 HD
ENDROOT
BRANCH   2   5
ATOM      5  C   UNL     1      52.114   4.470  18.315  0.00  0.00    +0.000 A 
ATOM      6  C   UNL     1      52.990   4.907  19.297  0.00  0.00    +0.000 A 
ATOM      7  S   UNL     1      54.038   3.661  19.836  0.00  0.00    +0.000 S 
ATOM      8  C   UNL     1      53.297   2.517  18.813  0.00  0.00    +0.000 A 
ATOM      9  N   UNL     1      53.763   1.244  18.691  0.00  0.00    +0.000 NA
ATOM     10  C   UNL     1      53.061   0.501  17.898  0.00  0.00    +0.000 A 
ATOM     11  N   UNL     1      51.913   0.896  17.255  0.00  0.00    +0.000 N 
ATOM     12  C   UNL     1      51.364   2.148  17.411  0.00  0.00    +0.000 A 
ATOM     13  O   UNL     1      50.228   2.407  17.024  0.00  0.00    +0.000 OA
ATOM     14  C   UNL     1      52.201   3.051  18.170  0.00  0.00    +0.000 A 
ATOM     15  H   UNL     1      51.349   0.233  16.745  0.00  0.00    +0.000 HD
ENDBRANCH   2   5
BRANCH   3  16
ATOM     16  C   UNL     1      49.128   6.367  17.125  0.00  0.00    +0.000 C 
BRANCH  16  17
ATOM     17  C   UNL     1      48.340   5.690  16.032  0.00  0.00    +0.000 A 
ATOM     18  N   UNL     1      47.708   4.537  16.327  0.00  0.00    +0.000 NA
ATOM     19  C   UNL     1      47.054   3.937  15.314  0.00  0.00    +0.000 A 
ATOM     20  C   UNL     1      47.023   4.428  14.026  0.00  0.00    +0.000 A 
ATOM     21  C   UNL     1      47.741   5.588  13.825  0.00  0.00    +0.000 A 
ATOM     22  N   UNL     1      48.414   6.229  14.797  0.00  0.00    +0.000 NA
BRANCH  20  23
ATOM     23  C   UNL     1      46.265   3.753  12.926  0.00  0.00    +0.000 C 
BRANCH  23  24
ATOM     24  N   UNL     1      45.228   4.611  12.319  0.00  0.00    +0.000 NA
ATOM     25  C   UNL     1      44.750   4.046  11.043  0.00  0.00    +0.000 C 
ATOM     26  C   UNL     1      43.610   4.860  10.430  0.00  0.00    +0.000 C 
ATOM     27  C   UNL     1      42.460   5.016  11.413  0.00  0.00    +0.000 C 
ATOM     28  C   UNL     1      42.977   5.623  12.710  0.00  0.00    +0.000 C 
ATOM     29  C   UNL     1      44.128   4.796  13.281  0.00  0.00    +0.000 C 
ENDBRANCH  23  24
ENDBRANCH  20  23
ENDBRANCH  16  17
ENDBRANCH   3  16
TORSDOF 5
ENDMDL
MODEL 7
REMARK VINA RESULT:    -6.398      3.286      9.206
REMARK INTER + INTRA:          -9.071
REMARK INTER:                  -8.330
REMARK INTRA:                  -0.741
REMARK UNBOUND:                -0.802
REMARK  Name = 
REMARK  5 active torsions:
REMARK  status: ('A' for Active; 'I' for Inactive)
REMARK    1  A    between atoms: C_2  and  C_18
REMARK    2  A    between atoms: N_3  and  C_4
REMARK    3  A    between atoms: C_4  and  C_5
REMARK    4  A    between atoms: C_8  and  C_9
REMARK    5  A    between atoms: C_9  and  N_10
REMARK                            x       y       z     vdW  Elec       q    Type
REMARK                         _______ _______ _______ _____ _____    ______ ____
ROOT
ATOM      1  O   UNL     1      45.627   7.334  11.704  0.00  0.00    +0.000 OA
ATOM      2  C   UNL     1      45.837   6.159  11.973  0.00  0.00    +0.000 C 
ATOM      3  N   UNL     1      46.987   5.720  12.559  0.00  0.00    +0.000 N 
ATOM      4  H   UNL     1      47.029   4.802  12.978  0.00  0.00    +0.000 HD
ENDROOT
BRANCH   2   5
ATOM      5  C   UNL     1      44.892   5.110  11.605  0.00  0.00    +0.000 A 
ATOM      6  C   UNL     1      43.907   4.610  12.443  0.00  0.00    +0.000 A 
ATOM      7  S   UNL     1      43.224   3.153  11.849  0.00  0.00    +0.000 S 
ATOM      8  C   UNL     1      44.189   3.206  10.445  0.00  0.00    +0.000 A 
ATOM      9  N   UNL     1      44.190   2.201   9.528  0.00  0.00    +0.000 NA
ATOM     10  C   UNL     1      44.954   2.420   8.508  0.00  0.00    +0.000 A 
ATOM     11  N   UNL     1      45.680   3.569   8.297  0.00  0.00    +0.000 N 
ATOM     12  C   UNL     1      45.647   4.641   9.159  0.00  0.00    +0.000 A 
ATOM     13  O   UNL     1      46.106   5.734   8.845  0.00  0.00    +0.000 OA
ATOM     14  C   UNL     1      44.922   4.371  10.381  0.00  0.00    +0.000 A 
ATOM     15  H   UNL     1      46.162   3.725   7.425  0.00  0.00    +0.000 HD
ENDBRANCH   2   5
BRANCH   3  16
ATOM     16  C   UNL     1      48.047   6.661  12.858  0.00  0.00    +0.000 C 
BRANCH  16  17
ATOM     17  C   UNL     1      48.425   6.627  14.318  0.00  0.00    +0.000 A 
ATOM     18  N   UNL     1      49.196   7.623  14.796  0.00  0.00    +0.000 NA
ATOM     19  C   UNL     1      49.552   7.534  16.092  0.00  0.00    +0.000 A 
ATOM     20  C   UNL     1      49.188   6.490  16.916  0.00  0.00    +0.000 A 
ATOM     21  C   UNL     1      48.439   5.503  16.313  0.00  0.00    +0.000 A 
ATOM     22  N   UNL     1      48.056   5.538  15.023  0.00  0.00    +0.000 NA
BRANCH  20  23
ATOM     23  C   UNL     1      49.577   6.433  18.360  0.00  0.00    +0.000 C 
BRANCH  23  24
ATOM     24  N   UNL     1      48.458   6.726  19.278  0.00  0.00    +0.000 NA
ATOM     25  C   UNL     1      48.533   5.891  20.492  0.00  0.00    +0.000 C 
ATOM     26  C   UNL     1      47.442   6.230  21.508  0.00  0.00    +0.000 C 
ATOM     27  C   UNL     1      47.474   7.707  21.869  0.00  0.00    +0.000 C 
ATOM     28  C   UNL     1      47.370   8.544  20.602  0.00  0.00    +0.000 C 
ATOM     29  C   UNL     1      48.462   8.162  19.603  0.00  0.00    +0.000 C 
ENDBRANCH  23  24
ENDBRANCH  20  23
ENDBRANCH  16  17
ENDBRANCH   3  16
TORSDOF 5
ENDMDL
MODEL 8
REMARK VINA RESULT:    -6.358      2.788      4.161
REMARK INTER + INTRA:          -9.019
REMARK INTER:                  -8.808
REMARK INTRA:                  -0.211
REMARK UNBOUND:                -0.802
REMARK  Name = 
REMARK  5 active torsions:
REMARK  status: ('A' for Active; 'I' for Inactive)
REMARK    1  A    between atoms: C_2  and  C_18
REMARK    2  A    between atoms: N_3  and  C_4
REMARK    3  A    between atoms: C_4  and  C_5
REMARK    4  A    between atoms: C_8  and  C_9
REMARK    5  A    between atoms: C_9  and  N_10
REMARK                            x       y       z     vdW  Elec       q    Type
REMARK                         _______ _______ _______ _____ _____    ______ ____
ROOT
ATOM      1  O   UNL     1      50.317   6.913  15.441  0.00  0.00    +0.000 OA
ATOM      2  C   UNL     1      49.144   7.076  15.751  0.00  0.00    +0.000 C 
ATOM      3  N   UNL     1      48.114   6.964  14.864  0.00  0.00    +0.000 N 
ATOM      4  H   UNL     1      47.165   6.870  15.194  0.00  0.00    +0.000 HD
ENDROOT
BRANCH   2   5
ATOM      5  C   UNL     1      48.760   7.492  17.096  0.00  0.00    +0.000 A 
ATOM      6  C   UNL     1      48.515   6.622  18.147  0.00  0.00    +0.000 A 
ATOM      7  S   UNL     1      47.734   7.395  19.463  0.00  0.00    +0.000 S 
ATOM      8  C   UNL     1      47.769   8.905  18.673  0.00  0.00    +0.000 A 
ATOM      9  N   UNL     1      47.173  10.010  19.195  0.00  0.00    +0.000 NA
ATOM     10  C   UNL     1      47.326  11.078  18.479  0.00  0.00    +0.000 A 
ATOM     11  N   UNL     1      48.057  11.152  17.318  0.00  0.00    +0.000 N 
ATOM     12  C   UNL     1      48.739  10.077  16.796  0.00  0.00    +0.000 A 
ATOM     13  O   UNL     1      49.568  10.213  15.901  0.00  0.00    +0.000 OA
ATOM     14  C   UNL     1      48.468   8.836  17.487  0.00  0.00    +0.000 A 
ATOM     15  H   UNL     1      48.235  12.039  16.872  0.00  0.00    +0.000 HD
ENDBRANCH   2   5
BRANCH   3  16
ATOM     16  C   UNL     1      48.391   6.674  13.473  0.00  0.00    +0.000 C 
BRANCH  16  17
ATOM     17  C   UNL     1      47.169   6.152  12.760  0.00  0.00    +0.000 A 
ATOM     18  N   UNL     1      46.636   4.989  13.184  0.00  0.00    +0.000 NA
ATOM     19  C   UNL     1      45.574   4.531  12.493  0.00  0.00    +0.000 A 
ATOM     20  C   UNL     1      45.041   5.171  11.395  0.00  0.00    +0.000 A 
ATOM     21  C   UNL     1      45.691   6.328  11.020  0.00  0.00    +0.000 A 
ATOM     22  N   UNL     1      46.756   6.831  11.669  0.00  0.00    +0.000 NA
BRANCH  20  23
ATOM     23  C   UNL     1      43.843   4.651  10.665  0.00  0.00    +0.000 C 
BRANCH  23  24
ATOM     24  N   UNL     1      44.187   3.821   9.493  0.00  0.00    +0.000 NA
ATOM     25  C   UNL     1      45.328   4.393   8.754  0.00  0.00    +0.000 C 
ATOM     26  C   UNL     1      45.773   3.512   7.586  0.00  0.00    +0.000 C 
ATOM     27  C   UNL     1      46.090   2.101   8.057  0.00  0.00    +0.000 C 
ATOM     28  C   UNL     1      44.888   1.527   8.794  0.00  0.00    +0.000 C 
ATOM     29  C   UNL     1      44.460   2.445   9.939  0.00  0.00    +0.000 C 
ENDBRANCH  23  24
ENDBRANCH  20  23
ENDBRANCH  16  17
ENDBRANCH   3  16
TORSDOF 5
ENDMDL
MODEL 9
REMARK VINA RESULT:    -6.280      1.845      2.436
REMARK INTER + INTRA:          -8.917
REMARK INTER:                  -8.111
REMARK INTRA:                  -0.806
REMARK UNBOUND:                -0.802
REMARK  Name = 
REMARK  5 active torsions:
REMARK  status: ('A' for Active; 'I' for Inactive)
REMARK    1  A    between atoms: C_2  and  C_18
REMARK    2  A    between atoms: N_3  and  C_4
REMARK    3  A    between atoms: C_4  and  C_5
REMARK    4  A    between atoms: C_8  and  C_9
REMARK    5  A    between atoms: C_9  and  N_10
REMARK                            x       y       z     vdW  Elec       q    Type
REMARK                         _______ _______ _______ _____ _____    ______ ____
ROOT
ATOM      1  O   UNL     1      49.182   8.897  13.839  0.00  0.00    +0.000 OA
ATOM      2  C   UNL     1      48.323   8.741  14.696  0.00  0.00    +0.000 C 
ATOM      3  N   UNL     1      46.985   8.769  14.429  0.00  0.00    +0.000 N 
ATOM      4  H   UNL     1      46.323   8.407  15.099  0.00  0.00    +0.000 HD
ENDROOT
BRANCH   2   5
ATOM      5  C   UNL     1      48.667   8.596  16.107  0.00  0.00    +0.000 A 
ATOM      6  C   UNL     1      48.782   9.650  17.000  0.00  0.00    +0.000 A 
ATOM      7  S   UNL     1      49.552   9.185  18.460  0.00  0.00    +0.000 S 
ATOM      8  C   UNL     1      49.686   7.567  17.942  0.00  0.00    +0.000 A 
ATOM      9  N   UNL     1      50.343   6.625  18.671  0.00  0.00    +0.000 NA
ATOM     10  C   UNL     1      50.319   5.442  18.146  0.00  0.00    +0.000 A 
ATOM     11  N   UNL     1      49.660   5.106  16.987  0.00  0.00    +0.000 N 
ATOM     12  C   UNL     1      48.920   6.010  16.260  0.00  0.00    +0.000 A 
ATOM     13  O   UNL     1      48.155   5.650  15.371  0.00  0.00    +0.000 OA
ATOM     14  C   UNL     1      49.049   7.370  16.736  0.00  0.00    +0.000 A 
ATOM     15  H   UNL     1      49.582   4.143  16.695  0.00  0.00    +0.000 HD
ENDBRANCH   2   5
BRANCH   3  16
ATOM     16  C   UNL     1      46.527   9.029  13.080  0.00  0.00    +0.000 C 
BRANCH  16  17
ATOM     17  C   UNL     1      45.993   7.780  12.424  0.00  0.00    +0.000 A 
ATOM     18  N   UNL     1      44.806   7.854  11.791  0.00  0.00    +0.000 NA
ATOM     19  C   UNL     1      44.339   6.708  11.259  0.00  0.00    +0.000 A 
ATOM     20  C   UNL     1      44.996   5.499  11.350  0.00  0.00    +0.000 A 
ATOM     21  C   UNL     1      46.178   5.528  12.058  0.00  0.00    +0.000 A 
ATOM     22  N   UNL     1      46.691   6.641  12.613  0.00  0.00    +0.000 NA
BRANCH  20  23
ATOM     23  C   UNL     1      44.465   4.248  10.723  0.00  0.00    +0.000 C 
BRANCH  23  24
ATOM     24  N   UNL     1      45.419   3.609   9.794  0.00  0.00    +0.000 NA
ATOM     25  C   UNL     1      44.971   2.255   9.420  0.00  0.00    +0.000 C 
ATOM     26  C   UNL     1      45.887   1.597   8.387  0.00  0.00    +0.000 C 
ATOM     27  C   UNL     1      46.036   2.474   7.154  0.00  0.00    +0.000 C 
ATOM     28  C   UNL     1      46.523   3.856   7.567  0.00  0.00    +0.000 C 
ATOM     29  C   UNL     1      45.596   4.471   8.614  0.00  0.00    +0.000 C 
ENDBRANCH  23  24
ENDBRANCH  20  23
ENDBRANCH  16  17
ENDBRANCH   3  16
TORSDOF 5
ENDMDL
