MODEL 1
REMARK VINA RESULT:    -8.258      0.000      0.000
REMARK INTER + INTRA:         -12.169
REMARK INTER:                 -11.638
REMARK INTRA:                  -0.532
REMARK UNBOUND:                -0.532
REMARK  Name = 
REMARK  7 active torsions:
REMARK  status: ('A' for Active; 'I' for Inactive)
REMARK    1  A    between atoms: C_2  and  C_3
REMARK    2  A    between atoms: C_3  and  C_4
REMARK    3  A    between atoms: C_3  and  N_11
REMARK    4  A    between atoms: C_4  and  C_5
REMARK    5  A    between atoms: C_15  and  C_16
REMARK    6  A    between atoms: C_16  and  N_17
REMARK    7  A    between atoms: C_18  and  C_20
REMARK                            x       y       z     vdW  Elec       q    Type
REMARK                         _______ _______ _______ _____ _____    ______ ____
ROOT
ATOM      1  N   UNL     1      45.170   2.974  11.799  0.00  0.00    +0.000 N 
ATOM      2  C   UNL     1      45.894   3.820  12.667  0.00  0.00    +0.000 A 
ATOM      3  C   UNL     1      46.648   3.239  13.681  0.00  0.00    +0.000 A 
ATOM      4  C   UNL     1      47.413   4.048  14.519  0.00  0.00    +0.000 A 
ATOM      5  C   UNL     1      47.366   5.435  14.379  0.00  0.00    +0.000 A 
ATOM      6  C   UNL     1      46.533   5.930  13.384  0.00  0.00    +0.000 A 
ATOM      7  N   UNL     1      45.817   5.156  12.531  0.00  0.00    +0.000 NA
ATOM      8  H   UNL     1      45.730   2.137  11.650  0.00  0.00    +0.000 HD
ENDROOT
BRANCH   1   9
ATOM      9  C   UNL     1      44.850   3.620  10.502  0.00  0.00    +0.000 C 
BRANCH   9  11
ATOM     10  N   UNL     1      42.804   5.301  10.676  0.00  0.00    +0.000 NA
ATOM     11  C   UNL     1      43.675   4.533  10.588  0.00  0.00    +0.000 C 
ENDBRANCH   9  11
BRANCH   9  12
ATOM     12  C   UNL     1      44.542   2.529   9.438  0.00  0.00    +0.000 C 
BRANCH  12  13
ATOM     13  C   UNL     1      45.586   2.408   8.343  0.00  0.00    +0.000 A 
ATOM     14  C   UNL     1      45.871   3.504   7.514  0.00  0.00    +0.000 A 
ATOM     15  C   UNL     1      46.807   3.389   6.484  0.00  0.00    +0.000 A 
ATOM     16  C   UNL     1      47.474   2.183   6.275  0.00  0.00    +0.000 A 
ATOM     17  C   UNL     1      47.215   1.095   7.105  0.00  0.00    +0.000 A 
ATOM     18  C   UNL     1      46.281   1.207   8.137  0.00  0.00    +0.000 A 
ENDBRANCH  12  13
ENDBRANCH   9  12
ENDBRANCH   1   9
BRANCH   5  19
ATOM     19  C   UNL     1      48.206   6.348  15.224  0.00  0.00    +0.000 C 
BRANCH  19  20
ATOM     20  N   UNL     1      49.337   5.669  15.808  0.00  0.00    +0.000 N 
ATOM     21  C   UNL     1      49.458   5.534  17.168  0.00  0.00    +0.000 C 
ATOM     22  O   UNL     1      48.587   5.930  17.939  0.00  0.00    +0.000 OA
ATOM     23  H   UNL     1      50.151   5.517  15.223  0.00  0.00    +0.000 HD
BRANCH  21  24
ATOM     24  C   UNL     1      50.658   4.841  17.654  0.00  0.00    +0.000 A 
ATOM     25  C   UNL     1      51.669   5.567  18.268  0.00  0.00    +0.000 A 
ATOM     26  S   UNL     1      52.965   4.606  18.818  0.00  0.00    +0.000 S 
ATOM     27  C   UNL     1      52.247   3.190  18.206  0.00  0.00    +0.000 A 
ATOM     28  N   UNL     1      52.866   1.986  18.323  0.00  0.00    +0.000 NA
ATOM     29  C   UNL     1      52.224   1.001  17.787  0.00  0.00    +0.000 A 
ATOM     30  N   UNL     1      51.018   1.112  17.147  0.00  0.00    +0.000 N 
ATOM     31  C   UNL     1      50.341   2.304  17.029  0.00  0.00    +0.000 A 
ATOM     32  O   UNL     1      49.243   2.362  16.487  0.00  0.00    +0.000 OA
ATOM     33  C   UNL     1      51.025   3.445  17.607  0.00  0.00    +0.000 A 
ATOM     34  H   UNL     1      50.563   0.299  16.757  0.00  0.00    +0.000 HD
ENDBRANCH  21  24
ENDBRANCH  19  20
ENDBRANCH   5  19
TORSDOF 7
ENDMDL
MODEL 2
REMARK VINA RESULT:    -7.905      2.419      2.768
REMARK INTER + INTRA:         -11.671
REMARK INTER:                 -10.871
REMARK INTRA:                  -0.800
REMARK UNBOUND:                -0.532
REMARK  Name = 
REMARK  7 active torsions:
REMARK  status: ('A' for Active; 'I' for Inactive)
REMARK    1  A    between atoms: C_2  and  C_3
REMARK    2  A    between atoms: C_3  and  C_4
REMARK    3  A    between atoms: C_3  and  N_11
REMARK    4  A    between atoms: C_4  and  C_5
REMARK    5  A    between atoms: C_15  and  C_16
REMARK    6  A    between atoms: C_16  and  N_17
REMARK    7  A    between atoms: C_18  and  C_20
REMARK                            x       y       z     vdW  Elec       q    Type
REMARK                         _______ _______ _______ _____ _____    ______ ____
ROOT
ATOM      1  N   UNL     1      44.913   3.741  12.382  0.00  0.00    +0.000 N 
ATOM      2  C   UNL     1      45.842   4.642  12.945  0.00  0.00    +0.000 A 
ATOM      3  C   UNL     1      46.764   4.153  13.865  0.00  0.00    +0.000 A 
ATOM      4  C   UNL     1      47.726   5.011  14.397  0.00  0.00    +0.000 A 
ATOM      5  C   UNL     1      47.717   6.363  14.055  0.00  0.00    +0.000 A 
ATOM      6  C   UNL     1      46.718   6.775  13.183  0.00  0.00    +0.000 A 
ATOM      7  N   UNL     1      45.802   5.947  12.621  0.00  0.00    +0.000 NA
ATOM      8  H   UNL     1      45.389   2.850  12.255  0.00  0.00    +0.000 HD
ENDROOT
BRANCH   1   9
ATOM      9  C   UNL     1      44.359   4.219  11.091  0.00  0.00    +0.000 C 
BRANCH   9  11
ATOM     10  N   UNL     1      42.075   5.526  11.437  0.00  0.00    +0.000 NA
ATOM     11  C   UNL     1      43.060   4.934  11.252  0.00  0.00    +0.000 C 
ENDBRANCH   9  11
BRANCH   9  12
ATOM     12  C   UNL     1      44.135   3.011  10.140  0.00  0.00    +0.000 C 
BRANCH  12  13
ATOM     13  C   UNL     1      45.172   2.878   9.039  0.00  0.00    +0.000 A 
ATOM     14  C   UNL     1      45.598   4.011   8.330  0.00  0.00    +0.000 A 
ATOM     15  C   UNL     1      46.527   3.891   7.294  0.00  0.00    +0.000 A 
ATOM     16  C   UNL     1      47.047   2.642   6.961  0.00  0.00    +0.000 A 
ATOM     17  C   UNL     1      46.647   1.513   7.672  0.00  0.00    +0.000 A 
ATOM     18  C   UNL     1      45.719   1.630   8.709  0.00  0.00    +0.000 A 
ENDBRANCH  12  13
ENDBRANCH   9  12
ENDBRANCH   1   9
BRANCH   5  19
ATOM     19  C   UNL     1      48.758   7.317  14.563  0.00  0.00    +0.000 C 
BRANCH  19  20
ATOM     20  N   UNL     1      48.750   7.425  16.001  0.00  0.00    +0.000 N 
ATOM     21  C   UNL     1      49.668   6.752  16.768  0.00  0.00    +0.000 C 
ATOM     22  O   UNL     1      50.566   6.082  16.265  0.00  0.00    +0.000 OA
ATOM     23  H   UNL     1      47.915   7.796  16.443  0.00  0.00    +0.000 HD
BRANCH  21  24
ATOM     24  C   UNL     1      49.557   6.921  18.222  0.00  0.00    +0.000 A 
ATOM     25  C   UNL     1      49.857   8.150  18.795  0.00  0.00    +0.000 A 
ATOM     26  S   UNL     1      49.628   8.191  20.484  0.00  0.00    +0.000 S 
ATOM     27  C   UNL     1      49.172   6.552  20.518  0.00  0.00    +0.000 A 
ATOM     28  N   UNL     1      48.862   5.938  21.690  0.00  0.00    +0.000 NA
ATOM     29  C   UNL     1      48.564   4.686  21.574  0.00  0.00    +0.000 A 
ATOM     30  N   UNL     1      48.546   3.995  20.390  0.00  0.00    +0.000 N 
ATOM     31  C   UNL     1      48.825   4.581  19.178  0.00  0.00    +0.000 A 
ATOM     32  O   UNL     1      48.759   3.944  18.132  0.00  0.00    +0.000 OA
ATOM     33  C   UNL     1      49.176   5.986  19.255  0.00  0.00    +0.000 A 
ATOM     34  H   UNL     1      48.294   3.017  20.368  0.00  0.00    +0.000 HD
ENDBRANCH  21  24
ENDBRANCH  19  20
ENDBRANCH   5  19
TORSDOF 7
ENDMDL
MODEL 3
REMARK VINA RESULT:    -7.765      3.587      4.347
REMARK INTER + INTRA:         -11.474
REMARK INTER:                 -10.998
REMARK INTRA:                  -0.477
REMARK UNBOUND:                -0.532
REMARK  Name = 
REMARK  7 active torsions:
REMARK  status: ('A' for Active; 'I' for Inactive)
REMARK    1  A    between atoms: C_2  and  C_3
REMARK    2  A    between atoms: C_3  and  C_4
REMARK    3  A    between atoms: C_3  and  N_11
REMARK    4  A    between atoms: C_4  and  C_5
REMARK    5  A    between atoms: C_15  and  C_16
REMARK    6  A    between atoms: C_16  and  N_17
REMARK    7  A    between atoms: C_18  and  C_20
REMARK                            x       y       z     vdW  Elec       q    Type
REMARK                         _______ _______ _______ _____ _____    ______ ____
ROOT
ATOM      1  N   UNL     1      45.324   4.307  11.882  0.00  0.00    +0.000 N 
ATOM      2  C   UNL     1      45.930   5.449  12.447  0.00  0.00    +0.000 A 
ATOM      3  C   UNL     1      47.133   5.292  13.128  0.00  0.00    +0.000 A 
ATOM      4  C   UNL     1      47.779   6.410  13.651  0.00  0.00    +0.000 A 
ATOM      5  C   UNL     1      47.184   7.668  13.547  0.00  0.00    +0.000 A 
ATOM      6  C   UNL     1      45.951   7.720  12.912  0.00  0.00    +0.000 A 
ATOM      7  N   UNL     1      45.330   6.649  12.358  0.00  0.00    +0.000 NA
ATOM      8  H   UNL     1      46.068   3.703  11.539  0.00  0.00    +0.000 HD
ENDROOT
BRANCH   1   9
ATOM      9  C   UNL     1      44.382   4.640  10.785  0.00  0.00    +0.000 C 
BRANCH   9  11
ATOM     10  N   UNL     1      42.071   5.544  11.724  0.00  0.00    +0.000 NA
ATOM     11  C   UNL     1      43.084   5.178  11.283  0.00  0.00    +0.000 C 
ENDBRANCH   9  11
BRANCH   9  12
ATOM     12  C   UNL     1      44.090   3.367   9.943  0.00  0.00    +0.000 C 
BRANCH  12  13
ATOM     13  C   UNL     1      45.150   3.044   8.905  0.00  0.00    +0.000 A 
ATOM     14  C   UNL     1      45.600   1.725   8.742  0.00  0.00    +0.000 A 
ATOM     15  C   UNL     1      46.598   1.427   7.811  0.00  0.00    +0.000 A 
ATOM     16  C   UNL     1      47.150   2.439   7.029  0.00  0.00    +0.000 A 
ATOM     17  C   UNL     1      46.697   3.748   7.168  0.00  0.00    +0.000 A 
ATOM     18  C   UNL     1      45.699   4.050   8.096  0.00  0.00    +0.000 A 
ENDBRANCH  12  13
ENDBRANCH   9  12
ENDBRANCH   1   9
BRANCH   5  19
ATOM     19  C   UNL     1      47.860   8.910  14.052  0.00  0.00    +0.000 C 
BRANCH  19  20
ATOM     20  N   UNL     1      47.571   9.166  15.442  0.00  0.00    +0.000 N 
ATOM     21  C   UNL     1      48.480   8.859  16.424  0.00  0.00    +0.000 C 
ATOM     22  O   UNL     1      49.593   8.411  16.159  0.00  0.00    +0.000 OA
ATOM     23  H   UNL     1      46.605   9.340  15.700  0.00  0.00    +0.000 HD
BRANCH  21  24
ATOM     24  C   UNL     1      48.075   9.147  17.805  0.00  0.00    +0.000 A 
ATOM     25  C   UNL     1      47.841  10.460  18.192  0.00  0.00    +0.000 A 
ATOM     26  S   UNL     1      47.330  10.615  19.811  0.00  0.00    +0.000 S 
ATOM     27  C   UNL     1      47.457   8.939  20.070  0.00  0.00    +0.000 A 
ATOM     28  N   UNL     1      47.180   8.397  21.285  0.00  0.00    +0.000 NA
ATOM     29  C   UNL     1      47.347   7.117  21.350  0.00  0.00    +0.000 A 
ATOM     30  N   UNL     1      47.764   6.331  20.308  0.00  0.00    +0.000 N 
ATOM     31  C   UNL     1      48.028   6.831  19.054  0.00  0.00    +0.000 A 
ATOM     32  O   UNL     1      48.358   6.094  18.131  0.00  0.00    +0.000 OA
ATOM     33  C   UNL     1      47.865   8.267  18.930  0.00  0.00    +0.000 A 
ATOM     34  H   UNL     1      47.866   5.333  20.422  0.00  0.00    +0.000 HD
ENDBRANCH  21  24
ENDBRANCH  19  20
ENDBRANCH   5  19
TORSDOF 7
ENDMDL
MODEL 4
REMARK VINA RESULT:    -7.369      3.860      9.093
REMARK INTER + INTRA:         -10.916
REMARK INTER:                  -9.473
REMARK INTRA:                  -1.442
REMARK UNBOUND:                -0.532
REMARK  Name = 
REMARK  7 active torsions:
REMARK  status: ('A' for Active; 'I' for Inactive)
REMARK    1  A    between atoms: C_2  and  C_3
REMARK    2  A    between atoms: C_3  and  C_4
REMARK    3  A    between atoms: C_3  and  N_11
REMARK    4  A    between atoms: C_4  and  C_5
REMARK    5  A    between atoms: C_15  and  C_16
REMARK    6  A    between atoms: C_16  and  N_17
REMARK    7  A    between atoms: C_18  and  C_20
REMARK                            x       y       z     vdW  Elec       q    Type
REMARK                         _______ _______ _______ _____ _____    ______ ____
ROOT
ATOM      1  N   UNL     1      50.677   7.875  16.680  0.00  0.00    +0.000 N 
ATOM      2  C   UNL     1      49.964   7.913  15.463  0.00  0.00    +0.000 A 
ATOM      3  C   UNL     1      50.685   7.969  14.275  0.00  0.00    +0.000 A 
ATOM      4  C   UNL     1      50.007   7.956  13.057  0.00  0.00    +0.000 A 
ATOM      5  C   UNL     1      48.613   7.953  13.038  0.00  0.00    +0.000 A 
ATOM      6  C   UNL     1      47.976   7.966  14.271  0.00  0.00    +0.000 A 
ATOM      7  N   UNL     1      48.619   7.934  15.466  0.00  0.00    +0.000 NA
ATOM      8  H   UNL     1      51.516   7.319  16.527  0.00  0.00    +0.000 HD
ENDROOT
BRANCH   1   9
ATOM      9  C   UNL     1      49.879   7.308  17.796  0.00  0.00    +0.000 C 
BRANCH   9  11
ATOM     10  N   UNL     1      49.787   8.976  19.856  0.00  0.00    +0.000 NA
ATOM     11  C   UNL     1      49.817   8.213  18.978  0.00  0.00    +0.000 C 
ENDBRANCH   9  11
BRANCH   9  12
ATOM     12  C   UNL     1      50.501   5.957  18.248  0.00  0.00    +0.000 C 
BRANCH  12  13
ATOM     13  C   UNL     1      49.817   4.728  17.676  0.00  0.00    +0.000 A 
ATOM     14  C   UNL     1      48.492   4.804  17.222  0.00  0.00    +0.000 A 
ATOM     15  C   UNL     1      47.847   3.669  16.725  0.00  0.00    +0.000 A 
ATOM     16  C   UNL     1      48.519   2.451  16.668  0.00  0.00    +0.000 A 
ATOM     17  C   UNL     1      49.842   2.368  17.096  0.00  0.00    +0.000 A 
ATOM     18  C   UNL     1      50.490   3.500  17.592  0.00  0.00    +0.000 A 
ENDBRANCH  12  13
ENDBRANCH   9  12
ENDBRANCH   1   9
BRANCH   5  19
ATOM     19  C   UNL     1      47.836   7.891  11.755  0.00  0.00    +0.000 C 
BRANCH  19  20
ATOM     20  N   UNL     1      47.087   6.664  11.625  0.00  0.00    +0.000 N 
ATOM     21  C   UNL     1      45.718   6.657  11.714  0.00  0.00    +0.000 C 
ATOM     22  O   UNL     1      45.072   7.694  11.848  0.00  0.00    +0.000 OA
ATOM     23  H   UNL     1      47.593   5.789  11.717  0.00  0.00    +0.000 HD
BRANCH  21  24
ATOM     24  C   UNL     1      45.060   5.351  11.584  0.00  0.00    +0.000 A 
ATOM     25  C   UNL     1      44.378   4.815  12.669  0.00  0.00    +0.000 A 
ATOM     26  S   UNL     1      43.629   3.321  12.336  0.00  0.00    +0.000 S 
ATOM     27  C   UNL     1      44.234   3.309  10.746  0.00  0.00    +0.000 A 
ATOM     28  N   UNL     1      43.977   2.270   9.908  0.00  0.00    +0.000 NA
ATOM     29  C   UNL     1      44.524   2.377   8.742  0.00  0.00    +0.000 A 
ATOM     30  N   UNL     1      45.302   3.430   8.338  0.00  0.00    +0.000 N 
ATOM     31  C   UNL     1      45.565   4.515   9.141  0.00  0.00    +0.000 A 
ATOM     32  O   UNL     1      46.231   5.462   8.734  0.00  0.00    +0.000 OA
ATOM     33  C   UNL     1      44.982   4.440  10.467  0.00  0.00    +0.000 A 
ATOM     34  H   UNL     1      45.692   3.456   7.407  0.00  0.00    +0.000 HD
ENDBRANCH  21  24
ENDBRANCH  19  20
ENDBRANCH   5  19
TORSDOF 7
ENDMDL
MODEL 5
REMARK VINA RESULT:    -7.315      2.678      3.459
REMARK INTER + INTRA:         -10.841
REMARK INTER:                 -10.033
REMARK INTRA:                  -0.808
REMARK UNBOUND:                -0.532
REMARK  Name = 
REMARK  7 active torsions:
REMARK  status: ('A' for Active; 'I' for Inactive)
REMARK    1  A    between atoms: C_2  and  C_3
REMARK    2  A    between atoms: C_3  and  C_4
REMARK    3  A    between atoms: C_3  and  N_11
REMARK    4  A    between atoms: C_4  and  C_5
REMARK    5  A    between atoms: C_15  and  C_16
REMARK    6  A    between atoms: C_16  and  N_17
REMARK    7  A    between atoms: C_18  and  C_20
REMARK                            x       y       z     vdW  Elec       q    Type
REMARK                         _______ _______ _______ _____ _____    ______ ____
ROOT
ATOM      1  N   UNL     1      45.736   4.705  10.289  0.00  0.00    +0.000 N 
ATOM      2  C   UNL     1      45.959   5.791  11.161  0.00  0.00    +0.000 A 
ATOM      3  C   UNL     1      47.223   6.373  11.184  0.00  0.00    +0.000 A 
ATOM      4  C   UNL     1      47.455   7.480  11.998  0.00  0.00    +0.000 A 
ATOM      5  C   UNL     1      46.442   7.956  12.831  0.00  0.00    +0.000 A 
ATOM      6  C   UNL     1      45.235   7.272  12.792  0.00  0.00    +0.000 A 
ATOM      7  N   UNL     1      44.977   6.221  11.974  0.00  0.00    +0.000 NA
ATOM      8  H   UNL     1      46.271   4.878   9.440  0.00  0.00    +0.000 HD
ENDROOT
BRANCH   1   9
ATOM      9  C   UNL     1      44.300   4.513   9.965  0.00  0.00    +0.000 C 
BRANCH   9  11
ATOM     10  N   UNL     1      43.160   2.716  11.548  0.00  0.00    +0.000 NA
ATOM     11  C   UNL     1      43.632   3.533  10.866  0.00  0.00    +0.000 C 
ENDBRANCH   9  11
BRANCH   9  12
ATOM     12  C   UNL     1      44.159   4.006   8.502  0.00  0.00    +0.000 C 
BRANCH  12  13
ATOM     13  C   UNL     1      45.312   3.142   8.023  0.00  0.00    +0.000 A 
ATOM     14  C   UNL     1      46.257   3.660   7.126  0.00  0.00    +0.000 A 
ATOM     15  C   UNL     1      47.302   2.861   6.657  0.00  0.00    +0.000 A 
ATOM     16  C   UNL     1      47.418   1.539   7.083  0.00  0.00    +0.000 A 
ATOM     17  C   UNL     1      46.496   1.020   7.989  0.00  0.00    +0.000 A 
ATOM     18  C   UNL     1      45.453   1.817   8.462  0.00  0.00    +0.000 A 
ENDBRANCH  12  13
ENDBRANCH   9  12
ENDBRANCH   1   9
BRANCH   5  19
ATOM     19  C   UNL     1      46.627   9.173  13.690  0.00  0.00    +0.000 C 
BRANCH  19  20
ATOM     20  N   UNL     1      47.225   8.859  14.965  0.00  0.00    +0.000 N 
ATOM     21  C   UNL     1      48.560   9.076  15.195  0.00  0.00    +0.000 C 
ATOM     22  O   UNL     1      49.286   9.597  14.352  0.00  0.00    +0.000 OA
ATOM     23  H   UNL     1      46.708   8.252  15.594  0.00  0.00    +0.000 HD
BRANCH  21  24
ATOM     24  C   UNL     1      49.066   8.705  16.522  0.00  0.00    +0.000 A 
ATOM     25  C   UNL     1      49.509   9.696  17.389  0.00  0.00    +0.000 A 
ATOM     26  S   UNL     1      50.014   9.102  18.905  0.00  0.00    +0.000 S 
ATOM     27  C   UNL     1      49.713   7.494  18.438  0.00  0.00    +0.000 A 
ATOM     28  N   UNL     1      49.964   6.461  19.285  0.00  0.00    +0.000 NA
ATOM     29  C   UNL     1      49.719   5.293  18.791  0.00  0.00    +0.000 A 
ATOM     30  N   UNL     1      49.242   5.065  17.527  0.00  0.00    +0.000 N 
ATOM     31  C   UNL     1      48.946   6.079  16.646  0.00  0.00    +0.000 A 
ATOM     32  O   UNL     1      48.480   5.843  15.536  0.00  0.00    +0.000 OA
ATOM     33  C   UNL     1      49.214   7.413  17.149  0.00  0.00    +0.000 A 
ATOM     34  H   UNL     1      49.062   4.125  17.205  0.00  0.00    +0.000 HD
ENDBRANCH  21  24
ENDBRANCH  19  20
ENDBRANCH   5  19
TORSDOF 7
ENDMDL
MODEL 6
REMARK VINA RESULT:    -6.398      6.013      7.475
REMARK INTER + INTRA:          -9.548
REMARK INTER:                  -8.608
REMARK INTRA:                  -0.940
REMARK UNBOUND:                -0.532
REMARK  Name = 
REMARK  7 active torsions:
REMARK  status: ('A' for Active; 'I' for Inactive)
REMARK    1  A    between atoms: C_2  and  C_3
REMARK    2  A    between atoms: C_3  and  C_4
REMARK    3  A    between atoms: C_3  and  N_11
REMARK    4  A    between atoms: C_4  and  C_5
REMARK    5  A    between atoms: C_15  and  C_16
REMARK    6  A    between atoms: C_16  and  N_17
REMARK    7  A    between atoms: C_18  and  C_20
REMARK                            x       y       z     vdW  Elec       q    Type
REMARK                         _______ _______ _______ _____ _____    ______ ____
ROOT
ATOM      1  N   UNL     1      46.189   7.027  13.013  0.00  0.00    +0.000 N 
ATOM      2  C   UNL     1      47.539   7.361  12.775  0.00  0.00    +0.000 A 
ATOM      3  C   UNL     1      48.465   7.134  13.788  0.00  0.00    +0.000 A 
ATOM      4  C   UNL     1      49.813   7.407  13.561  0.00  0.00    +0.000 A 
ATOM      5  C   UNL     1      50.214   7.965  12.348  0.00  0.00    +0.000 A 
ATOM      6  C   UNL     1      49.213   8.222  11.422  0.00  0.00    +0.000 A 
ATOM      7  N   UNL     1      47.903   7.922  11.608  0.00  0.00    +0.000 NA
ATOM      8  H   UNL     1      46.177   6.183  13.581  0.00  0.00    +0.000 HD
ENDROOT
BRANCH   1   9
ATOM      9  C   UNL     1      45.420   6.818  11.761  0.00  0.00    +0.000 C 
BRANCH   9  11
ATOM     10  N   UNL     1      43.796   8.835  11.184  0.00  0.00    +0.000 NA
ATOM     11  C   UNL     1      44.481   7.938  11.467  0.00  0.00    +0.000 C 
ENDBRANCH   9  11
BRANCH   9  12
ATOM     12  C   UNL     1      44.593   5.506  11.870  0.00  0.00    +0.000 C 
BRANCH  12  13
ATOM     13  C   UNL     1      44.742   4.569  10.684  0.00  0.00    +0.000 A 
ATOM     14  C   UNL     1      44.212   3.271  10.739  0.00  0.00    +0.000 A 
ATOM     15  C   UNL     1      44.374   2.394   9.664  0.00  0.00    +0.000 A 
ATOM     16  C   UNL     1      45.059   2.805   8.522  0.00  0.00    +0.000 A 
ATOM     17  C   UNL     1      45.572   4.098   8.449  0.00  0.00    +0.000 A 
ATOM     18  C   UNL     1      45.410   4.978   9.520  0.00  0.00    +0.000 A 
ENDBRANCH  12  13
ENDBRANCH   9  12
ENDBRANCH   1   9
BRANCH   5  19
ATOM     19  C   UNL     1      51.658   8.234  12.036  0.00  0.00    +0.000 C 
BRANCH  19  20
ATOM     20  N   UNL     1      52.007   7.862  10.687  0.00  0.00    +0.000 N 
ATOM     21  C   UNL     1      52.796   8.672   9.909  0.00  0.00    +0.000 C 
ATOM     22  O   UNL     1      53.283   9.713  10.345  0.00  0.00    +0.000 OA
ATOM     23  H   UNL     1      51.465   7.128  10.243  0.00  0.00    +0.000 HD
BRANCH  21  24
ATOM     24  C   UNL     1      53.074   8.204   8.546  0.00  0.00    +0.000 A 
ATOM     25  C   UNL     1      52.988   9.094   7.484  0.00  0.00    +0.000 A 
ATOM     26  S   UNL     1      53.391   8.403   5.978  0.00  0.00    +0.000 S 
ATOM     27  C   UNL     1      53.642   6.876   6.684  0.00  0.00    +0.000 A 
ATOM     28  N   UNL     1      53.992   5.804   5.924  0.00  0.00    +0.000 NA
ATOM     29  C   UNL     1      54.120   4.701   6.584  0.00  0.00    +0.000 A 
ATOM     30  N   UNL     1      53.932   4.574   7.936  0.00  0.00    +0.000 N 
ATOM     31  C   UNL     1      53.605   5.634   8.748  0.00  0.00    +0.000 A 
ATOM     32  O   UNL     1      53.485   5.495   9.961  0.00  0.00    +0.000 OA
ATOM     33  C   UNL     1      53.440   6.897   8.054  0.00  0.00    +0.000 A 
ATOM     34  H   UNL     1      54.057   3.682   8.393  0.00  0.00    +0.000 HD
ENDBRANCH  21  24
ENDBRANCH  19  20
ENDBRANCH   5  19
TORSDOF 7
ENDMDL
MODEL 7
REMARK VINA RESULT:    -6.280      1.969      3.300
REMARK INTER + INTRA:          -9.381
REMARK INTER:                  -9.156
REMARK INTRA:                  -0.225
REMARK UNBOUND:                -0.532
REMARK  Name = 
REMARK  7 active torsions:
REMARK  status: ('A' for Active; 'I' for Inactive)
REMARK    1  A    between atoms: C_2  and  C_3
REMARK    2  A    between atoms: C_3  and  C_4
REMARK    3  A    between atoms: C_3  and  N_11
REMARK    4  A    between atoms: C_4  and  C_5
REMARK    5  A    between atoms: C_15  and  C_16
REMARK    6  A    between atoms: C_16  and  N_17
REMARK    7  A    between atoms: C_18  and  C_20
REMARK                            x       y       z     vdW  Elec       q    Type
REMARK                         _______ _______ _______ _____ _____    ______ ____
ROOT
ATOM      1  N   UNL     1      46.953   6.176  11.974  0.00  0.00    +0.000 N 
ATOM      2  C   UNL     1      47.984   6.710  12.776  0.00  0.00    +0.000 A 
ATOM      3  C   UNL     1      48.776   7.724  12.247  0.00  0.00    +0.000 A 
ATOM      4  C   UNL     1      49.768   8.304  13.035  0.00  0.00    +0.000 A 
ATOM      5  C   UNL     1      50.004   7.821  14.322  0.00  0.00    +0.000 A 
ATOM      6  C   UNL     1      49.212   6.762  14.742  0.00  0.00    +0.000 A 
ATOM      7  N   UNL     1      48.213   6.214  14.005  0.00  0.00    +0.000 NA
ATOM      8  H   UNL     1      46.563   6.941  11.427  0.00  0.00    +0.000 HD
ENDROOT
BRANCH   1   9
ATOM      9  C   UNL     1      45.889   5.517  12.772  0.00  0.00    +0.000 C 
BRANCH   9  11
ATOM     10  N   UNL     1      46.662   3.129  13.632  0.00  0.00    +0.000 NA
ATOM     11  C   UNL     1      46.284   4.162  13.251  0.00  0.00    +0.000 C 
ENDBRANCH   9  11
BRANCH   9  12
ATOM     12  C   UNL     1      44.604   5.373  11.909  0.00  0.00    +0.000 C 
BRANCH  12  13
ATOM     13  C   UNL     1      44.776   4.523  10.663  0.00  0.00    +0.000 A 
ATOM     14  C   UNL     1      44.294   3.206  10.634  0.00  0.00    +0.000 A 
ATOM     15  C   UNL     1      44.478   2.409   9.502  0.00  0.00    +0.000 A 
ATOM     16  C   UNL     1      45.137   2.920   8.386  0.00  0.00    +0.000 A 
ATOM     17  C   UNL     1      45.602   4.232   8.396  0.00  0.00    +0.000 A 
ATOM     18  C   UNL     1      45.418   5.033   9.524  0.00  0.00    +0.000 A 
ENDBRANCH  12  13
ENDBRANCH   9  12
ENDBRANCH   1   9
BRANCH   5  19
ATOM     19  C   UNL     1      51.028   8.442  15.227  0.00  0.00    +0.000 C 
BRANCH  19  20
ATOM     20  N   UNL     1      51.907   7.462  15.816  0.00  0.00    +0.000 N 
ATOM     21  C   UNL     1      51.831   7.153  17.151  0.00  0.00    +0.000 C 
ATOM     22  O   UNL     1      50.979   7.650  17.884  0.00  0.00    +0.000 OA
ATOM     23  H   UNL     1      52.734   7.193  15.294  0.00  0.00    +0.000 HD
BRANCH  21  24
ATOM     24  C   UNL     1      52.784   6.153  17.648  0.00  0.00    +0.000 A 
ATOM     25  C   UNL     1      54.065   6.548  18.014  0.00  0.00    +0.000 A 
ATOM     26  S   UNL     1      55.027   5.276  18.616  0.00  0.00    +0.000 S 
ATOM     27  C   UNL     1      53.786   4.141  18.358  0.00  0.00    +0.000 A 
ATOM     28  N   UNL     1      53.971   2.826  18.648  0.00  0.00    +0.000 NA
ATOM     29  C   UNL     1      52.958   2.072  18.374  0.00  0.00    +0.000 A 
ATOM     30  N   UNL     1      51.777   2.515  17.840  0.00  0.00    +0.000 N 
ATOM     31  C   UNL     1      51.535   3.839  17.558  0.00  0.00    +0.000 A 
ATOM     32  O   UNL     1      50.451   4.209  17.119  0.00  0.00    +0.000 OA
ATOM     33  C   UNL     1      52.645   4.729  17.837  0.00  0.00    +0.000 A 
ATOM     34  H   UNL     1      51.019   1.873  17.658  0.00  0.00    +0.000 HD
ENDBRANCH  21  24
ENDBRANCH  19  20
ENDBRANCH   5  19
TORSDOF 7
ENDMDL
MODEL 8
REMARK VINA RESULT:    -6.279      3.322      4.706
REMARK INTER + INTRA:          -9.379
REMARK INTER:                  -8.415
REMARK INTRA:                  -0.964
REMARK UNBOUND:                -0.532
REMARK  Name = 
REMARK  7 active torsions:
REMARK  status: ('A' for Active; 'I' for Inactive)
REMARK    1  A    between atoms: C_2  and  C_3
REMARK    2  A    between atoms: C_3  and  C_4
REMARK    3  A    between atoms: C_3  and  N_11
REMARK    4  A    between atoms: C_4  and  C_5
REMARK    5  A    between atoms: C_15  and  C_16
REMARK    6  A    between atoms: C_16  and  N_17
REMARK    7  A    between atoms: C_18  and  C_20
REMARK                            x       y       z     vdW  Elec       q    Type
REMARK                         _______ _______ _______ _____ _____    ______ ____
ROOT
ATOM      1  N   UNL     1      46.239   9.114  13.428  0.00  0.00    +0.000 N 
ATOM      2  C   UNL     1      47.438   8.610  13.976  0.00  0.00    +0.000 A 
ATOM      3  C   UNL     1      47.748   8.927  15.295  0.00  0.00    +0.000 A 
ATOM      4  C   UNL     1      48.900   8.400  15.876  0.00  0.00    +0.000 A 
ATOM      5  C   UNL     1      49.766   7.615  15.115  0.00  0.00    +0.000 A 
ATOM      6  C   UNL     1      49.412   7.407  13.790  0.00  0.00    +0.000 A 
ATOM      7  N   UNL     1      48.273   7.875  13.219  0.00  0.00    +0.000 NA
ATOM      8  H   UNL     1      45.539   9.111  14.167  0.00  0.00    +0.000 HD
ENDROOT
BRANCH   1   9
ATOM      9  C   UNL     1      45.764   8.327  12.263  0.00  0.00    +0.000 C 
BRANCH   9  11
ATOM     10  N   UNL     1      43.966   9.575  10.763  0.00  0.00    +0.000 NA
ATOM     11  C   UNL     1      44.746   9.054  11.453  0.00  0.00    +0.000 C 
ENDBRANCH   9  11
BRANCH   9  12
ATOM     12  C   UNL     1      45.134   6.994  12.756  0.00  0.00    +0.000 C 
BRANCH  12  13
ATOM     13  C   UNL     1      44.837   5.994  11.653  0.00  0.00    +0.000 A 
ATOM     14  C   UNL     1      43.674   5.211  11.704  0.00  0.00    +0.000 A 
ATOM     15  C   UNL     1      43.412   4.266  10.709  0.00  0.00    +0.000 A 
ATOM     16  C   UNL     1      44.302   4.098   9.651  0.00  0.00    +0.000 A 
ATOM     17  C   UNL     1      45.450   4.884   9.579  0.00  0.00    +0.000 A 
ATOM     18  C   UNL     1      45.714   5.831  10.570  0.00  0.00    +0.000 A 
ENDBRANCH  12  13
ENDBRANCH   9  12
ENDBRANCH   1   9
BRANCH   5  19
ATOM     19  C   UNL     1      50.993   6.985  15.707  0.00  0.00    +0.000 C 
BRANCH  19  20
ATOM     20  N   UNL     1      50.853   6.730  17.120  0.00  0.00    +0.000 N 
ATOM     21  C   UNL     1      50.528   5.481  17.586  0.00  0.00    +0.000 C 
ATOM     22  O   UNL     1      50.402   4.520  16.831  0.00  0.00    +0.000 OA
ATOM     23  H   UNL     1      50.751   7.529  17.737  0.00  0.00    +0.000 HD
BRANCH  21  24
ATOM     24  C   UNL     1      50.395   5.338  19.041  0.00  0.00    +0.000 A 
ATOM     25  C   UNL     1      51.515   5.043  19.807  0.00  0.00    +0.000 A 
ATOM     26  S   UNL     1      51.198   4.962  21.480  0.00  0.00    +0.000 S 
ATOM     27  C   UNL     1      49.542   5.264  21.237  0.00  0.00    +0.000 A 
ATOM     28  N   UNL     1      48.677   5.301  22.285  0.00  0.00    +0.000 NA
ATOM     29  C   UNL     1      47.445   5.508  21.954  0.00  0.00    +0.000 A 
ATOM     30  N   UNL     1      47.001   5.684  20.670  0.00  0.00    +0.000 N 
ATOM     31  C   UNL     1      47.842   5.682  19.582  0.00  0.00    +0.000 A 
ATOM     32  O   UNL     1      47.419   5.884  18.448  0.00  0.00    +0.000 OA
ATOM     33  C   UNL     1      49.237   5.443  19.898  0.00  0.00    +0.000 A 
ATOM     34  H   UNL     1      46.024   5.851  20.480  0.00  0.00    +0.000 HD
ENDBRANCH  21  24
ENDBRANCH  19  20
ENDBRANCH   5  19
TORSDOF 7
ENDMDL
MODEL 9
REMARK VINA RESULT:    -6.251      3.383      4.511
REMARK INTER + INTRA:          -9.340
REMARK INTER:                  -8.968
REMARK INTRA:                  -0.372
REMARK UNBOUND:                -0.532
REMARK  Name = 
REMARK  7 active torsions:
REMARK  status: ('A' for Active; 'I' for Inactive)
REMARK    1  A    between atoms: C_2  and  C_3
REMARK    2  A    between atoms: C_3  and  C_4
REMARK    3  A    between atoms: C_3  and  N_11
REMARK    4  A    between atoms: C_4  and  C_5
REMARK    5  A    between atoms: C_15  and  C_16
REMARK    6  A    between atoms: C_16  and  N_17
REMARK    7  A    between atoms: C_18  and  C_20
REMARK                            x       y       z     vdW  Elec       q    Type
REMARK                         _______ _______ _______ _____ _____    ______ ____
ROOT
ATOM      1  N   UNL     1      46.625   6.160  11.490  0.00  0.00    +0.000 N 
ATOM      2  C   UNL     1      47.357   7.005  12.351  0.00  0.00    +0.000 A 
ATOM      3  C   UNL     1      48.132   8.014  11.788  0.00  0.00    +0.000 A 
ATOM      4  C   UNL     1      48.824   8.894  12.618  0.00  0.00    +0.000 A 
ATOM      5  C   UNL     1      48.789   8.718  14.001  0.00  0.00    +0.000 A 
ATOM      6  C   UNL     1      48.046   7.645  14.471  0.00  0.00    +0.000 A 
ATOM      7  N   UNL     1      47.330   6.805  13.681  0.00  0.00    +0.000 NA
ATOM      8  H   UNL     1      46.297   6.727  10.711  0.00  0.00    +0.000 HD
ENDROOT
BRANCH   1   9
ATOM      9  C   UNL     1      45.480   5.501  12.168  0.00  0.00    +0.000 C 
BRANCH   9  11
ATOM     10  N   UNL     1      46.199   3.200  13.275  0.00  0.00    +0.000 NA
ATOM     11  C   UNL     1      45.860   4.218  12.823  0.00  0.00    +0.000 C 
ENDBRANCH   9  11
BRANCH   9  12
ATOM     12  C   UNL     1      44.360   5.207  11.132  0.00  0.00    +0.000 C 
BRANCH  12  13
ATOM     13  C   UNL     1      44.761   4.242  10.031  0.00  0.00    +0.000 A 
ATOM     14  C   UNL     1      44.392   2.891  10.107  0.00  0.00    +0.000 A 
ATOM     15  C   UNL     1      44.785   1.992   9.113  0.00  0.00    +0.000 A 
ATOM     16  C   UNL     1      45.544   2.432   8.031  0.00  0.00    +0.000 A 
ATOM     17  C   UNL     1      45.899   3.775   7.934  0.00  0.00    +0.000 A 
ATOM     18  C   UNL     1      45.506   4.677   8.924  0.00  0.00    +0.000 A 
ENDBRANCH  12  13
ENDBRANCH   9  12
ENDBRANCH   1   9
BRANCH   5  19
ATOM     19  C   UNL     1      49.478   9.666  14.939  0.00  0.00    +0.000 C 
BRANCH  19  20
ATOM     20  N   UNL     1      49.021   9.521  16.300  0.00  0.00    +0.000 N 
ATOM     21  C   UNL     1      49.736   8.786  17.213  0.00  0.00    +0.000 C 
ATOM     22  O   UNL     1      50.817   8.275  16.929  0.00  0.00    +0.000 OA
ATOM     23  H   UNL     1      48.055   9.754  16.502  0.00  0.00    +0.000 HD
BRANCH  21  24
ATOM     24  C   UNL     1      49.171   8.691  18.564  0.00  0.00    +0.000 A 
ATOM     25  C   UNL     1      49.288   9.767  19.434  0.00  0.00    +0.000 A 
ATOM     26  S   UNL     1      48.535   9.512  20.942  0.00  0.00    +0.000 S 
ATOM     27  C   UNL     1      48.073   7.934  20.507  0.00  0.00    +0.000 A 
ATOM     28  N   UNL     1      47.399   7.138  21.379  0.00  0.00    +0.000 NA
ATOM     29  C   UNL     1      47.139   5.954  20.930  0.00  0.00    +0.000 A 
ATOM     30  N   UNL     1      47.490   5.497  19.687  0.00  0.00    +0.000 N 
ATOM     31  C   UNL     1      48.146   6.275  18.762  0.00  0.00    +0.000 A 
ATOM     32  O   UNL     1      48.409   5.849  17.642  0.00  0.00    +0.000 OA
ATOM     33  C   UNL     1      48.471   7.612  19.221  0.00  0.00    +0.000 A 
ATOM     34  H   UNL     1      47.247   4.562  19.393  0.00  0.00    +0.000 HD
ENDBRANCH  21  24
ENDBRANCH  19  20
ENDBRANCH   5  19
TORSDOF 7
ENDMDL
