MODEL 1
REMARK VINA RESULT:    -7.968      0.000      0.000
REMARK INTER + INTRA:         -11.564
REMARK INTER:                 -10.762
REMARK INTRA:                  -0.802
REMARK UNBOUND:                -0.802
REMARK  Name = 
REMARK  7 active torsions:
REMARK  status: ('A' for Active; 'I' for Inactive)
REMARK    1  A    between atoms: C_1  and  O_2
REMARK    2  A    between atoms: O_2  and  C_3
REMARK    3  A    between atoms: C_6  and  N_7
REMARK    4  A    between atoms: N_7  and  C_8
REMARK    5  A    between atoms: C_8  and  C_9
REMARK    6  A    between atoms: C_13  and  C_14
REMARK    7  A    between atoms: C_22  and  C_23
REMARK                            x       y       z     vdW  Elec       q    Type
REMARK                         _______ _______ _______ _____ _____    ______ ____
ROOT
ATOM      1  C   UNL     1      43.270   6.188  11.049  0.00  0.00    +0.000 C 
ENDROOT
BRANCH   1   2
ATOM      2  C   UNL     1      43.644   4.748  10.788  0.00  0.00    +0.000 A 
ATOM      3  C   UNL     1      43.130   3.702  11.552  0.00  0.00    +0.000 A 
ATOM      4  C   UNL     1      43.428   2.399  11.180  0.00  0.00    +0.000 A 
ATOM      5  N   UNL     1      44.211   2.073  10.129  0.00  0.00    +0.000 NA
ATOM      6  C   UNL     1      44.750   3.087   9.407  0.00  0.00    +0.000 A 
ATOM      7  C   UNL     1      44.473   4.422   9.708  0.00  0.00    +0.000 A 
BRANCH   6   8
ATOM      8  C   UNL     1      45.635   2.695   8.289  0.00  0.00    +0.000 A 
ATOM      9  C   UNL     1      45.919   3.585   7.239  0.00  0.00    +0.000 A 
ATOM     10  C   UNL     1      46.762   3.222   6.184  0.00  0.00    +0.000 A 
ATOM     11  C   UNL     1      47.337   1.954   6.157  0.00  0.00    +0.000 A 
ATOM     12  C   UNL     1      47.066   1.050   7.178  0.00  0.00    +0.000 A 
ATOM     13  C   UNL     1      46.221   1.416   8.229  0.00  0.00    +0.000 A 
ENDBRANCH   6   8
ENDBRANCH   1   2
BRANCH   1  14
ATOM     14  N   UNL     1      43.815   6.730  12.282  0.00  0.00    +0.000 N 
ATOM     15  H   UNL     1      43.198   6.701  13.082  0.00  0.00    +0.000 HD
BRANCH  14  19
ATOM     16  C   UNL     1      47.844   6.378  13.343  0.00  0.00    +0.000 A 
ATOM     17  C   UNL     1      47.339   7.404  12.554  0.00  0.00    +0.000 A 
ATOM     18  N   UNL     1      46.049   7.522  12.152  0.00  0.00    +0.000 NA
ATOM     19  C   UNL     1      45.169   6.581  12.547  0.00  0.00    +0.000 A 
ATOM     20  C   UNL     1      45.576   5.527  13.357  0.00  0.00    +0.000 A 
ATOM     21  C   UNL     1      46.914   5.426  13.764  0.00  0.00    +0.000 A 
BRANCH  16  23
ATOM     22  C   UNL     1      49.502   7.234  14.835  0.00  0.00    +0.000 C 
ATOM     23  O   UNL     1      49.164   6.493  13.668  0.00  0.00    +0.000 OA
ENDBRANCH  16  23
BRANCH  21  24
ATOM     24  C   UNL     1      47.213   4.346  14.660  0.00  0.00    +0.000 C 
ATOM     25  N   UNL     1      47.440   3.458  15.365  0.00  0.00    +0.000 NA
ENDBRANCH  21  24
ENDBRANCH  14  19
ENDBRANCH   1  14
TORSDOF 6
ENDMDL
MODEL 2
REMARK VINA RESULT:    -7.378      2.633      6.723
REMARK INTER + INTRA:         -10.768
REMARK INTER:                  -9.986
REMARK INTRA:                  -0.782
REMARK UNBOUND:                -0.802
REMARK  Name = 
REMARK  7 active torsions:
REMARK  status: ('A' for Active; 'I' for Inactive)
REMARK    1  A    between atoms: C_1  and  O_2
REMARK    2  A    between atoms: O_2  and  C_3
REMARK    3  A    between atoms: C_6  and  N_7
REMARK    4  A    between atoms: N_7  and  C_8
REMARK    5  A    between atoms: C_8  and  C_9
REMARK    6  A    between atoms: C_13  and  C_14
REMARK    7  A    between atoms: C_22  and  C_23
REMARK                            x       y       z     vdW  Elec       q    Type
REMARK                         _______ _______ _______ _____ _____    ______ ____
ROOT
ATOM      1  C   UNL     1      44.032   4.917  10.810  0.00  0.00    +0.000 C 
ENDROOT
BRANCH   1   2
ATOM      2  C   UNL     1      45.212   5.138  11.728  0.00  0.00    +0.000 A 
ATOM      3  C   UNL     1      45.507   4.264  12.773  0.00  0.00    +0.000 A 
ATOM      4  C   UNL     1      46.671   4.468  13.499  0.00  0.00    +0.000 A 
ATOM      5  N   UNL     1      47.535   5.481  13.274  0.00  0.00    +0.000 NA
ATOM      6  C   UNL     1      47.232   6.360  12.287  0.00  0.00    +0.000 A 
ATOM      7  C   UNL     1      46.091   6.203  11.499  0.00  0.00    +0.000 A 
BRANCH   6   8
ATOM      8  C   UNL     1      48.178   7.480  12.096  0.00  0.00    +0.000 A 
ATOM      9  C   UNL     1      47.728   8.810  12.027  0.00  0.00    +0.000 A 
ATOM     10  C   UNL     1      48.620   9.873  11.856  0.00  0.00    +0.000 A 
ATOM     11  C   UNL     1      49.985   9.625  11.746  0.00  0.00    +0.000 A 
ATOM     12  C   UNL     1      50.458   8.319  11.800  0.00  0.00    +0.000 A 
ATOM     13  C   UNL     1      49.563   7.259  11.970  0.00  0.00    +0.000 A 
ENDBRANCH   6   8
ENDBRANCH   1   2
BRANCH   1  14
ATOM     14  N   UNL     1      44.009   3.609  10.176  0.00  0.00    +0.000 N 
ATOM     15  H   UNL     1      43.103   3.166  10.123  0.00  0.00    +0.000 HD
BRANCH  14  19
ATOM     16  C   UNL     1      46.836   2.783   7.207  0.00  0.00    +0.000 A 
ATOM     17  C   UNL     1      46.406   4.064   7.531  0.00  0.00    +0.000 A 
ATOM     18  N   UNL     1      45.458   4.364   8.453  0.00  0.00    +0.000 NA
ATOM     19  C   UNL     1      44.880   3.349   9.127  0.00  0.00    +0.000 A 
ATOM     20  C   UNL     1      45.260   2.035   8.888  0.00  0.00    +0.000 A 
ATOM     21  C   UNL     1      46.245   1.747   7.932  0.00  0.00    +0.000 A 
BRANCH  16  23
ATOM     22  C   UNL     1      47.531   2.205   4.996  0.00  0.00    +0.000 C 
ATOM     23  O   UNL     1      47.840   2.725   6.285  0.00  0.00    +0.000 OA
ENDBRANCH  16  23
BRANCH  21  24
ATOM     24  C   UNL     1      46.618   0.367   7.817  0.00  0.00    +0.000 C 
ATOM     25  N   UNL     1      46.895  -0.753   7.737  0.00  0.00    +0.000 NA
ENDBRANCH  21  24
ENDBRANCH  14  19
ENDBRANCH   1  14
TORSDOF 6
ENDMDL
MODEL 3
REMARK VINA RESULT:    -7.320      1.646      2.081
REMARK INTER + INTRA:         -10.690
REMARK INTER:                  -9.882
REMARK INTRA:                  -0.808
REMARK UNBOUND:                -0.802
REMARK  Name = 
REMARK  7 active torsions:
REMARK  status: ('A' for Active; 'I' for Inactive)
REMARK    1  A    between atoms: C_1  and  O_2
REMARK    2  A    between atoms: O_2  and  C_3
REMARK    3  A    between atoms: C_6  and  N_7
REMARK    4  A    between atoms: N_7  and  C_8
REMARK    5  A    between atoms: C_8  and  C_9
REMARK    6  A    between atoms: C_13  and  C_14
REMARK    7  A    between atoms: C_22  and  C_23
REMARK                            x       y       z     vdW  Elec       q    Type
REMARK                         _______ _______ _______ _____ _____    ______ ____
ROOT
ATOM      1  C   UNL     1      45.098   5.830  12.752  0.00  0.00    +0.000 C 
ENDROOT
BRANCH   1   2
ATOM      2  C   UNL     1      44.697   4.617  11.946  0.00  0.00    +0.000 A 
ATOM      3  C   UNL     1      43.617   3.814  12.310  0.00  0.00    +0.000 A 
ATOM      4  C   UNL     1      43.238   2.787  11.458  0.00  0.00    +0.000 A 
ATOM      5  N   UNL     1      43.866   2.494  10.299  0.00  0.00    +0.000 NA
ATOM      6  C   UNL     1      44.944   3.245   9.960  0.00  0.00    +0.000 A 
ATOM      7  C   UNL     1      45.367   4.310  10.756  0.00  0.00    +0.000 A 
BRANCH   6   8
ATOM      8  C   UNL     1      45.632   2.871   8.706  0.00  0.00    +0.000 A 
ATOM      9  C   UNL     1      45.893   3.825   7.707  0.00  0.00    +0.000 A 
ATOM     10  C   UNL     1      46.551   3.478   6.523  0.00  0.00    +0.000 A 
ATOM     11  C   UNL     1      46.960   2.164   6.313  0.00  0.00    +0.000 A 
ATOM     12  C   UNL     1      46.707   1.197   7.280  0.00  0.00    +0.000 A 
ATOM     13  C   UNL     1      46.047   1.547   8.461  0.00  0.00    +0.000 A 
ENDBRANCH   6   8
ENDBRANCH   1   2
BRANCH   1  14
ATOM     14  N   UNL     1      46.518   6.136  12.700  0.00  0.00    +0.000 N 
ATOM     15  H   UNL     1      46.776   6.907  12.100  0.00  0.00    +0.000 HD
BRANCH  14  19
ATOM     16  C   UNL     1      48.634   5.716  16.282  0.00  0.00    +0.000 A 
ATOM     17  C   UNL     1      48.872   6.724  15.356  0.00  0.00    +0.000 A 
ATOM     18  N   UNL     1      48.239   6.861  14.165  0.00  0.00    +0.000 NA
ATOM     19  C   UNL     1      47.291   5.960  13.839  0.00  0.00    +0.000 A 
ATOM     20  C   UNL     1      46.967   4.928  14.711  0.00  0.00    +0.000 A 
ATOM     21  C   UNL     1      47.632   4.806  15.939  0.00  0.00    +0.000 A 
BRANCH  16  23
ATOM     22  C   UNL     1      50.705   5.357  17.418  0.00  0.00    +0.000 C 
ATOM     23  O   UNL     1      49.354   5.808  17.437  0.00  0.00    +0.000 OA
ENDBRANCH  16  23
BRANCH  21  24
ATOM     24  C   UNL     1      47.170   3.754  16.797  0.00  0.00    +0.000 C 
ATOM     25  N   UNL     1      46.814   2.887  17.475  0.00  0.00    +0.000 NA
ENDBRANCH  21  24
ENDBRANCH  14  19
ENDBRANCH   1  14
TORSDOF 6
ENDMDL
MODEL 4
REMARK VINA RESULT:    -7.023      1.625      2.849
REMARK INTER + INTRA:         -10.289
REMARK INTER:                  -9.462
REMARK INTRA:                  -0.827
REMARK UNBOUND:                -0.802
REMARK  Name = 
REMARK  7 active torsions:
REMARK  status: ('A' for Active; 'I' for Inactive)
REMARK    1  A    between atoms: C_1  and  O_2
REMARK    2  A    between atoms: O_2  and  C_3
REMARK    3  A    between atoms: C_6  and  N_7
REMARK    4  A    between atoms: N_7  and  C_8
REMARK    5  A    between atoms: C_8  and  C_9
REMARK    6  A    between atoms: C_13  and  C_14
REMARK    7  A    between atoms: C_22  and  C_23
REMARK                            x       y       z     vdW  Elec       q    Type
REMARK                         _______ _______ _______ _____ _____    ______ ____
ROOT
ATOM      1  C   UNL     1      44.137   6.567  11.390  0.00  0.00    +0.000 C 
ENDROOT
BRANCH   1   2
ATOM      2  C   UNL     1      44.151   5.103  11.018  0.00  0.00    +0.000 A 
ATOM      3  C   UNL     1      43.362   4.165  11.682  0.00  0.00    +0.000 A 
ATOM      4  C   UNL     1      43.341   2.861  11.209  0.00  0.00    +0.000 A 
ATOM      5  N   UNL     1      44.059   2.430  10.150  0.00  0.00    +0.000 NA
ATOM      6  C   UNL     1      44.863   3.327   9.526  0.00  0.00    +0.000 A 
ATOM      7  C   UNL     1      44.915   4.661   9.931  0.00  0.00    +0.000 A 
BRANCH   6   8
ATOM      8  C   UNL     1      45.665   2.810   8.397  0.00  0.00    +0.000 A 
ATOM      9  C   UNL     1      46.115   1.477   8.374  0.00  0.00    +0.000 A 
ATOM     10  C   UNL     1      46.866   0.981   7.304  0.00  0.00    +0.000 A 
ATOM     11  C   UNL     1      47.188   1.812   6.234  0.00  0.00    +0.000 A 
ATOM     12  C   UNL     1      46.766   3.136   6.236  0.00  0.00    +0.000 A 
ATOM     13  C   UNL     1      46.016   3.629   7.307  0.00  0.00    +0.000 A 
ENDBRANCH   6   8
ENDBRANCH   1   2
BRANCH   1  14
ATOM     14  N   UNL     1      44.726   6.856  12.686  0.00  0.00    +0.000 N 
ATOM     15  H   UNL     1      44.365   6.316  13.461  0.00  0.00    +0.000 HD
BRANCH  14  19
ATOM     16  C   UNL     1      48.754   7.978  12.628  0.00  0.00    +0.000 A 
ATOM     17  C   UNL     1      48.319   6.658  12.641  0.00  0.00    +0.000 A 
ATOM     18  N   UNL     1      47.024   6.260  12.709  0.00  0.00    +0.000 NA
ATOM     19  C   UNL     1      46.067   7.208  12.759  0.00  0.00    +0.000 A 
ATOM     20  C   UNL     1      46.403   8.555  12.728  0.00  0.00    +0.000 A 
ATOM     21  C   UNL     1      47.748   8.946  12.655  0.00  0.00    +0.000 A 
BRANCH  16  23
ATOM     22  C   UNL     1      50.709   7.756  11.273  0.00  0.00    +0.000 C 
ATOM     23  O   UNL     1      50.102   8.141  12.502  0.00  0.00    +0.000 OA
ENDBRANCH  16  23
BRANCH  21  24
ATOM     24  C   UNL     1      47.984  10.357  12.551  0.00  0.00    +0.000 C 
ATOM     25  N   UNL     1      48.182  11.495  12.494  0.00  0.00    +0.000 NA
ENDBRANCH  21  24
ENDBRANCH  14  19
ENDBRANCH   1  14
TORSDOF 6
ENDMDL
MODEL 5
REMARK VINA RESULT:    -6.907      2.168      3.101
REMARK INTER + INTRA:         -10.132
REMARK INTER:                  -9.265
REMARK INTRA:                  -0.867
REMARK UNBOUND:                -0.802
REMARK  Name = 
REMARK  7 active torsions:
REMARK  status: ('A' for Active; 'I' for Inactive)
REMARK    1  A    between atoms: C_1  and  O_2
REMARK    2  A    between atoms: O_2  and  C_3
REMARK    3  A    between atoms: C_6  and  N_7
REMARK    4  A    between atoms: N_7  and  C_8
REMARK    5  A    between atoms: C_8  and  C_9
REMARK    6  A    between atoms: C_13  and  C_14
REMARK    7  A    between atoms: C_22  and  C_23
REMARK                            x       y       z     vdW  Elec       q    Type
REMARK                         _______ _______ _______ _____ _____    ______ ____
ROOT
ATOM      1  C   UNL     1      44.629   6.132  12.880  0.00  0.00    +0.000 C 
ENDROOT
BRANCH   1   2
ATOM      2  C   UNL     1      44.395   4.842  12.131  0.00  0.00    +0.000 A 
ATOM      3  C   UNL     1      43.443   3.911  12.545  0.00  0.00    +0.000 A 
ATOM      4  C   UNL     1      43.203   2.805  11.742  0.00  0.00    +0.000 A 
ATOM      5  N   UNL     1      43.853   2.555  10.585  0.00  0.00    +0.000 NA
ATOM      6  C   UNL     1      44.811   3.435  10.198  0.00  0.00    +0.000 A 
ATOM      7  C   UNL     1      45.088   4.582  10.943  0.00  0.00    +0.000 A 
BRANCH   6   8
ATOM      8  C   UNL     1      45.531   3.108   8.949  0.00  0.00    +0.000 A 
ATOM      9  C   UNL     1      45.888   1.784   8.640  0.00  0.00    +0.000 A 
ATOM     10  C   UNL     1      46.561   1.469   7.455  0.00  0.00    +0.000 A 
ATOM     11  C   UNL     1      46.894   2.477   6.554  0.00  0.00    +0.000 A 
ATOM     12  C   UNL     1      46.562   3.796   6.839  0.00  0.00    +0.000 A 
ATOM     13  C   UNL     1      45.891   4.108   8.024  0.00  0.00    +0.000 A 
ENDBRANCH   6   8
ENDBRANCH   1   2
BRANCH   1  14
ATOM     14  N   UNL     1      46.011   6.349  13.273  0.00  0.00    +0.000 N 
ATOM     15  H   UNL     1      46.540   5.514  13.487  0.00  0.00    +0.000 HD
BRANCH  14  19
ATOM     16  C   UNL     1      48.321   9.499  11.781  0.00  0.00    +0.000 A 
ATOM     17  C   UNL     1      47.057   9.661  12.334  0.00  0.00    +0.000 A 
ATOM     18  N   UNL     1      46.262   8.658  12.782  0.00  0.00    +0.000 NA
ATOM     19  C   UNL     1      46.723   7.394  12.701  0.00  0.00    +0.000 A 
ATOM     20  C   UNL     1      47.985   7.133  12.182  0.00  0.00    +0.000 A 
ATOM     21  C   UNL     1      48.792   8.186  11.727  0.00  0.00    +0.000 A 
BRANCH  16  23
ATOM     22  C   UNL     1      48.233  11.876  11.561  0.00  0.00    +0.000 C 
ATOM     23  O   UNL     1      48.960  10.657  11.446  0.00  0.00    +0.000 OA
ENDBRANCH  16  23
BRANCH  21  24
ATOM     24  C   UNL     1      50.105   7.818  11.282  0.00  0.00    +0.000 C 
ATOM     25  N   UNL     1      51.171   7.549  10.922  0.00  0.00    +0.000 NA
ENDBRANCH  21  24
ENDBRANCH  14  19
ENDBRANCH   1  14
TORSDOF 6
ENDMDL
MODEL 6
REMARK VINA RESULT:    -6.736      1.703      2.688
REMARK INTER + INTRA:          -9.900
REMARK INTER:                  -9.041
REMARK INTRA:                  -0.859
REMARK UNBOUND:                -0.802
REMARK  Name = 
REMARK  7 active torsions:
REMARK  status: ('A' for Active; 'I' for Inactive)
REMARK    1  A    between atoms: C_1  and  O_2
REMARK    2  A    between atoms: O_2  and  C_3
REMARK    3  A    between atoms: C_6  and  N_7
REMARK    4  A    between atoms: N_7  and  C_8
REMARK    5  A    between atoms: C_8  and  C_9
REMARK    6  A    between atoms: C_13  and  C_14
REMARK    7  A    between atoms: C_22  and  C_23
REMARK                            x       y       z     vdW  Elec       q    Type
REMARK                         _______ _______ _______ _____ _____    ______ ____
ROOT
ATOM      1  C   UNL     1      44.768   6.311  12.373  0.00  0.00    +0.000 C 
ENDROOT
BRANCH   1   2
ATOM      2  C   UNL     1      44.506   4.971  11.728  0.00  0.00    +0.000 A 
ATOM      3  C   UNL     1      43.532   4.097  12.210  0.00  0.00    +0.000 A 
ATOM      4  C   UNL     1      43.269   2.937  11.496  0.00  0.00    +0.000 A 
ATOM      5  N   UNL     1      43.916   2.582  10.365  0.00  0.00    +0.000 NA
ATOM      6  C   UNL     1      44.895   3.406   9.914  0.00  0.00    +0.000 A 
ATOM      7  C   UNL     1      45.196   4.603  10.567  0.00  0.00    +0.000 A 
BRANCH   6   8
ATOM      8  C   UNL     1      45.610   2.966   8.698  0.00  0.00    +0.000 A 
ATOM      9  C   UNL     1      45.999   1.626   8.527  0.00  0.00    +0.000 A 
ATOM     10  C   UNL     1      46.667   1.202   7.374  0.00  0.00    +0.000 A 
ATOM     11  C   UNL     1      46.965   2.116   6.366  0.00  0.00    +0.000 A 
ATOM     12  C   UNL     1      46.601   3.450   6.513  0.00  0.00    +0.000 A 
ATOM     13  C   UNL     1      45.934   3.869   7.667  0.00  0.00    +0.000 A 
ENDBRANCH   6   8
ENDBRANCH   1   2
BRANCH   1  14
ATOM     14  N   UNL     1      45.723   7.139  11.658  0.00  0.00    +0.000 N 
ATOM     15  H   UNL     1      45.325   7.819  11.026  0.00  0.00    +0.000 HD
BRANCH  14  19
ATOM     16  C   UNL     1      49.358   7.974  13.549  0.00  0.00    +0.000 A 
ATOM     17  C   UNL     1      48.134   7.938  14.207  0.00  0.00    +0.000 A 
ATOM     18  N   UNL     1      46.933   7.719  13.616  0.00  0.00    +0.000 NA
ATOM     19  C   UNL     1      46.905   7.507  12.285  0.00  0.00    +0.000 A 
ATOM     20  C   UNL     1      48.081   7.502  11.546  0.00  0.00    +0.000 A 
ATOM     21  C   UNL     1      49.313   7.728  12.176  0.00  0.00    +0.000 A 
BRANCH  16  23
ATOM     22  C   UNL     1      50.649   7.235  15.419  0.00  0.00    +0.000 C 
ATOM     23  O   UNL     1      50.443   8.159  14.355  0.00  0.00    +0.000 OA
ENDBRANCH  16  23
BRANCH  21  24
ATOM     24  C   UNL     1      50.472   7.625  11.337  0.00  0.00    +0.000 C 
ATOM     25  N   UNL     1      51.389   7.538  10.637  0.00  0.00    +0.000 NA
ENDBRANCH  21  24
ENDBRANCH  14  19
ENDBRANCH   1  14
TORSDOF 6
ENDMDL
MODEL 7
REMARK VINA RESULT:    -6.569      2.129      3.156
REMARK INTER + INTRA:          -9.675
REMARK INTER:                  -8.962
REMARK INTRA:                  -0.713
REMARK UNBOUND:                -0.802
REMARK  Name = 
REMARK  7 active torsions:
REMARK  status: ('A' for Active; 'I' for Inactive)
REMARK    1  A    between atoms: C_1  and  O_2
REMARK    2  A    between atoms: O_2  and  C_3
REMARK    3  A    between atoms: C_6  and  N_7
REMARK    4  A    between atoms: N_7  and  C_8
REMARK    5  A    between atoms: C_8  and  C_9
REMARK    6  A    between atoms: C_13  and  C_14
REMARK    7  A    between atoms: C_22  and  C_23
REMARK                            x       y       z     vdW  Elec       q    Type
REMARK                         _______ _______ _______ _____ _____    ______ ____
ROOT
ATOM      1  C   UNL     1      46.132   7.284  12.508  0.00  0.00    +0.000 C 
ENDROOT
BRANCH   1   2
ATOM      2  C   UNL     1      45.254   6.323  11.742  0.00  0.00    +0.000 A 
ATOM      3  C   UNL     1      43.869   6.300  11.903  0.00  0.00    +0.000 A 
ATOM      4  C   UNL     1      43.120   5.472  11.081  0.00  0.00    +0.000 A 
ATOM      5  N   UNL     1      43.648   4.660  10.140  0.00  0.00    +0.000 NA
ATOM      6  C   UNL     1      44.998   4.646  10.008  0.00  0.00    +0.000 A 
ATOM      7  C   UNL     1      45.814   5.471  10.783  0.00  0.00    +0.000 A 
BRANCH   6   8
ATOM      8  C   UNL     1      45.545   3.716   8.997  0.00  0.00    +0.000 A 
ATOM      9  C   UNL     1      46.171   4.193   7.832  0.00  0.00    +0.000 A 
ATOM     10  C   UNL     1      46.698   3.317   6.878  0.00  0.00    +0.000 A 
ATOM     11  C   UNL     1      46.606   1.941   7.069  0.00  0.00    +0.000 A 
ATOM     12  C   UNL     1      45.983   1.441   8.207  0.00  0.00    +0.000 A 
ATOM     13  C   UNL     1      45.457   2.319   9.158  0.00  0.00    +0.000 A 
ENDBRANCH   6   8
ENDBRANCH   1   2
BRANCH   1  14
ATOM     14  N   UNL     1      47.422   6.736  12.889  0.00  0.00    +0.000 N 
ATOM     15  H   UNL     1      48.229   7.243  12.552  0.00  0.00    +0.000 HD
BRANCH  14  19
ATOM     16  C   UNL     1      48.088   4.790  16.531  0.00  0.00    +0.000 A 
ATOM     17  C   UNL     1      47.243   4.308  15.539  0.00  0.00    +0.000 A 
ATOM     18  N   UNL     1      46.967   4.936  14.369  0.00  0.00    +0.000 NA
ATOM     19  C   UNL     1      47.559   6.122  14.127  0.00  0.00    +0.000 A 
ATOM     20  C   UNL     1      48.438   6.676  15.050  0.00  0.00    +0.000 A 
ATOM     21  C   UNL     1      48.711   6.008  16.252  0.00  0.00    +0.000 A 
BRANCH  16  23
ATOM     22  C   UNL     1      49.244   2.941  17.506  0.00  0.00    +0.000 C 
ATOM     23  O   UNL     1      48.256   3.962  17.602  0.00  0.00    +0.000 OA
ENDBRANCH  16  23
BRANCH  21  24
ATOM     24  C   UNL     1      49.690   6.626  17.100  0.00  0.00    +0.000 C 
ATOM     25  N   UNL     1      50.492   7.133  17.761  0.00  0.00    +0.000 NA
ENDBRANCH  21  24
ENDBRANCH  14  19
ENDBRANCH   1  14
TORSDOF 6
ENDMDL
MODEL 8
REMARK VINA RESULT:    -6.498      1.932      3.120
REMARK INTER + INTRA:          -9.580
REMARK INTER:                  -8.913
REMARK INTRA:                  -0.667
REMARK UNBOUND:                -0.802
REMARK  Name = 
REMARK  7 active torsions:
REMARK  status: ('A' for Active; 'I' for Inactive)
REMARK    1  A    between atoms: C_1  and  O_2
REMARK    2  A    between atoms: O_2  and  C_3
REMARK    3  A    between atoms: C_6  and  N_7
REMARK    4  A    between atoms: N_7  and  C_8
REMARK    5  A    between atoms: C_8  and  C_9
REMARK    6  A    between atoms: C_13  and  C_14
REMARK    7  A    between atoms: C_22  and  C_23
REMARK                            x       y       z     vdW  Elec       q    Type
REMARK                         _______ _______ _______ _____ _____    ______ ____
ROOT
ATOM      1  C   UNL     1      45.486   4.943  13.852  0.00  0.00    +0.000 C 
ENDROOT
BRANCH   1   2
ATOM      2  C   UNL     1      44.771   4.767  12.533  0.00  0.00    +0.000 A 
ATOM      3  C   UNL     1      43.485   5.263  12.319  0.00  0.00    +0.000 A 
ATOM      4  C   UNL     1      42.940   5.164  11.047  0.00  0.00    +0.000 A 
ATOM      5  N   UNL     1      43.569   4.593   9.997  0.00  0.00    +0.000 NA
ATOM      6  C   UNL     1      44.802   4.070  10.209  0.00  0.00    +0.000 A 
ATOM      7  C   UNL     1      45.423   4.156  11.456  0.00  0.00    +0.000 A 
BRANCH   6   8
ATOM      8  C   UNL     1      45.443   3.417   9.048  0.00  0.00    +0.000 A 
ATOM      9  C   UNL     1      45.879   4.166   7.941  0.00  0.00    +0.000 A 
ATOM     10  C   UNL     1      46.494   3.554   6.844  0.00  0.00    +0.000 A 
ATOM     11  C   UNL     1      46.683   2.174   6.832  0.00  0.00    +0.000 A 
ATOM     12  C   UNL     1      46.253   1.408   7.909  0.00  0.00    +0.000 A 
ATOM     13  C   UNL     1      45.637   2.023   9.003  0.00  0.00    +0.000 A 
ENDBRANCH   6   8
ENDBRANCH   1   2
BRANCH   1  14
ATOM     14  N   UNL     1      46.929   5.057  13.735  0.00  0.00    +0.000 N 
ATOM     15  H   UNL     1      47.416   4.205  13.494  0.00  0.00    +0.000 HD
BRANCH  14  19
ATOM     16  C   UNL     1      48.469   8.545  12.017  0.00  0.00    +0.000 A 
ATOM     17  C   UNL     1      49.223   7.402  12.255  0.00  0.00    +0.000 A 
ATOM     18  N   UNL     1      48.768   6.273  12.853  0.00  0.00    +0.000 NA
ATOM     19  C   UNL     1      47.480   6.234  13.248  0.00  0.00    +0.000 A 
ATOM     20  C   UNL     1      46.642   7.321  13.033  0.00  0.00    +0.000 A 
ATOM     21  C   UNL     1      47.132   8.478  12.409  0.00  0.00    +0.000 A 
BRANCH  16  23
ATOM     22  C   UNL     1      49.970  10.401  12.108  0.00  0.00    +0.000 C 
ATOM     23  O   UNL     1      49.123   9.541  11.353  0.00  0.00    +0.000 OA
ENDBRANCH  16  23
BRANCH  21  24
ATOM     24  C   UNL     1      46.167   9.511  12.165  0.00  0.00    +0.000 C 
ATOM     25  N   UNL     1      45.370  10.330  11.984  0.00  0.00    +0.000 NA
ENDBRANCH  21  24
ENDBRANCH  14  19
ENDBRANCH   1  14
TORSDOF 6
ENDMDL
MODEL 9
REMARK VINA RESULT:    -6.229      2.604      4.767
REMARK INTER + INTRA:          -9.216
REMARK INTER:                  -8.373
REMARK INTRA:                  -0.843
REMARK UNBOUND:                -0.802
REMARK  Name = 
REMARK  7 active torsions:
REMARK  status: ('A' for Active; 'I' for Inactive)
REMARK    1  A    between atoms: C_1  and  O_2
REMARK    2  A    between atoms: O_2  and  C_3
REMARK    3  A    between atoms: C_6  and  N_7
REMARK    4  A    between atoms: N_7  and  C_8
REMARK    5  A    between atoms: C_8  and  C_9
REMARK    6  A    between atoms: C_13  and  C_14
REMARK    7  A    between atoms: C_22  and  C_23
REMARK                            x       y       z     vdW  Elec       q    Type
REMARK                         _______ _______ _______ _____ _____    ______ ____
ROOT
ATOM      1  C   UNL     1      48.718   7.873  13.484  0.00  0.00    +0.000 C 
ENDROOT
BRANCH   1   2
ATOM      2  C   UNL     1      47.356   7.730  12.848  0.00  0.00    +0.000 A 
ATOM      3  C   UNL     1      46.418   8.761  12.873  0.00  0.00    +0.000 A 
ATOM      4  C   UNL     1      45.234   8.598  12.167  0.00  0.00    +0.000 A 
ATOM      5  N   UNL     1      44.916   7.486  11.471  0.00  0.00    +0.000 NA
ATOM      6  C   UNL     1      45.805   6.462  11.478  0.00  0.00    +0.000 A 
ATOM      7  C   UNL     1      47.027   6.565  12.145  0.00  0.00    +0.000 A 
BRANCH   6   8
ATOM      8  C   UNL     1      45.406   5.245  10.740  0.00  0.00    +0.000 A 
ATOM      9  C   UNL     1      45.548   5.162   9.343  0.00  0.00    +0.000 A 
ATOM     10  C   UNL     1      45.181   4.010   8.641  0.00  0.00    +0.000 A 
ATOM     11  C   UNL     1      44.659   2.915   9.324  0.00  0.00    +0.000 A 
ATOM     12  C   UNL     1      44.498   2.972  10.704  0.00  0.00    +0.000 A 
ATOM     13  C   UNL     1      44.865   4.126  11.402  0.00  0.00    +0.000 A 
ENDBRANCH   6   8
ENDBRANCH   1   2
BRANCH   1  14
ATOM     14  N   UNL     1      48.695   7.912  14.937  0.00  0.00    +0.000 N 
ATOM     15  H   UNL     1      47.942   8.447  15.347  0.00  0.00    +0.000 HD
BRANCH  14  19
ATOM     16  C   UNL     1      49.824   4.663  17.315  0.00  0.00    +0.000 A 
ATOM     17  C   UNL     1      50.676   5.707  16.977  0.00  0.00    +0.000 A 
ATOM     18  N   UNL     1      50.358   6.750  16.170  0.00  0.00    +0.000 NA
ATOM     19  C   UNL     1      49.114   6.798  15.651  0.00  0.00    +0.000 A 
ATOM     20  C   UNL     1      48.185   5.810  15.950  0.00  0.00    +0.000 A 
ATOM     21  C   UNL     1      48.534   4.743  16.789  0.00  0.00    +0.000 A 
BRANCH  16  23
ATOM     22  C   UNL     1      51.737   3.468  18.101  0.00  0.00    +0.000 C 
ATOM     23  O   UNL     1      50.344   3.750  18.185  0.00  0.00    +0.000 OA
ENDBRANCH  16  23
BRANCH  21  24
ATOM     24  C   UNL     1      47.479   3.819  17.095  0.00  0.00    +0.000 C 
ATOM     25  N   UNL     1      46.644   3.055  17.329  0.00  0.00    +0.000 NA
ENDBRANCH  21  24
ENDBRANCH  14  19
ENDBRANCH   1  14
TORSDOF 6
ENDMDL
