MODEL 1
REMARK VINA RESULT:    -8.115      0.000      0.000
REMARK INTER + INTRA:         -12.874
REMARK INTER:                 -11.436
REMARK INTRA:                  -1.437
REMARK UNBOUND:                -1.437
REMARK  Name = 
REMARK  9 active torsions:
REMARK  status: ('A' for Active; 'I' for Inactive)
REMARK    1  A    between atoms: C_1  and  O_2
REMARK    2  A    between atoms: O_2  and  C_3
REMARK    3  A    between atoms: C_5  and  O_6
REMARK    4  A    between atoms: O_6  and  C_7
REMARK    5  A    between atoms: C_7  and  C_8
REMARK    6  A    between atoms: C_8  and  C_9
REMARK    7  A    between atoms: C_8  and  C_10
REMARK    8  A    between atoms: C_14  and  C_15
REMARK    9  A    between atoms: C_24  and  C_25
REMARK                            x       y       z     vdW  Elec       q    Type
REMARK                         _______ _______ _______ _____ _____    ______ ____
ROOT
ATOM      1  C   UNL     1      43.624   4.681  10.582  0.00  0.00    +0.000 C 
ENDROOT
BRANCH   1   2
ATOM      2  C   UNL     1      43.798   4.798  12.104  0.00  0.00    +0.000 C 
ATOM      3  C   UNL     1      43.563   3.449  12.786  0.00  0.00    +0.000 C 
BRANCH   2   4
ATOM      4  C   UNL     1      45.181   5.337  12.435  0.00  0.00    +0.000 A 
ATOM      5  C   UNL     1      45.819   6.231  11.584  0.00  0.00    +0.000 A 
ATOM      6  C   UNL     1      47.092   6.684  11.918  0.00  0.00    +0.000 A 
ATOM      7  C   UNL     1      47.691   6.245  13.096  0.00  0.00    +0.000 A 
ATOM      8  C   UNL     1      46.995   5.368  13.923  0.00  0.00    +0.000 A 
ATOM      9  N   UNL     1      45.753   4.924  13.594  0.00  0.00    +0.000 NA
BRANCH   8  10
ATOM     10  C   UNL     1      47.528   4.874  15.212  0.00  0.00    +0.000 A 
ATOM     11  C   UNL     1      48.285   5.725  16.042  0.00  0.00    +0.000 A 
ATOM     12  C   UNL     1      48.810   5.283  17.260  0.00  0.00    +0.000 A 
ATOM     13  C   UNL     1      48.583   3.978  17.680  0.00  0.00    +0.000 A 
ATOM     14  C   UNL     1      47.836   3.114  16.883  0.00  0.00    +0.000 A 
ATOM     15  C   UNL     1      47.313   3.560  15.663  0.00  0.00    +0.000 A 
ENDBRANCH   8  10
ENDBRANCH   2   4
ENDBRANCH   1   2
BRANCH   1  16
ATOM     16  O   UNL     1      43.678   3.312  10.150  0.00  0.00    +0.000 OA
BRANCH  16  19
ATOM     17  C   UNL     1      46.290   1.614   8.100  0.00  0.00    +0.000 A 
ATOM     18  C   UNL     1      45.327   1.826   9.095  0.00  0.00    +0.000 A 
ATOM     19  C   UNL     1      44.631   3.033   9.200  0.00  0.00    +0.000 A 
ATOM     20  C   UNL     1      44.917   4.056   8.298  0.00  0.00    +0.000 A 
ATOM     21  C   UNL     1      45.870   3.861   7.291  0.00  0.00    +0.000 A 
ATOM     22  C   UNL     1      46.558   2.638   7.173  0.00  0.00    +0.000 A 
BRANCH  22  23
ATOM     23  C   UNL     1      47.515   2.499   6.029  0.00  0.00    +0.000 C 
ATOM     24  N   UNL     1      48.853   2.473   6.304  0.00  0.00    +0.000 N 
ATOM     25  O   UNL     1      47.125   2.390   4.870  0.00  0.00    +0.000 OA
ATOM     26  H   UNL     1      49.193   2.616   7.252  0.00  0.00    +0.000 HD
ATOM     27  H   UNL     1      49.511   2.390   5.548  0.00  0.00    +0.000 HD
ENDBRANCH  22  23
BRANCH  17  29
ATOM     28  C   UNL     1      46.483  -0.620   7.279  0.00  0.00    +0.000 C 
ATOM     29  O   UNL     1      47.028   0.457   8.034  0.00  0.00    +0.000 OA
ENDBRANCH  17  29
ENDBRANCH  16  19
ENDBRANCH   1  16
TORSDOF 7
ENDMDL
MODEL 2
REMARK VINA RESULT:    -7.175      3.335      8.105
REMARK INTER + INTRA:         -11.549
REMARK INTER:                 -10.598
REMARK INTRA:                  -0.951
REMARK UNBOUND:                -1.437
REMARK  Name = 
REMARK  9 active torsions:
REMARK  status: ('A' for Active; 'I' for Inactive)
REMARK    1  A    between atoms: C_1  and  O_2
REMARK    2  A    between atoms: O_2  and  C_3
REMARK    3  A    between atoms: C_5  and  O_6
REMARK    4  A    between atoms: O_6  and  C_7
REMARK    5  A    between atoms: C_7  and  C_8
REMARK    6  A    between atoms: C_8  and  C_9
REMARK    7  A    between atoms: C_8  and  C_10
REMARK    8  A    between atoms: C_14  and  C_15
REMARK    9  A    between atoms: C_24  and  C_25
REMARK                            x       y       z     vdW  Elec       q    Type
REMARK                         _______ _______ _______ _____ _____    ______ ____
ROOT
ATOM      1  C   UNL     1      47.163   7.133  12.214  0.00  0.00    +0.000 C 
ENDROOT
BRANCH   1   2
ATOM      2  C   UNL     1      45.682   7.455  12.468  0.00  0.00    +0.000 C 
ATOM      3  C   UNL     1      45.296   8.791  11.833  0.00  0.00    +0.000 C 
BRANCH   2   4
ATOM      4  C   UNL     1      44.803   6.332  11.940  0.00  0.00    +0.000 A 
ATOM      5  C   UNL     1      43.518   6.140  12.434  0.00  0.00    +0.000 A 
ATOM      6  C   UNL     1      42.756   5.088  11.934  0.00  0.00    +0.000 A 
ATOM      7  C   UNL     1      43.288   4.263  10.947  0.00  0.00    +0.000 A 
ATOM      8  C   UNL     1      44.571   4.517  10.471  0.00  0.00    +0.000 A 
ATOM      9  N   UNL     1      45.315   5.542  10.962  0.00  0.00    +0.000 NA
BRANCH   8  10
ATOM     10  C   UNL     1      45.210   3.722   9.398  0.00  0.00    +0.000 A 
ATOM     11  C   UNL     1      45.849   4.366   8.320  0.00  0.00    +0.000 A 
ATOM     12  C   UNL     1      46.453   3.641   7.288  0.00  0.00    +0.000 A 
ATOM     13  C   UNL     1      46.435   2.251   7.315  0.00  0.00    +0.000 A 
ATOM     14  C   UNL     1      45.814   1.586   8.369  0.00  0.00    +0.000 A 
ATOM     15  C   UNL     1      45.210   2.316   9.400  0.00  0.00    +0.000 A 
ENDBRANCH   8  10
ENDBRANCH   2   4
ENDBRANCH   1   2
BRANCH   1  16
ATOM     16  O   UNL     1      47.973   7.446  13.359  0.00  0.00    +0.000 OA
BRANCH  16  19
ATOM     17  C   UNL     1      48.587   5.614  16.549  0.00  0.00    +0.000 A 
ATOM     18  C   UNL     1      48.635   6.623  15.578  0.00  0.00    +0.000 A 
ATOM     19  C   UNL     1      47.969   6.500  14.357  0.00  0.00    +0.000 A 
ATOM     20  C   UNL     1      47.252   5.334  14.094  0.00  0.00    +0.000 A 
ATOM     21  C   UNL     1      47.186   4.317  15.054  0.00  0.00    +0.000 A 
ATOM     22  C   UNL     1      47.841   4.448  16.293  0.00  0.00    +0.000 A 
BRANCH  22  23
ATOM     23  C   UNL     1      47.665   3.336  17.282  0.00  0.00    +0.000 C 
ATOM     24  N   UNL     1      48.771   2.864  17.928  0.00  0.00    +0.000 N 
ATOM     25  O   UNL     1      46.559   2.863  17.531  0.00  0.00    +0.000 OA
ATOM     26  H   UNL     1      49.699   3.209  17.694  0.00  0.00    +0.000 HD
ATOM     27  H   UNL     1      48.674   2.111  18.588  0.00  0.00    +0.000 HD
ENDBRANCH  22  23
BRANCH  17  29
ATOM     28  C   UNL     1      50.708   5.848  17.620  0.00  0.00    +0.000 C 
ATOM     29  O   UNL     1      49.296   5.696  17.723  0.00  0.00    +0.000 OA
ENDBRANCH  17  29
ENDBRANCH  16  19
ENDBRANCH   1  16
TORSDOF 7
ENDMDL
MODEL 3
REMARK VINA RESULT:    -7.104      3.822      8.925
REMARK INTER + INTRA:         -11.448
REMARK INTER:                 -10.311
REMARK INTRA:                  -1.138
REMARK UNBOUND:                -1.437
REMARK  Name = 
REMARK  9 active torsions:
REMARK  status: ('A' for Active; 'I' for Inactive)
REMARK    1  A    between atoms: C_1  and  O_2
REMARK    2  A    between atoms: O_2  and  C_3
REMARK    3  A    between atoms: C_5  and  O_6
REMARK    4  A    between atoms: O_6  and  C_7
REMARK    5  A    between atoms: C_7  and  C_8
REMARK    6  A    between atoms: C_8  and  C_9
REMARK    7  A    between atoms: C_8  and  C_10
REMARK    8  A    between atoms: C_14  and  C_15
REMARK    9  A    between atoms: C_24  and  C_25
REMARK                            x       y       z     vdW  Elec       q    Type
REMARK                         _______ _______ _______ _____ _____    ______ ____
ROOT
ATOM      1  C   UNL     1      46.749   4.153  14.094  0.00  0.00    +0.000 C 
ENDROOT
BRANCH   1   2
ATOM      2  C   UNL     1      46.001   5.425  13.667  0.00  0.00    +0.000 C 
ATOM      3  C   UNL     1      46.983   6.524  13.258  0.00  0.00    +0.000 C 
BRANCH   2   4
ATOM      4  C   UNL     1      45.038   5.112  12.532  0.00  0.00    +0.000 A 
ATOM      5  C   UNL     1      43.690   5.433  12.634  0.00  0.00    +0.000 A 
ATOM      6  C   UNL     1      42.841   5.111  11.578  0.00  0.00    +0.000 A 
ATOM      7  C   UNL     1      43.359   4.489  10.446  0.00  0.00    +0.000 A 
ATOM      8  C   UNL     1      44.722   4.213  10.388  0.00  0.00    +0.000 A 
ATOM      9  N   UNL     1      45.549   4.525  11.421  0.00  0.00    +0.000 NA
BRANCH   8  10
ATOM     10  C   UNL     1      45.374   3.590   9.215  0.00  0.00    +0.000 A 
ATOM     11  C   UNL     1      45.500   2.188   9.132  0.00  0.00    +0.000 A 
ATOM     12  C   UNL     1      46.119   1.572   8.040  0.00  0.00    +0.000 A 
ATOM     13  C   UNL     1      46.622   2.346   7.001  0.00  0.00    +0.000 A 
ATOM     14  C   UNL     1      46.510   3.733   7.052  0.00  0.00    +0.000 A 
ATOM     15  C   UNL     1      45.890   4.346   8.148  0.00  0.00    +0.000 A 
ENDBRANCH   8  10
ENDBRANCH   2   4
ENDBRANCH   1   2
BRANCH   1  16
ATOM     16  O   UNL     1      46.610   3.909  15.503  0.00  0.00    +0.000 OA
BRANCH  16  19
ATOM     17  C   UNL     1      49.566   5.260  17.332  0.00  0.00    +0.000 A 
ATOM     18  C   UNL     1      48.382   5.224  16.583  0.00  0.00    +0.000 A 
ATOM     19  C   UNL     1      47.767   4.019  16.235  0.00  0.00    +0.000 A 
ATOM     20  C   UNL     1      48.359   2.821  16.633  0.00  0.00    +0.000 A 
ATOM     21  C   UNL     1      49.537   2.836  17.389  0.00  0.00    +0.000 A 
ATOM     22  C   UNL     1      50.147   4.050  17.757  0.00  0.00    +0.000 A 
BRANCH  22  23
ATOM     23  C   UNL     1      51.371   3.970  18.616  0.00  0.00    +0.000 C 
ATOM     24  N   UNL     1      51.278   4.378  19.916  0.00  0.00    +0.000 N 
ATOM     25  O   UNL     1      52.435   3.531  18.185  0.00  0.00    +0.000 OA
ATOM     26  H   UNL     1      50.419   4.793  20.272  0.00  0.00    +0.000 HD
ATOM     27  H   UNL     1      52.092   4.341  20.505  0.00  0.00    +0.000 HD
ENDBRANCH  22  23
BRANCH  17  29
ATOM     28  C   UNL     1      49.586   7.317  18.542  0.00  0.00    +0.000 C 
ATOM     29  O   UNL     1      50.214   6.437  17.617  0.00  0.00    +0.000 OA
ENDBRANCH  17  29
ENDBRANCH  16  19
ENDBRANCH   1  16
TORSDOF 7
ENDMDL
MODEL 4
REMARK VINA RESULT:    -6.822      3.988      6.132
REMARK INTER + INTRA:         -11.050
REMARK INTER:                 -10.325
REMARK INTRA:                  -0.725
REMARK UNBOUND:                -1.437
REMARK  Name = 
REMARK  9 active torsions:
REMARK  status: ('A' for Active; 'I' for Inactive)
REMARK    1  A    between atoms: C_1  and  O_2
REMARK    2  A    between atoms: O_2  and  C_3
REMARK    3  A    between atoms: C_5  and  O_6
REMARK    4  A    between atoms: O_6  and  C_7
REMARK    5  A    between atoms: C_7  and  C_8
REMARK    6  A    between atoms: C_8  and  C_9
REMARK    7  A    between atoms: C_8  and  C_10
REMARK    8  A    between atoms: C_14  and  C_15
REMARK    9  A    between atoms: C_24  and  C_25
REMARK                            x       y       z     vdW  Elec       q    Type
REMARK                         _______ _______ _______ _____ _____    ______ ____
ROOT
ATOM      1  C   UNL     1      48.450   7.013  14.611  0.00  0.00    +0.000 C 
ENDROOT
BRANCH   1   2
ATOM      2  C   UNL     1      49.214   6.965  15.943  0.00  0.00    +0.000 C 
ATOM      3  C   UNL     1      48.801   8.125  16.851  0.00  0.00    +0.000 C 
BRANCH   2   4
ATOM      4  C   UNL     1      48.983   5.630  16.634  0.00  0.00    +0.000 A 
ATOM      5  C   UNL     1      47.704   5.231  17.002  0.00  0.00    +0.000 A 
ATOM      6  C   UNL     1      47.543   4.009  17.649  0.00  0.00    +0.000 A 
ATOM      7  C   UNL     1      48.656   3.211  17.900  0.00  0.00    +0.000 A 
ATOM      8  C   UNL     1      49.911   3.651  17.487  0.00  0.00    +0.000 A 
ATOM      9  N   UNL     1      50.067   4.846  16.859  0.00  0.00    +0.000 NA
BRANCH   8  10
ATOM     10  C   UNL     1      51.148   2.861  17.673  0.00  0.00    +0.000 A 
ATOM     11  C   UNL     1      52.296   3.458  18.230  0.00  0.00    +0.000 A 
ATOM     12  C   UNL     1      53.482   2.740  18.409  0.00  0.00    +0.000 A 
ATOM     13  C   UNL     1      53.543   1.400  18.041  0.00  0.00    +0.000 A 
ATOM     14  C   UNL     1      52.424   0.781  17.491  0.00  0.00    +0.000 A 
ATOM     15  C   UNL     1      51.239   1.505  17.312  0.00  0.00    +0.000 A 
ENDBRANCH   8  10
ENDBRANCH   2   4
ENDBRANCH   1   2
BRANCH   1  16
ATOM     16  O   UNL     1      48.144   5.693  14.133  0.00  0.00    +0.000 OA
BRANCH  16  19
ATOM     17  C   UNL     1      44.758   4.593  13.023  0.00  0.00    +0.000 A 
ATOM     18  C   UNL     1      45.947   4.656  13.761  0.00  0.00    +0.000 A 
ATOM     19  C   UNL     1      46.954   5.575  13.456  0.00  0.00    +0.000 A 
ATOM     20  C   UNL     1      46.774   6.439  12.377  0.00  0.00    +0.000 A 
ATOM     21  C   UNL     1      45.589   6.397  11.632  0.00  0.00    +0.000 A 
ATOM     22  C   UNL     1      44.565   5.485  11.951  0.00  0.00    +0.000 A 
BRANCH  22  23
ATOM     23  C   UNL     1      43.310   5.552  11.137  0.00  0.00    +0.000 C 
ATOM     24  N   UNL     1      42.192   6.085  11.714  0.00  0.00    +0.000 N 
ATOM     25  O   UNL     1      43.273   5.162   9.973  0.00  0.00    +0.000 OA
ATOM     26  H   UNL     1      42.192   6.363  12.692  0.00  0.00    +0.000 HD
ATOM     27  H   UNL     1      41.337   6.129  11.186  0.00  0.00    +0.000 HD
ENDBRANCH  22  23
BRANCH  17  29
ATOM     28  C   UNL     1      43.675   2.579  12.338  0.00  0.00    +0.000 C 
ATOM     29  O   UNL     1      43.794   3.646  13.272  0.00  0.00    +0.000 OA
ENDBRANCH  17  29
ENDBRANCH  16  19
ENDBRANCH   1  16
TORSDOF 7
ENDMDL
MODEL 5
REMARK VINA RESULT:    -6.811      3.252      9.903
REMARK INTER + INTRA:         -11.036
REMARK INTER:                  -9.969
REMARK INTRA:                  -1.066
REMARK UNBOUND:                -1.437
REMARK  Name = 
REMARK  9 active torsions:
REMARK  status: ('A' for Active; 'I' for Inactive)
REMARK    1  A    between atoms: C_1  and  O_2
REMARK    2  A    between atoms: O_2  and  C_3
REMARK    3  A    between atoms: C_5  and  O_6
REMARK    4  A    between atoms: O_6  and  C_7
REMARK    5  A    between atoms: C_7  and  C_8
REMARK    6  A    between atoms: C_8  and  C_9
REMARK    7  A    between atoms: C_8  and  C_10
REMARK    8  A    between atoms: C_14  and  C_15
REMARK    9  A    between atoms: C_24  and  C_25
REMARK                            x       y       z     vdW  Elec       q    Type
REMARK                         _______ _______ _______ _____ _____    ______ ____
ROOT
ATOM      1  C   UNL     1      46.241   3.030   5.935  0.00  0.00    +0.000 C 
ENDROOT
BRANCH   1   2
ATOM      2  C   UNL     1      47.311   2.004   5.531  0.00  0.00    +0.000 C 
ATOM      3  C   UNL     1      47.746   1.165   6.733  0.00  0.00    +0.000 C 
BRANCH   2   4
ATOM      4  C   UNL     1      46.789   1.115   4.412  0.00  0.00    +0.000 A 
ATOM      5  C   UNL     1      46.065   1.652   3.355  0.00  0.00    +0.000 A 
ATOM      6  C   UNL     1      45.592   0.797   2.363  0.00  0.00    +0.000 A 
ATOM      7  C   UNL     1      45.861  -0.566   2.444  0.00  0.00    +0.000 A 
ATOM      8  C   UNL     1      46.613  -1.045   3.513  0.00  0.00    +0.000 A 
ATOM      9  N   UNL     1      47.072  -0.210   4.482  0.00  0.00    +0.000 NA
BRANCH   8  10
ATOM     10  C   UNL     1      46.984  -2.469   3.668  0.00  0.00    +0.000 A 
ATOM     11  C   UNL     1      46.556  -3.197   4.797  0.00  0.00    +0.000 A 
ATOM     12  C   UNL     1      46.900  -4.540   4.975  0.00  0.00    +0.000 A 
ATOM     13  C   UNL     1      47.676  -5.190   4.022  0.00  0.00    +0.000 A 
ATOM     14  C   UNL     1      48.112  -4.498   2.895  0.00  0.00    +0.000 A 
ATOM     15  C   UNL     1      47.766  -3.153   2.721  0.00  0.00    +0.000 A 
ENDBRANCH   8  10
ENDBRANCH   2   4
ENDBRANCH   1   2
BRANCH   1  16
ATOM     16  O   UNL     1      46.707   3.888   6.989  0.00  0.00    +0.000 OA
BRANCH  16  19
ATOM     17  C   UNL     1      45.011   4.938  10.140  0.00  0.00    +0.000 A 
ATOM     18  C   UNL     1      45.836   4.984   9.008  0.00  0.00    +0.000 A 
ATOM     19  C   UNL     1      45.920   3.914   8.116  0.00  0.00    +0.000 A 
ATOM     20  C   UNL     1      45.175   2.764   8.370  0.00  0.00    +0.000 A 
ATOM     21  C   UNL     1      44.338   2.701   9.491  0.00  0.00    +0.000 A 
ATOM     22  C   UNL     1      44.237   3.787  10.381  0.00  0.00    +0.000 A 
BRANCH  22  23
ATOM     23  C   UNL     1      43.273   3.653  11.519  0.00  0.00    +0.000 C 
ATOM     24  N   UNL     1      42.454   4.708  11.802  0.00  0.00    +0.000 N 
ATOM     25  O   UNL     1      43.193   2.620  12.179  0.00  0.00    +0.000 OA
ATOM     26  H   UNL     1      42.545   5.588  11.299  0.00  0.00    +0.000 HD
ATOM     27  H   UNL     1      41.807   4.640  12.569  0.00  0.00    +0.000 HD
ENDBRANCH  22  23
BRANCH  17  29
ATOM     28  C   UNL     1      46.167   6.209  11.798  0.00  0.00    +0.000 C 
ATOM     29  O   UNL     1      44.976   5.958  11.060  0.00  0.00    +0.000 OA
ENDBRANCH  17  29
ENDBRANCH  16  19
ENDBRANCH   1  16
TORSDOF 7
ENDMDL
MODEL 6
REMARK VINA RESULT:    -6.709      2.896      5.324
REMARK INTER + INTRA:         -10.893
REMARK INTER:                  -9.181
REMARK INTRA:                  -1.712
REMARK UNBOUND:                -1.437
REMARK  Name = 
REMARK  9 active torsions:
REMARK  status: ('A' for Active; 'I' for Inactive)
REMARK    1  A    between atoms: C_1  and  O_2
REMARK    2  A    between atoms: O_2  and  C_3
REMARK    3  A    between atoms: C_5  and  O_6
REMARK    4  A    between atoms: O_6  and  C_7
REMARK    5  A    between atoms: C_7  and  C_8
REMARK    6  A    between atoms: C_8  and  C_9
REMARK    7  A    between atoms: C_8  and  C_10
REMARK    8  A    between atoms: C_14  and  C_15
REMARK    9  A    between atoms: C_24  and  C_25
REMARK                            x       y       z     vdW  Elec       q    Type
REMARK                         _______ _______ _______ _____ _____    ______ ____
ROOT
ATOM      1  C   UNL     1      48.844   7.249  12.129  0.00  0.00    +0.000 C 
ENDROOT
BRANCH   1   2
ATOM      2  C   UNL     1      49.286   8.513  12.882  0.00  0.00    +0.000 C 
ATOM      3  C   UNL     1      48.561   9.748  12.348  0.00  0.00    +0.000 C 
BRANCH   2   4
ATOM      4  C   UNL     1      49.043   8.347  14.375  0.00  0.00    +0.000 A 
ATOM      5  C   UNL     1      48.816   9.452  15.186  0.00  0.00    +0.000 A 
ATOM      6  C   UNL     1      48.616   9.253  16.550  0.00  0.00    +0.000 A 
ATOM      7  C   UNL     1      48.636   7.961  17.067  0.00  0.00    +0.000 A 
ATOM      8  C   UNL     1      48.844   6.889  16.203  0.00  0.00    +0.000 A 
ATOM      9  N   UNL     1      49.042   7.085  14.872  0.00  0.00    +0.000 NA
BRANCH   8  10
ATOM     10  C   UNL     1      48.846   5.478  16.648  0.00  0.00    +0.000 A 
ATOM     11  C   UNL     1      47.767   4.630  16.328  0.00  0.00    +0.000 A 
ATOM     12  C   UNL     1      47.737   3.295  16.743  0.00  0.00    +0.000 A 
ATOM     13  C   UNL     1      48.792   2.776  17.484  0.00  0.00    +0.000 A 
ATOM     14  C   UNL     1      49.874   3.588  17.813  0.00  0.00    +0.000 A 
ATOM     15  C   UNL     1      49.900   4.925  17.397  0.00  0.00    +0.000 A 
ENDBRANCH   8  10
ENDBRANCH   2   4
ENDBRANCH   1   2
BRANCH   1  16
ATOM     16  O   UNL     1      47.608   7.459  11.428  0.00  0.00    +0.000 OA
BRANCH  16  19
ATOM     17  C   UNL     1      44.897   4.963  10.851  0.00  0.00    +0.000 A 
ATOM     18  C   UNL     1      45.847   5.961  10.595  0.00  0.00    +0.000 A 
ATOM     19  C   UNL     1      46.659   6.480  11.605  0.00  0.00    +0.000 A 
ATOM     20  C   UNL     1      46.508   6.000  12.906  0.00  0.00    +0.000 A 
ATOM     21  C   UNL     1      45.570   4.997  13.181  0.00  0.00    +0.000 A 
ATOM     22  C   UNL     1      44.764   4.460  12.159  0.00  0.00    +0.000 A 
BRANCH  22  23
ATOM     23  C   UNL     1      43.833   3.349  12.535  0.00  0.00    +0.000 C 
ATOM     24  N   UNL     1      43.617   2.350  11.629  0.00  0.00    +0.000 N 
ATOM     25  O   UNL     1      43.283   3.311  13.633  0.00  0.00    +0.000 OA
ATOM     26  H   UNL     1      44.023   2.395  10.697  0.00  0.00    +0.000 HD
ATOM     27  H   UNL     1      42.987   1.601  11.860  0.00  0.00    +0.000 HD
ENDBRANCH  22  23
BRANCH  17  29
ATOM     28  C   UNL     1      44.631   4.068   8.654  0.00  0.00    +0.000 C 
ATOM     29  O   UNL     1      44.046   4.498   9.878  0.00  0.00    +0.000 OA
ENDBRANCH  17  29
ENDBRANCH  16  19
ENDBRANCH   1  16
TORSDOF 7
ENDMDL
MODEL 7
REMARK VINA RESULT:    -6.609      3.950      9.398
REMARK INTER + INTRA:         -10.752
REMARK INTER:                  -9.591
REMARK INTRA:                  -1.160
REMARK UNBOUND:                -1.437
REMARK  Name = 
REMARK  9 active torsions:
REMARK  status: ('A' for Active; 'I' for Inactive)
REMARK    1  A    between atoms: C_1  and  O_2
REMARK    2  A    between atoms: O_2  and  C_3
REMARK    3  A    between atoms: C_5  and  O_6
REMARK    4  A    between atoms: O_6  and  C_7
REMARK    5  A    between atoms: C_7  and  C_8
REMARK    6  A    between atoms: C_8  and  C_9
REMARK    7  A    between atoms: C_8  and  C_10
REMARK    8  A    between atoms: C_14  and  C_15
REMARK    9  A    between atoms: C_24  and  C_25
REMARK                            x       y       z     vdW  Elec       q    Type
REMARK                         _______ _______ _______ _____ _____    ______ ____
ROOT
ATOM      1  C   UNL     1      46.653   4.646  14.337  0.00  0.00    +0.000 C 
ENDROOT
BRANCH   1   2
ATOM      2  C   UNL     1      46.042   5.796  13.521  0.00  0.00    +0.000 C 
ATOM      3  C   UNL     1      47.134   6.619  12.836  0.00  0.00    +0.000 C 
BRANCH   2   4
ATOM      4  C   UNL     1      45.057   5.249  12.499  0.00  0.00    +0.000 A 
ATOM      5  C   UNL     1      43.687   5.375  12.694  0.00  0.00    +0.000 A 
ATOM      6  C   UNL     1      42.822   4.842  11.741  0.00  0.00    +0.000 A 
ATOM      7  C   UNL     1      43.344   4.211  10.616  0.00  0.00    +0.000 A 
ATOM      8  C   UNL     1      44.725   4.135  10.461  0.00  0.00    +0.000 A 
ATOM      9  N   UNL     1      45.568   4.652  11.393  0.00  0.00    +0.000 NA
BRANCH   8  10
ATOM     10  C   UNL     1      45.376   3.518   9.284  0.00  0.00    +0.000 A 
ATOM     11  C   UNL     1      45.904   4.327   8.258  0.00  0.00    +0.000 A 
ATOM     12  C   UNL     1      46.516   3.772   7.130  0.00  0.00    +0.000 A 
ATOM     13  C   UNL     1      46.620   2.391   7.006  0.00  0.00    +0.000 A 
ATOM     14  C   UNL     1      46.111   1.566   8.005  0.00  0.00    +0.000 A 
ATOM     15  C   UNL     1      45.498   2.126   9.132  0.00  0.00    +0.000 A 
ENDBRANCH   8  10
ENDBRANCH   2   4
ENDBRANCH   1   2
BRANCH   1  16
ATOM     16  O   UNL     1      47.978   4.968  14.789  0.00  0.00    +0.000 OA
BRANCH  16  19
ATOM     17  C   UNL     1      49.046   6.087  18.183  0.00  0.00    +0.000 A 
ATOM     18  C   UNL     1      48.951   6.018  16.786  0.00  0.00    +0.000 A 
ATOM     19  C   UNL     1      48.120   5.094  16.150  0.00  0.00    +0.000 A 
ATOM     20  C   UNL     1      47.378   4.207  16.929  0.00  0.00    +0.000 A 
ATOM     21  C   UNL     1      47.452   4.265  18.326  0.00  0.00    +0.000 A 
ATOM     22  C   UNL     1      48.275   5.210  18.969  0.00  0.00    +0.000 A 
BRANCH  22  23
ATOM     23  C   UNL     1      48.246   5.238  20.466  0.00  0.00    +0.000 C 
ATOM     24  N   UNL     1      47.850   6.390  21.084  0.00  0.00    +0.000 N 
ATOM     25  O   UNL     1      48.547   4.254  21.136  0.00  0.00    +0.000 OA
ATOM     26  H   UNL     1      47.648   7.228  20.544  0.00  0.00    +0.000 HD
ATOM     27  H   UNL     1      47.833   6.430  22.089  0.00  0.00    +0.000 HD
ENDBRANCH  22  23
BRANCH  17  29
ATOM     28  C   UNL     1      50.236   8.156  18.139  0.00  0.00    +0.000 C 
ATOM     29  O   UNL     1      49.914   6.945  18.814  0.00  0.00    +0.000 OA
ENDBRANCH  17  29
ENDBRANCH  16  19
ENDBRANCH   1  16
TORSDOF 7
ENDMDL
MODEL 8
REMARK VINA RESULT:    -6.574      3.689      8.640
REMARK INTER + INTRA:         -10.702
REMARK INTER:                  -9.555
REMARK INTRA:                  -1.147
REMARK UNBOUND:                -1.437
REMARK  Name = 
REMARK  9 active torsions:
REMARK  status: ('A' for Active; 'I' for Inactive)
REMARK    1  A    between atoms: C_1  and  O_2
REMARK    2  A    between atoms: O_2  and  C_3
REMARK    3  A    between atoms: C_5  and  O_6
REMARK    4  A    between atoms: O_6  and  C_7
REMARK    5  A    between atoms: C_7  and  C_8
REMARK    6  A    between atoms: C_8  and  C_9
REMARK    7  A    between atoms: C_8  and  C_10
REMARK    8  A    between atoms: C_14  and  C_15
REMARK    9  A    between atoms: C_24  and  C_25
REMARK                            x       y       z     vdW  Elec       q    Type
REMARK                         _______ _______ _______ _____ _____    ______ ____
ROOT
ATOM      1  C   UNL     1      47.228   6.232  13.224  0.00  0.00    +0.000 C 
ENDROOT
BRANCH   1   2
ATOM      2  C   UNL     1      45.879   6.923  12.969  0.00  0.00    +0.000 C 
ATOM      3  C   UNL     1      46.070   8.218  12.179  0.00  0.00    +0.000 C 
BRANCH   2   4
ATOM      4  C   UNL     1      44.936   5.979  12.239  0.00  0.00    +0.000 A 
ATOM      5  C   UNL     1      43.602   5.875  12.615  0.00  0.00    +0.000 A 
ATOM      6  C   UNL     1      42.779   4.984  11.930  0.00  0.00    +0.000 A 
ATOM      7  C   UNL     1      43.303   4.231  10.883  0.00  0.00    +0.000 A 
ATOM      8  C   UNL     1      44.640   4.394  10.534  0.00  0.00    +0.000 A 
ATOM      9  N   UNL     1      45.443   5.262  11.205  0.00  0.00    +0.000 NA
BRANCH   8  10
ATOM     10  C   UNL     1      45.280   3.669   9.415  0.00  0.00    +0.000 A 
ATOM     11  C   UNL     1      45.289   2.260   9.392  0.00  0.00    +0.000 A 
ATOM     12  C   UNL     1      45.895   1.548   8.352  0.00  0.00    +0.000 A 
ATOM     13  C   UNL     1      46.500   2.232   7.304  0.00  0.00    +0.000 A 
ATOM     14  C   UNL     1      46.505   3.624   7.296  0.00  0.00    +0.000 A 
ATOM     15  C   UNL     1      45.898   4.334   8.340  0.00  0.00    +0.000 A 
ENDBRANCH   8  10
ENDBRANCH   2   4
ENDBRANCH   1   2
BRANCH   1  16
ATOM     16  O   UNL     1      48.125   7.084  13.956  0.00  0.00    +0.000 OA
BRANCH  16  19
ATOM     17  C   UNL     1      48.617   5.085  17.065  0.00  0.00    +0.000 A 
ATOM     18  C   UNL     1      48.011   5.602  15.913  0.00  0.00    +0.000 A 
ATOM     19  C   UNL     1      48.657   6.533  15.097  0.00  0.00    +0.000 A 
ATOM     20  C   UNL     1      49.933   6.969  15.451  0.00  0.00    +0.000 A 
ATOM     21  C   UNL     1      50.559   6.458  16.594  0.00  0.00    +0.000 A 
ATOM     22  C   UNL     1      49.916   5.505  17.407  0.00  0.00    +0.000 A 
BRANCH  22  23
ATOM     23  C   UNL     1      50.686   4.970  18.575  0.00  0.00    +0.000 C 
ATOM     24  N   UNL     1      50.765   3.616  18.734  0.00  0.00    +0.000 N 
ATOM     25  O   UNL     1      51.254   5.715  19.369  0.00  0.00    +0.000 OA
ATOM     26  H   UNL     1      50.256   2.988  18.116  0.00  0.00    +0.000 HD
ATOM     27  H   UNL     1      51.269   3.239  19.518  0.00  0.00    +0.000 HD
ENDBRANCH  22  23
BRANCH  17  29
ATOM     28  C   UNL     1      47.516   2.987  17.362  0.00  0.00    +0.000 C 
ATOM     29  O   UNL     1      47.961   4.223  17.910  0.00  0.00    +0.000 OA
ENDBRANCH  17  29
ENDBRANCH  16  19
ENDBRANCH   1  16
TORSDOF 7
ENDMDL
MODEL 9
REMARK VINA RESULT:    -6.569      3.549      6.287
REMARK INTER + INTRA:         -10.695
REMARK INTER:                  -9.377
REMARK INTRA:                  -1.317
REMARK UNBOUND:                -1.437
REMARK  Name = 
REMARK  9 active torsions:
REMARK  status: ('A' for Active; 'I' for Inactive)
REMARK    1  A    between atoms: C_1  and  O_2
REMARK    2  A    between atoms: O_2  and  C_3
REMARK    3  A    between atoms: C_5  and  O_6
REMARK    4  A    between atoms: O_6  and  C_7
REMARK    5  A    between atoms: C_7  and  C_8
REMARK    6  A    between atoms: C_8  and  C_9
REMARK    7  A    between atoms: C_8  and  C_10
REMARK    8  A    between atoms: C_14  and  C_15
REMARK    9  A    between atoms: C_24  and  C_25
REMARK                            x       y       z     vdW  Elec       q    Type
REMARK                         _______ _______ _______ _____ _____    ______ ____
ROOT
ATOM      1  C   UNL     1      48.406   7.018  14.760  0.00  0.00    +0.000 C 
ENDROOT
BRANCH   1   2
ATOM      2  C   UNL     1      49.161   6.961  16.097  0.00  0.00    +0.000 C 
ATOM      3  C   UNL     1      48.716   8.092  17.025  0.00  0.00    +0.000 C 
BRANCH   2   4
ATOM      4  C   UNL     1      48.956   5.607  16.758  0.00  0.00    +0.000 A 
ATOM      5  C   UNL     1      47.685   5.174  17.115  0.00  0.00    +0.000 A 
ATOM      6  C   UNL     1      47.547   3.936  17.735  0.00  0.00    +0.000 A 
ATOM      7  C   UNL     1      48.676   3.156  17.973  0.00  0.00    +0.000 A 
ATOM      8  C   UNL     1      49.922   3.629  17.572  0.00  0.00    +0.000 A 
ATOM      9  N   UNL     1      50.055   4.840  16.969  0.00  0.00    +0.000 NA
BRANCH   8  10
ATOM     10  C   UNL     1      51.174   2.861  17.745  0.00  0.00    +0.000 A 
ATOM     11  C   UNL     1      51.228   1.498  17.391  0.00  0.00    +0.000 A 
ATOM     12  C   UNL     1      52.395   0.745  17.553  0.00  0.00    +0.000 A 
ATOM     13  C   UNL     1      53.540   1.343  18.068  0.00  0.00    +0.000 A 
ATOM     14  C   UNL     1      53.519   2.688  18.423  0.00  0.00    +0.000 A 
ATOM     15  C   UNL     1      52.348   3.439  18.261  0.00  0.00    +0.000 A 
ENDBRANCH   8  10
ENDBRANCH   2   4
ENDBRANCH   1   2
BRANCH   1  16
ATOM     16  O   UNL     1      48.484   5.767  14.057  0.00  0.00    +0.000 OA
BRANCH  16  19
ATOM     17  C   UNL     1      45.626   5.844  11.663  0.00  0.00    +0.000 A 
ATOM     18  C   UNL     1      46.765   6.252  12.370  0.00  0.00    +0.000 A 
ATOM     19  C   UNL     1      47.369   5.433  13.327  0.00  0.00    +0.000 A 
ATOM     20  C   UNL     1      46.811   4.185  13.595  0.00  0.00    +0.000 A 
ATOM     21  C   UNL     1      45.677   3.756  12.894  0.00  0.00    +0.000 A 
ATOM     22  C   UNL     1      45.079   4.572  11.915  0.00  0.00    +0.000 A 
BRANCH  22  23
ATOM     23  C   UNL     1      43.906   4.006  11.175  0.00  0.00    +0.000 C 
ATOM     24  N   UNL     1      42.666   4.509  11.446  0.00  0.00    +0.000 N 
ATOM     25  O   UNL     1      44.041   3.127  10.328  0.00  0.00    +0.000 OA
ATOM     26  H   UNL     1      42.532   5.199  12.181  0.00  0.00    +0.000 HD
ATOM     27  H   UNL     1      41.865   4.134  10.965  0.00  0.00    +0.000 HD
ENDBRANCH  22  23
BRANCH  17  29
ATOM     28  C   UNL     1      44.416   7.868  11.290  0.00  0.00    +0.000 C 
ATOM     29  O   UNL     1      44.985   6.671  10.772  0.00  0.00    +0.000 OA
ENDBRANCH  17  29
ENDBRANCH  16  19
ENDBRANCH   1  16
TORSDOF 7
ENDMDL
