MODEL 1
REMARK VINA RESULT:    -7.643      0.000      0.000
REMARK INTER + INTRA:         -11.673
REMARK INTER:                 -10.324
REMARK INTRA:                  -1.349
REMARK UNBOUND:                -1.349
REMARK  Name = 
REMARK  7 active torsions:
REMARK  status: ('A' for Active; 'I' for Inactive)
REMARK    1  A    between atoms: C_1  and  C_2
REMARK    2  A    between atoms: C_2  and  N_3
REMARK    3  A    between atoms: N_3  and  C_4
REMARK    4  A    between atoms: C_4  and  C_5
REMARK    5  A    between atoms: C_8  and  C_9
REMARK    6  A    between atoms: C_9  and  C_10
REMARK    7  A    between atoms: C_18  and  C_20
REMARK                            x       y       z     vdW  Elec       q    Type
REMARK                         _______ _______ _______ _____ _____    ______ ____
ROOT
ATOM      1  N   UNL     1      46.715   7.158  12.148  0.00  0.00    +0.000 N 
ATOM      2  C   UNL     1      45.441   6.859  11.622  0.00  0.00    +0.000 C 
ATOM      3  O   UNL     1      44.710   7.746  11.183  0.00  0.00    +0.000 OA
ENDROOT
BRANCH   2   4
ATOM      4  C   UNL     1      44.944   5.469  11.640  0.00  0.00    +0.000 A 
ATOM      5  C   UNL     1      44.236   4.886  12.679  0.00  0.00    +0.000 A 
ATOM      6  S   UNL     1      43.722   3.288  12.356  0.00  0.00    +0.000 S 
ATOM      7  C   UNL     1      44.281   3.383  10.754  0.00  0.00    +0.000 A 
ATOM      8  N   UNL     1      44.035   2.385   9.869  0.00  0.00    +0.000 NA
ATOM      9  C   UNL     1      44.456   2.628   8.671  0.00  0.00    +0.000 A 
ATOM     10  N   UNL     1      45.146   3.752   8.293  0.00  0.00    +0.000 N 
ATOM     11  C   UNL     1      45.538   4.727   9.197  0.00  0.00    +0.000 A 
ATOM     12  O   UNL     1      46.356   5.583   8.880  0.00  0.00    +0.000 OA
ATOM     13  C   UNL     1      44.962   4.564  10.514  0.00  0.00    +0.000 A 
ATOM     14  H   UNL     1      45.513   3.845   7.362  0.00  0.00    +0.000 HD
ENDBRANCH   2   4
BRANCH   1  16
ATOM     15  C   UNL     1      48.546   8.822  11.915  0.00  0.00    +0.000 C 
ATOM     16  C   UNL     1      47.083   8.572  12.256  0.00  0.00    +0.000 C 
ENDBRANCH   1  16
BRANCH   1  17
ATOM     17  C   UNL     1      47.594   6.129  12.691  0.00  0.00    +0.000 C 
BRANCH  17  18
ATOM     18  C   UNL     1      47.638   5.836  14.167  0.00  0.00    +0.000 A 
ATOM     19  C   UNL     1      46.996   4.688  14.660  0.00  0.00    +0.000 A 
ATOM     20  C   UNL     1      47.277   4.209  15.939  0.00  0.00    +0.000 A 
ATOM     21  C   UNL     1      48.187   4.887  16.758  0.00  0.00    +0.000 A 
ATOM     22  C   UNL     1      48.737   6.099  16.309  0.00  0.00    +0.000 A 
ATOM     23  C   UNL     1      48.466   6.569  15.021  0.00  0.00    +0.000 A 
BRANCH  21  24
ATOM     24  C   UNL     1      48.669   4.245  18.044  0.00  0.00    +0.000 C 
BRANCH  24  25
ATOM     25  C   UNL     1      49.992   3.519  17.876  0.00  0.00    +0.000 A 
ATOM     26  C   UNL     1      50.036   2.245  17.309  0.00  0.00    +0.000 A 
ATOM     27  C   UNL     1      51.256   1.578  17.227  0.00  0.00    +0.000 A 
ATOM     28  C   UNL     1      52.402   2.203  17.694  0.00  0.00    +0.000 A 
ATOM     29  C   UNL     1      52.281   3.477  18.223  0.00  0.00    +0.000 A 
ATOM     30  N   UNL     1      51.109   4.144  18.327  0.00  0.00    +0.000 NA
ENDBRANCH  24  25
ENDBRANCH  21  24
ENDBRANCH  17  18
ENDBRANCH   1  17
TORSDOF 6
ENDMDL
MODEL 2
REMARK VINA RESULT:    -7.115      1.516      2.361
REMARK INTER + INTRA:         -10.959
REMARK INTER:                  -9.572
REMARK INTRA:                  -1.387
REMARK UNBOUND:                -1.349
REMARK  Name = 
REMARK  7 active torsions:
REMARK  status: ('A' for Active; 'I' for Inactive)
REMARK    1  A    between atoms: C_1  and  C_2
REMARK    2  A    between atoms: C_2  and  N_3
REMARK    3  A    between atoms: N_3  and  C_4
REMARK    4  A    between atoms: C_4  and  C_5
REMARK    5  A    between atoms: C_8  and  C_9
REMARK    6  A    between atoms: C_9  and  C_10
REMARK    7  A    between atoms: C_18  and  C_20
REMARK                            x       y       z     vdW  Elec       q    Type
REMARK                         _______ _______ _______ _____ _____    ______ ____
ROOT
ATOM      1  N   UNL     1      46.421   7.159  12.259  0.00  0.00    +0.000 N 
ATOM      2  C   UNL     1      45.146   6.827  11.755  0.00  0.00    +0.000 C 
ATOM      3  O   UNL     1      44.355   7.700  11.401  0.00  0.00    +0.000 OA
ENDROOT
BRANCH   2   4
ATOM      4  C   UNL     1      44.724   5.414  11.692  0.00  0.00    +0.000 A 
ATOM      5  C   UNL     1      43.988   4.756  12.665  0.00  0.00    +0.000 A 
ATOM      6  S   UNL     1      43.580   3.148  12.255  0.00  0.00    +0.000 S 
ATOM      7  C   UNL     1      44.229   3.332  10.695  0.00  0.00    +0.000 A 
ATOM      8  N   UNL     1      44.090   2.357   9.761  0.00  0.00    +0.000 NA
ATOM      9  C   UNL     1      44.569   2.668   8.601  0.00  0.00    +0.000 A 
ATOM     10  N   UNL     1      45.219   3.839   8.307  0.00  0.00    +0.000 N 
ATOM     11  C   UNL     1      45.503   4.798   9.267  0.00  0.00    +0.000 A 
ATOM     12  O   UNL     1      46.292   5.705   9.032  0.00  0.00    +0.000 OA
ATOM     13  C   UNL     1      44.859   4.555  10.539  0.00  0.00    +0.000 A 
ATOM     14  H   UNL     1      45.636   3.987   7.404  0.00  0.00    +0.000 HD
ENDBRANCH   2   4
BRANCH   1  16
ATOM     15  C   UNL     1      48.132   8.947  12.019  0.00  0.00    +0.000 C 
ATOM     16  C   UNL     1      46.718   8.582  12.452  0.00  0.00    +0.000 C 
ENDBRANCH   1  16
BRANCH   1  17
ATOM     17  C   UNL     1      47.372   6.147  12.701  0.00  0.00    +0.000 C 
BRANCH  17  18
ATOM     18  C   UNL     1      47.545   5.820  14.161  0.00  0.00    +0.000 A 
ATOM     19  C   UNL     1      46.935   4.667  14.685  0.00  0.00    +0.000 A 
ATOM     20  C   UNL     1      47.324   4.157  15.923  0.00  0.00    +0.000 A 
ATOM     21  C   UNL     1      48.313   4.807  16.670  0.00  0.00    +0.000 A 
ATOM     22  C   UNL     1      48.835   6.023  16.200  0.00  0.00    +0.000 A 
ATOM     23  C   UNL     1      48.456   6.525  14.953  0.00  0.00    +0.000 A 
BRANCH  21  24
ATOM     24  C   UNL     1      48.900   4.131  17.893  0.00  0.00    +0.000 C 
BRANCH  24  25
ATOM     25  C   UNL     1      48.696   4.938  19.164  0.00  0.00    +0.000 A 
ATOM     26  C   UNL     1      49.707   5.022  20.122  0.00  0.00    +0.000 A 
ATOM     27  C   UNL     1      49.468   5.716  21.305  0.00  0.00    +0.000 A 
ATOM     28  C   UNL     1      48.236   6.325  21.496  0.00  0.00    +0.000 A 
ATOM     29  C   UNL     1      47.292   6.216  20.489  0.00  0.00    +0.000 A 
ATOM     30  N   UNL     1      47.491   5.539  19.335  0.00  0.00    +0.000 NA
ENDBRANCH  24  25
ENDBRANCH  21  24
ENDBRANCH  17  18
ENDBRANCH   1  17
TORSDOF 6
ENDMDL
MODEL 3
REMARK VINA RESULT:    -7.107      2.877      7.929
REMARK INTER + INTRA:         -10.949
REMARK INTER:                  -9.796
REMARK INTRA:                  -1.152
REMARK UNBOUND:                -1.349
REMARK  Name = 
REMARK  7 active torsions:
REMARK  status: ('A' for Active; 'I' for Inactive)
REMARK    1  A    between atoms: C_1  and  C_2
REMARK    2  A    between atoms: C_2  and  N_3
REMARK    3  A    between atoms: N_3  and  C_4
REMARK    4  A    between atoms: C_4  and  C_5
REMARK    5  A    between atoms: C_8  and  C_9
REMARK    6  A    between atoms: C_9  and  C_10
REMARK    7  A    between atoms: C_18  and  C_20
REMARK                            x       y       z     vdW  Elec       q    Type
REMARK                         _______ _______ _______ _____ _____    ______ ____
ROOT
ATOM      1  N   UNL     1      48.468   7.201  15.093  0.00  0.00    +0.000 N 
ATOM      2  C   UNL     1      48.498   6.888  16.468  0.00  0.00    +0.000 C 
ATOM      3  O   UNL     1      48.569   7.772  17.320  0.00  0.00    +0.000 OA
ENDROOT
BRANCH   2   4
ATOM      4  C   UNL     1      48.496   5.477  16.902  0.00  0.00    +0.000 A 
ATOM      5  C   UNL     1      47.392   4.639  16.892  0.00  0.00    +0.000 A 
ATOM      6  S   UNL     1      47.735   3.035  17.370  0.00  0.00    +0.000 S 
ATOM      7  C   UNL     1      49.401   3.365  17.444  0.00  0.00    +0.000 A 
ATOM      8  N   UNL     1      50.300   2.374  17.670  0.00  0.00    +0.000 NA
ATOM      9  C   UNL     1      51.532   2.761  17.626  0.00  0.00    +0.000 A 
ATOM     10  N   UNL     1      51.943   4.056  17.431  0.00  0.00    +0.000 N 
ATOM     11  C   UNL     1      51.055   5.115  17.336  0.00  0.00    +0.000 A 
ATOM     12  O   UNL     1      51.451   6.273  17.412  0.00  0.00    +0.000 OA
ATOM     13  C   UNL     1      49.671   4.707  17.235  0.00  0.00    +0.000 A 
ATOM     14  H   UNL     1      52.916   4.303  17.484  0.00  0.00    +0.000 HD
ENDBRANCH   2   4
BRANCH   1  16
ATOM     15  C   UNL     1      49.782   8.815  13.732  0.00  0.00    +0.000 C 
ATOM     16  C   UNL     1      48.641   8.608  14.720  0.00  0.00    +0.000 C 
ENDBRANCH   1  16
BRANCH   1  17
ATOM     17  C   UNL     1      48.402   6.174  14.061  0.00  0.00    +0.000 C 
BRANCH  17  18
ATOM     18  C   UNL     1      47.136   5.925  13.284  0.00  0.00    +0.000 A 
ATOM     19  C   UNL     1      46.792   6.794  12.235  0.00  0.00    +0.000 A 
ATOM     20  C   UNL     1      45.826   6.429  11.297  0.00  0.00    +0.000 A 
ATOM     21  C   UNL     1      45.170   5.199  11.408  0.00  0.00    +0.000 A 
ATOM     22  C   UNL     1      45.430   4.385  12.523  0.00  0.00    +0.000 A 
ATOM     23  C   UNL     1      46.408   4.745  13.453  0.00  0.00    +0.000 A 
BRANCH  21  24
ATOM     24  C   UNL     1      44.301   4.701  10.271  0.00  0.00    +0.000 C 
BRANCH  24  25
ATOM     25  C   UNL     1      45.075   3.873   9.261  0.00  0.00    +0.000 A 
ATOM     26  C   UNL     1      45.096   2.480   9.351  0.00  0.00    +0.000 A 
ATOM     27  C   UNL     1      45.866   1.751   8.449  0.00  0.00    +0.000 A 
ATOM     28  C   UNL     1      46.580   2.425   7.468  0.00  0.00    +0.000 A 
ATOM     29  C   UNL     1      46.490   3.806   7.429  0.00  0.00    +0.000 A 
ATOM     30  N   UNL     1      45.760   4.541   8.298  0.00  0.00    +0.000 NA
ENDBRANCH  24  25
ENDBRANCH  21  24
ENDBRANCH  17  18
ENDBRANCH   1  17
TORSDOF 6
ENDMDL
MODEL 4
REMARK VINA RESULT:    -6.626      3.398      8.253
REMARK INTER + INTRA:         -10.299
REMARK INTER:                  -8.929
REMARK INTRA:                  -1.371
REMARK UNBOUND:                -1.349
REMARK  Name = 
REMARK  7 active torsions:
REMARK  status: ('A' for Active; 'I' for Inactive)
REMARK    1  A    between atoms: C_1  and  C_2
REMARK    2  A    between atoms: C_2  and  N_3
REMARK    3  A    between atoms: N_3  and  C_4
REMARK    4  A    between atoms: C_4  and  C_5
REMARK    5  A    between atoms: C_8  and  C_9
REMARK    6  A    between atoms: C_9  and  C_10
REMARK    7  A    between atoms: C_18  and  C_20
REMARK                            x       y       z     vdW  Elec       q    Type
REMARK                         _______ _______ _______ _____ _____    ______ ____
ROOT
ATOM      1  N   UNL     1      49.512   7.507  14.772  0.00  0.00    +0.000 N 
ATOM      2  C   UNL     1      49.994   6.802  15.894  0.00  0.00    +0.000 C 
ATOM      3  O   UNL     1      51.201   6.697  16.110  0.00  0.00    +0.000 OA
ENDROOT
BRANCH   2   4
ATOM      4  C   UNL     1      49.046   6.131  16.806  0.00  0.00    +0.000 A 
ATOM      5  C   UNL     1      48.612   4.820  16.684  0.00  0.00    +0.000 A 
ATOM      6  S   UNL     1      47.585   4.311  17.952  0.00  0.00    +0.000 S 
ATOM      7  C   UNL     1      47.822   5.768  18.792  0.00  0.00    +0.000 A 
ATOM      8  N   UNL     1      47.325   5.943  20.042  0.00  0.00    +0.000 NA
ATOM      9  C   UNL     1      47.647   7.072  20.584  0.00  0.00    +0.000 A 
ATOM     10  N   UNL     1      48.374   8.060  19.970  0.00  0.00    +0.000 N 
ATOM     11  C   UNL     1      48.780   7.977  18.648  0.00  0.00    +0.000 A 
ATOM     12  O   UNL     1      49.204   8.964  18.059  0.00  0.00    +0.000 OA
ATOM     13  C   UNL     1      48.566   6.674  18.055  0.00  0.00    +0.000 A 
ATOM     14  H   UNL     1      48.525   8.946  20.420  0.00  0.00    +0.000 HD
ENDBRANCH   2   4
BRANCH   1  16
ATOM     15  C   UNL     1      50.570   9.529  13.787  0.00  0.00    +0.000 C 
ATOM     16  C   UNL     1      50.504   8.008  13.816  0.00  0.00    +0.000 C 
ENDBRANCH   1  16
BRANCH   1  17
ATOM     17  C   UNL     1      48.089   7.632  14.483  0.00  0.00    +0.000 C 
BRANCH  17  18
ATOM     18  C   UNL     1      47.448   6.865  13.356  0.00  0.00    +0.000 A 
ATOM     19  C   UNL     1      46.937   5.579  13.603  0.00  0.00    +0.000 A 
ATOM     20  C   UNL     1      46.065   4.975  12.698  0.00  0.00    +0.000 A 
ATOM     21  C   UNL     1      45.710   5.637  11.517  0.00  0.00    +0.000 A 
ATOM     22  C   UNL     1      46.315   6.868  11.217  0.00  0.00    +0.000 A 
ATOM     23  C   UNL     1      47.176   7.479  12.132  0.00  0.00    +0.000 A 
BRANCH  21  24
ATOM     24  C   UNL     1      44.589   5.092  10.655  0.00  0.00    +0.000 C 
BRANCH  24  25
ATOM     25  C   UNL     1      45.084   4.128   9.591  0.00  0.00    +0.000 A 
ATOM     26  C   UNL     1      44.930   2.750   9.752  0.00  0.00    +0.000 A 
ATOM     27  C   UNL     1      45.451   1.889   8.790  0.00  0.00    +0.000 A 
ATOM     28  C   UNL     1      46.095   2.422   7.682  0.00  0.00    +0.000 A 
ATOM     29  C   UNL     1      46.188   3.799   7.581  0.00  0.00    +0.000 A 
ATOM     30  N   UNL     1      45.702   4.660   8.505  0.00  0.00    +0.000 NA
ENDBRANCH  24  25
ENDBRANCH  21  24
ENDBRANCH  17  18
ENDBRANCH   1  17
TORSDOF 6
ENDMDL
MODEL 5
REMARK VINA RESULT:    -6.472      3.619      7.991
REMARK INTER + INTRA:         -10.091
REMARK INTER:                  -8.815
REMARK INTRA:                  -1.275
REMARK UNBOUND:                -1.349
REMARK  Name = 
REMARK  7 active torsions:
REMARK  status: ('A' for Active; 'I' for Inactive)
REMARK    1  A    between atoms: C_1  and  C_2
REMARK    2  A    between atoms: C_2  and  N_3
REMARK    3  A    between atoms: N_3  and  C_4
REMARK    4  A    between atoms: C_4  and  C_5
REMARK    5  A    between atoms: C_8  and  C_9
REMARK    6  A    between atoms: C_9  and  C_10
REMARK    7  A    between atoms: C_18  and  C_20
REMARK                            x       y       z     vdW  Elec       q    Type
REMARK                         _______ _______ _______ _____ _____    ______ ____
ROOT
ATOM      1  N   UNL     1      48.730   8.869  13.991  0.00  0.00    +0.000 N 
ATOM      2  C   UNL     1      49.491   9.206  15.130  0.00  0.00    +0.000 C 
ATOM      3  O   UNL     1      50.641   9.629  15.024  0.00  0.00    +0.000 OA
ENDROOT
BRANCH   2   4
ATOM      4  C   UNL     1      48.927   9.004  16.479  0.00  0.00    +0.000 A 
ATOM      5  C   UNL     1      48.321   9.986  17.248  0.00  0.00    +0.000 A 
ATOM      6  S   UNL     1      47.687   9.414  18.728  0.00  0.00    +0.000 S 
ATOM      7  C   UNL     1      48.051   7.806  18.316  0.00  0.00    +0.000 A 
ATOM      8  N   UNL     1      47.646   6.775  19.099  0.00  0.00    +0.000 NA
ATOM      9  C   UNL     1      47.930   5.608  18.622  0.00  0.00    +0.000 A 
ATOM     10  N   UNL     1      48.627   5.380  17.463  0.00  0.00    +0.000 N 
ATOM     11  C   UNL     1      49.178   6.405  16.709  0.00  0.00    +0.000 A 
ATOM     12  O   UNL     1      49.996   6.166  15.829  0.00  0.00    +0.000 OA
ATOM     13  C   UNL     1      48.760   7.725  17.129  0.00  0.00    +0.000 A 
ATOM     14  H   UNL     1      48.882   4.448  17.187  0.00  0.00    +0.000 HD
ENDBRANCH   2   4
BRANCH   1  16
ATOM     15  C   UNL     1      48.934  10.115  11.849  0.00  0.00    +0.000 C 
ATOM     16  C   UNL     1      49.402   8.934  12.690  0.00  0.00    +0.000 C 
ENDBRANCH   1  16
BRANCH   1  17
ATOM     17  C   UNL     1      47.371   8.350  14.088  0.00  0.00    +0.000 C 
BRANCH  17  18
ATOM     18  C   UNL     1      46.758   7.549  12.970  0.00  0.00    +0.000 A 
ATOM     19  C   UNL     1      47.030   6.173  12.881  0.00  0.00    +0.000 A 
ATOM     20  C   UNL     1      46.246   5.344  12.079  0.00  0.00    +0.000 A 
ATOM     21  C   UNL     1      45.193   5.883  11.331  0.00  0.00    +0.000 A 
ATOM     22  C   UNL     1      44.999   7.273  11.329  0.00  0.00    +0.000 A 
ATOM     23  C   UNL     1      45.775   8.101  12.145  0.00  0.00    +0.000 A 
BRANCH  21  24
ATOM     24  C   UNL     1      44.202   4.960  10.650  0.00  0.00    +0.000 C 
BRANCH  24  25
ATOM     25  C   UNL     1      44.851   4.071   9.605  0.00  0.00    +0.000 A 
ATOM     26  C   UNL     1      44.787   2.681   9.714  0.00  0.00    +0.000 A 
ATOM     27  C   UNL     1      45.445   1.892   8.775  0.00  0.00    +0.000 A 
ATOM     28  C   UNL     1      46.135   2.506   7.739  0.00  0.00    +0.000 A 
ATOM     29  C   UNL     1      46.133   3.890   7.685  0.00  0.00    +0.000 A 
ATOM     30  N   UNL     1      45.513   4.682   8.589  0.00  0.00    +0.000 NA
ENDBRANCH  24  25
ENDBRANCH  21  24
ENDBRANCH  17  18
ENDBRANCH   1  17
TORSDOF 6
ENDMDL
MODEL 6
REMARK VINA RESULT:    -6.397      3.078      8.044
REMARK INTER + INTRA:          -9.989
REMARK INTER:                  -8.597
REMARK INTRA:                  -1.392
REMARK UNBOUND:                -1.349
REMARK  Name = 
REMARK  7 active torsions:
REMARK  status: ('A' for Active; 'I' for Inactive)
REMARK    1  A    between atoms: C_1  and  C_2
REMARK    2  A    between atoms: C_2  and  N_3
REMARK    3  A    between atoms: N_3  and  C_4
REMARK    4  A    between atoms: C_4  and  C_5
REMARK    5  A    between atoms: C_8  and  C_9
REMARK    6  A    between atoms: C_9  and  C_10
REMARK    7  A    between atoms: C_18  and  C_20
REMARK                            x       y       z     vdW  Elec       q    Type
REMARK                         _______ _______ _______ _____ _____    ______ ____
ROOT
ATOM      1  N   UNL     1      48.841   7.718  15.931  0.00  0.00    +0.000 N 
ATOM      2  C   UNL     1      48.504   7.156  17.180  0.00  0.00    +0.000 C 
ATOM      3  O   UNL     1      48.097   7.858  18.104  0.00  0.00    +0.000 OA
ENDROOT
BRANCH   2   4
ATOM      4  C   UNL     1      48.687   5.709  17.409  0.00  0.00    +0.000 A 
ATOM      5  C   UNL     1      47.694   4.749  17.288  0.00  0.00    +0.000 A 
ATOM      6  S   UNL     1      48.245   3.149  17.531  0.00  0.00    +0.000 S 
ATOM      7  C   UNL     1      49.858   3.672  17.640  0.00  0.00    +0.000 A 
ATOM      8  N   UNL     1      50.878   2.780  17.716  0.00  0.00    +0.000 NA
ATOM      9  C   UNL     1      52.052   3.321  17.719  0.00  0.00    +0.000 A 
ATOM     10  N   UNL     1      52.295   4.671  17.706  0.00  0.00    +0.000 N 
ATOM     11  C   UNL     1      51.281   5.614  17.769  0.00  0.00    +0.000 A 
ATOM     12  O   UNL     1      51.533   6.790  18.006  0.00  0.00    +0.000 OA
ATOM     13  C   UNL     1      49.956   5.053  17.621  0.00  0.00    +0.000 A 
ATOM     14  H   UNL     1      53.231   5.029  17.787  0.00  0.00    +0.000 HD
ENDBRANCH   2   4
BRANCH   1  16
ATOM     15  C   UNL     1      50.072   9.756  15.215  0.00  0.00    +0.000 C 
ATOM     16  C   UNL     1      48.797   9.179  15.817  0.00  0.00    +0.000 C 
ENDBRANCH   1  16
BRANCH   1  17
ATOM     17  C   UNL     1      49.342   6.913  14.824  0.00  0.00    +0.000 C 
BRANCH  17  18
ATOM     18  C   UNL     1      48.457   6.540  13.663  0.00  0.00    +0.000 A 
ATOM     19  C   UNL     1      47.523   5.501  13.817  0.00  0.00    +0.000 A 
ATOM     20  C   UNL     1      46.482   5.340  12.903  0.00  0.00    +0.000 A 
ATOM     21  C   UNL     1      46.374   6.199  11.804  0.00  0.00    +0.000 A 
ATOM     22  C   UNL     1      47.376   7.159  11.587  0.00  0.00    +0.000 A 
ATOM     23  C   UNL     1      48.409   7.330  12.512  0.00  0.00    +0.000 A 
BRANCH  21  24
ATOM     24  C   UNL     1      45.123   6.176  10.948  0.00  0.00    +0.000 C 
BRANCH  24  25
ATOM     25  C   UNL     1      45.083   4.990  10.001  0.00  0.00    +0.000 A 
ATOM     26  C   UNL     1      44.337   3.854  10.317  0.00  0.00    +0.000 A 
ATOM     27  C   UNL     1      44.370   2.757   9.459  0.00  0.00    +0.000 A 
ATOM     28  C   UNL     1      45.129   2.827   8.300  0.00  0.00    +0.000 A 
ATOM     29  C   UNL     1      45.824   3.997   8.044  0.00  0.00    +0.000 A 
ATOM     30  N   UNL     1      45.820   5.073   8.864  0.00  0.00    +0.000 NA
ENDBRANCH  24  25
ENDBRANCH  21  24
ENDBRANCH  17  18
ENDBRANCH   1  17
TORSDOF 6
ENDMDL
MODEL 7
REMARK VINA RESULT:    -5.922      3.541      8.155
REMARK INTER + INTRA:          -9.348
REMARK INTER:                  -7.815
REMARK INTRA:                  -1.533
REMARK UNBOUND:                -1.349
REMARK  Name = 
REMARK  7 active torsions:
REMARK  status: ('A' for Active; 'I' for Inactive)
REMARK    1  A    between atoms: C_1  and  C_2
REMARK    2  A    between atoms: C_2  and  N_3
REMARK    3  A    between atoms: N_3  and  C_4
REMARK    4  A    between atoms: C_4  and  C_5
REMARK    5  A    between atoms: C_8  and  C_9
REMARK    6  A    between atoms: C_9  and  C_10
REMARK    7  A    between atoms: C_18  and  C_20
REMARK                            x       y       z     vdW  Elec       q    Type
REMARK                         _______ _______ _______ _____ _____    ______ ____
ROOT
ATOM      1  N   UNL     1      50.075   7.658  15.301  0.00  0.00    +0.000 N 
ATOM      2  C   UNL     1      50.289   6.613  16.223  0.00  0.00    +0.000 C 
ATOM      3  O   UNL     1      51.399   6.100  16.357  0.00  0.00    +0.000 OA
ENDROOT
BRANCH   2   4
ATOM      4  C   UNL     1      49.158   6.083  17.011  0.00  0.00    +0.000 A 
ATOM      5  C   UNL     1      48.448   4.930  16.713  0.00  0.00    +0.000 A 
ATOM      6  S   UNL     1      47.255   4.534  17.871  0.00  0.00    +0.000 S 
ATOM      7  C   UNL     1      47.761   5.794  18.892  0.00  0.00    +0.000 A 
ATOM      8  N   UNL     1      47.238   5.939  20.136  0.00  0.00    +0.000 NA
ATOM      9  C   UNL     1      47.771   6.895  20.823  0.00  0.00    +0.000 A 
ATOM     10  N   UNL     1      48.740   7.750  20.362  0.00  0.00    +0.000 N 
ATOM     11  C   UNL     1      49.199   7.723  19.055  0.00  0.00    +0.000 A 
ATOM     12  O   UNL     1      49.872   8.645  18.608  0.00  0.00    +0.000 OA
ATOM     13  C   UNL     1      48.735   6.580  18.299  0.00  0.00    +0.000 A 
ATOM     14  H   UNL     1      49.058   8.521  20.922  0.00  0.00    +0.000 HD
ENDBRANCH   2   4
BRANCH   1  16
ATOM     15  C   UNL     1      51.422   9.533  14.379  0.00  0.00    +0.000 C 
ATOM     16  C   UNL     1      51.195   8.028  14.431  0.00  0.00    +0.000 C 
ENDBRANCH   1  16
BRANCH   1  17
ATOM     17  C   UNL     1      48.767   8.273  15.109  0.00  0.00    +0.000 C 
BRANCH  17  18
ATOM     18  C   UNL     1      47.955   8.015  13.867  0.00  0.00    +0.000 A 
ATOM     19  C   UNL     1      47.918   6.719  13.326  0.00  0.00    +0.000 A 
ATOM     20  C   UNL     1      46.946   6.367  12.391  0.00  0.00    +0.000 A 
ATOM     21  C   UNL     1      46.009   7.314  11.961  0.00  0.00    +0.000 A 
ATOM     22  C   UNL     1      46.122   8.638  12.412  0.00  0.00    +0.000 A 
ATOM     23  C   UNL     1      47.087   8.987  13.361  0.00  0.00    +0.000 A 
BRANCH  21  24
ATOM     24  C   UNL     1      44.818   6.875  11.133  0.00  0.00    +0.000 C 
BRANCH  24  25
ATOM     25  C   UNL     1      44.324   5.488  11.505  0.00  0.00    +0.000 A 
ATOM     26  C   UNL     1      43.769   5.244  12.762  0.00  0.00    +0.000 A 
ATOM     27  C   UNL     1      43.384   3.949  13.097  0.00  0.00    +0.000 A 
ATOM     28  C   UNL     1      43.544   2.933  12.166  0.00  0.00    +0.000 A 
ATOM     29  C   UNL     1      44.081   3.257  10.932  0.00  0.00    +0.000 A 
ATOM     30  N   UNL     1      44.475   4.503  10.583  0.00  0.00    +0.000 NA
ENDBRANCH  24  25
ENDBRANCH  21  24
ENDBRANCH  17  18
ENDBRANCH   1  17
TORSDOF 6
ENDMDL
MODEL 8
REMARK VINA RESULT:    -5.915      3.826      8.188
REMARK INTER + INTRA:          -9.339
REMARK INTER:                  -8.786
REMARK INTRA:                  -0.552
REMARK UNBOUND:                -1.349
REMARK  Name = 
REMARK  7 active torsions:
REMARK  status: ('A' for Active; 'I' for Inactive)
REMARK    1  A    between atoms: C_1  and  C_2
REMARK    2  A    between atoms: C_2  and  N_3
REMARK    3  A    between atoms: N_3  and  C_4
REMARK    4  A    between atoms: C_4  and  C_5
REMARK    5  A    between atoms: C_8  and  C_9
REMARK    6  A    between atoms: C_9  and  C_10
REMARK    7  A    between atoms: C_18  and  C_20
REMARK                            x       y       z     vdW  Elec       q    Type
REMARK                         _______ _______ _______ _____ _____    ______ ____
ROOT
ATOM      1  N   UNL     1      47.196   8.270  13.150  0.00  0.00    +0.000 N 
ATOM      2  C   UNL     1      48.211   9.214  13.413  0.00  0.00    +0.000 C 
ATOM      3  O   UNL     1      47.938  10.372  13.724  0.00  0.00    +0.000 OA
ENDROOT
BRANCH   2   4
ATOM      4  C   UNL     1      49.629   8.830  13.269  0.00  0.00    +0.000 A 
ATOM      5  C   UNL     1      50.435   9.142  12.185  0.00  0.00    +0.000 A 
ATOM      6  S   UNL     1      52.057   8.632  12.359  0.00  0.00    +0.000 S 
ATOM      7  C   UNL     1      51.776   8.128  13.957  0.00  0.00    +0.000 A 
ATOM      8  N   UNL     1      52.796   7.705  14.747  0.00  0.00    +0.000 NA
ATOM      9  C   UNL     1      52.442   7.424  15.958  0.00  0.00    +0.000 A 
ATOM     10  N   UNL     1      51.157   7.476  16.434  0.00  0.00    +0.000 N 
ATOM     11  C   UNL     1      50.071   7.767  15.624  0.00  0.00    +0.000 A 
ATOM     12  O   UNL     1      48.927   7.565  16.012  0.00  0.00    +0.000 OA
ATOM     13  C   UNL     1      50.438   8.228  14.302  0.00  0.00    +0.000 A 
ATOM     14  H   UNL     1      50.938   7.170  17.366  0.00  0.00    +0.000 HD
ENDBRANCH   2   4
BRANCH   1  16
ATOM     15  C   UNL     1      45.488   9.590  11.916  0.00  0.00    +0.000 C 
ATOM     16  C   UNL     1      45.812   8.754  13.148  0.00  0.00    +0.000 C 
ENDBRANCH   1  16
BRANCH   1  17
ATOM     17  C   UNL     1      47.491   6.896  12.764  0.00  0.00    +0.000 C 
BRANCH  17  18
ATOM     18  C   UNL     1      46.459   6.035  12.083  0.00  0.00    +0.000 A 
ATOM     19  C   UNL     1      46.154   6.266  10.731  0.00  0.00    +0.000 A 
ATOM     20  C   UNL     1      45.463   5.311   9.986  0.00  0.00    +0.000 A 
ATOM     21  C   UNL     1      45.042   4.121  10.588  0.00  0.00    +0.000 A 
ATOM     22  C   UNL     1      45.243   3.945  11.966  0.00  0.00    +0.000 A 
ATOM     23  C   UNL     1      45.949   4.895  12.709  0.00  0.00    +0.000 A 
BRANCH  21  24
ATOM     24  C   UNL     1      44.506   2.991   9.731  0.00  0.00    +0.000 C 
BRANCH  24  25
ATOM     25  C   UNL     1      45.473   2.575   8.637  0.00  0.00    +0.000 A 
ATOM     26  C   UNL     1      45.838   3.471   7.632  0.00  0.00    +0.000 A 
ATOM     27  C   UNL     1      46.676   3.042   6.607  0.00  0.00    +0.000 A 
ATOM     28  C   UNL     1      47.146   1.736   6.618  0.00  0.00    +0.000 A 
ATOM     29  C   UNL     1      46.758   0.913   7.662  0.00  0.00    +0.000 A 
ATOM     30  N   UNL     1      45.936   1.299   8.664  0.00  0.00    +0.000 NA
ENDBRANCH  24  25
ENDBRANCH  21  24
ENDBRANCH  17  18
ENDBRANCH   1  17
TORSDOF 6
ENDMDL
MODEL 9
REMARK VINA RESULT:    -5.766      3.544      7.971
REMARK INTER + INTRA:          -9.138
REMARK INTER:                  -7.728
REMARK INTRA:                  -1.410
REMARK UNBOUND:                -1.349
REMARK  Name = 
REMARK  7 active torsions:
REMARK  status: ('A' for Active; 'I' for Inactive)
REMARK    1  A    between atoms: C_1  and  C_2
REMARK    2  A    between atoms: C_2  and  N_3
REMARK    3  A    between atoms: N_3  and  C_4
REMARK    4  A    between atoms: C_4  and  C_5
REMARK    5  A    between atoms: C_8  and  C_9
REMARK    6  A    between atoms: C_9  and  C_10
REMARK    7  A    between atoms: C_18  and  C_20
REMARK                            x       y       z     vdW  Elec       q    Type
REMARK                         _______ _______ _______ _____ _____    ______ ____
ROOT
ATOM      1  N   UNL     1      50.234   8.839  13.436  0.00  0.00    +0.000 N 
ATOM      2  C   UNL     1      50.578   9.029  14.790  0.00  0.00    +0.000 C 
ATOM      3  O   UNL     1      50.971  10.120  15.200  0.00  0.00    +0.000 OA
ENDROOT
BRANCH   2   4
ATOM      4  C   UNL     1      50.516   7.894  15.732  0.00  0.00    +0.000 A 
ATOM      5  C   UNL     1      51.521   6.958  15.923  0.00  0.00    +0.000 A 
ATOM      6  S   UNL     1      51.182   5.819  17.151  0.00  0.00    +0.000 S 
ATOM      7  C   UNL     1      49.758   6.639  17.583  0.00  0.00    +0.000 A 
ATOM      8  N   UNL     1      49.038   6.264  18.670  0.00  0.00    +0.000 NA
ATOM      9  C   UNL     1      48.022   7.025  18.917  0.00  0.00    +0.000 A 
ATOM     10  N   UNL     1      47.632   8.091  18.147  0.00  0.00    +0.000 N 
ATOM     11  C   UNL     1      48.258   8.420  16.955  0.00  0.00    +0.000 A 
ATOM     12  O   UNL     1      47.742   9.210  16.173  0.00  0.00    +0.000 OA
ATOM     13  C   UNL     1      49.483   7.686  16.719  0.00  0.00    +0.000 A 
ATOM     14  H   UNL     1      46.787   8.595  18.351  0.00  0.00    +0.000 HD
ENDBRANCH   2   4
BRANCH   1  16
ATOM     15  C   UNL     1      49.261  10.866  12.376  0.00  0.00    +0.000 C 
ATOM     16  C   UNL     1      50.474   9.957  12.518  0.00  0.00    +0.000 C 
ENDBRANCH   1  16
BRANCH   1  17
ATOM     17  C   UNL     1      49.782   7.553  12.920  0.00  0.00    +0.000 C 
BRANCH  17  18
ATOM     18  C   UNL     1      48.326   7.169  12.943  0.00  0.00    +0.000 A 
ATOM     19  C   UNL     1      47.416   7.868  12.132  0.00  0.00    +0.000 A 
ATOM     20  C   UNL     1      46.147   7.351  11.877  0.00  0.00    +0.000 A 
ATOM     21  C   UNL     1      45.755   6.137  12.453  0.00  0.00    +0.000 A 
ATOM     22  C   UNL     1      46.620   5.501  13.358  0.00  0.00    +0.000 A 
ATOM     23  C   UNL     1      47.898   6.012  13.599  0.00  0.00    +0.000 A 
BRANCH  21  24
ATOM     24  C   UNL     1      44.478   5.462  11.994  0.00  0.00    +0.000 C 
BRANCH  24  25
ATOM     25  C   UNL     1      44.689   4.570  10.783  0.00  0.00    +0.000 A 
ATOM     26  C   UNL     1      45.305   5.067   9.634  0.00  0.00    +0.000 A 
ATOM     27  C   UNL     1      45.427   4.244   8.517  0.00  0.00    +0.000 A 
ATOM     28  C   UNL     1      44.950   2.943   8.579  0.00  0.00    +0.000 A 
ATOM     29  C   UNL     1      44.371   2.516   9.762  0.00  0.00    +0.000 A 
ATOM     30  N   UNL     1      44.228   3.296  10.858  0.00  0.00    +0.000 NA
ENDBRANCH  24  25
ENDBRANCH  21  24
ENDBRANCH  17  18
ENDBRANCH   1  17
TORSDOF 6
ENDMDL
