MODEL 1
REMARK VINA RESULT:    -7.458      0.000      0.000
REMARK INTER + INTRA:         -11.539
REMARK INTER:                 -10.510
REMARK INTRA:                  -1.029
REMARK UNBOUND:                -1.029
REMARK  Name = 
REMARK  9 active torsions:
REMARK  status: ('A' for Active; 'I' for Inactive)
REMARK    1  A    between atoms: C_1  and  C_2
REMARK    2  A    between atoms: C_5  and  C_6
REMARK    3  A    between atoms: N_8  and  C_9
REMARK    4  A    between atoms: C_9  and  C_10
REMARK    5  A    between atoms: C_13  and  N_14
REMARK    6  A    between atoms: N_14  and  C_15
REMARK    7  A    between atoms: N_14  and  C_16
REMARK    8  A    between atoms: C_16  and  C_17
REMARK    9  A    between atoms: C_29  and  C_30
REMARK                            x       y       z     vdW  Elec       q    Type
REMARK                         _______ _______ _______ _____ _____    ______ ____
ROOT
ATOM      1  C   UNL     1      48.528   6.743  14.128  0.00  0.00    +0.000 C 
ENDROOT
BRANCH   1   2
ATOM      2  C   UNL     1      47.433   6.082  13.327  0.00  0.00    +0.000 A 
ATOM      3  C   UNL     1      46.928   6.688  12.177  0.00  0.00    +0.000 A 
ATOM      4  C   UNL     1      45.847   6.124  11.478  0.00  0.00    +0.000 A 
ATOM      5  C   UNL     1      45.214   4.941  11.893  0.00  0.00    +0.000 A 
ATOM      6  C   UNL     1      45.784   4.321  13.018  0.00  0.00    +0.000 A 
ATOM      7  C   UNL     1      46.859   4.878  13.732  0.00  0.00    +0.000 A 
BRANCH   5   8
ATOM      8  N   UNL     1      44.104   4.410  11.248  0.00  0.00    +0.000 N 
ATOM      9  C   UNL     1      42.752   4.939  11.443  0.00  0.00    +0.000 C 
BRANCH   8  10
ATOM     10  C   UNL     1      44.192   3.138  10.490  0.00  0.00    +0.000 C 
BRANCH  10  11
ATOM     11  C   UNL     1      45.348   3.089   9.463  0.00  0.00    +0.000 C 
ATOM     12  C   UNL     1      45.244   4.205   8.398  0.00  0.00    +0.000 C 
ATOM     13  N   UNL     1      46.322   4.132   7.385  0.00  0.00    +0.000 NA
ATOM     14  C   UNL     1      46.336   2.771   6.820  0.00  0.00    +0.000 C 
ATOM     15  C   UNL     1      46.488   1.704   7.912  0.00  0.00    +0.000 C 
ATOM     16  O   UNL     1      45.419   1.778   8.861  0.00  0.00    +0.000 OA
ATOM     17  H   UNL     1      47.215   4.304   7.845  0.00  0.00    +0.000 HD
ENDBRANCH  10  11
ENDBRANCH   8  10
ENDBRANCH   5   8
ENDBRANCH   1   2
BRANCH   1  20
ATOM     18  C   UNL     1      48.984   6.328  16.520  0.00  0.00    +0.000 C 
ATOM     19  O   UNL     1      50.056   5.771  16.289  0.00  0.00    +0.000 OA
ATOM     20  N   UNL     1      48.180   6.824  15.529  0.00  0.00    +0.000 N 
ATOM     21  H   UNL     1      47.306   7.285  15.785  0.00  0.00    +0.000 HD
BRANCH  18  26
ATOM     22  C   UNL     1      47.449  11.265  18.361  0.00  0.00    +0.000 C 
ATOM     23  C   UNL     1      47.593   9.831  18.719  0.00  0.00    +0.000 A 
ATOM     24  N   UNL     1      48.058   8.959  17.820  0.00  0.00    +0.000 NA
ATOM     25  N   UNL     1      48.073   7.745  18.453  0.00  0.00    +0.000 N 
ATOM     26  C   UNL     1      48.482   6.508  17.925  0.00  0.00    +0.000 A 
ATOM     27  C   UNL     1      48.422   5.415  18.721  0.00  0.00    +0.000 A 
ATOM     28  C   UNL     1      47.941   5.540  20.088  0.00  0.00    +0.000 A 
ATOM     29  C   UNL     1      47.547   6.722  20.591  0.00  0.00    +0.000 A 
ATOM     30  C   UNL     1      47.604   7.883  19.769  0.00  0.00    +0.000 A 
ATOM     31  C   UNL     1      47.295   9.210  19.949  0.00  0.00    +0.000 A 
BRANCH  31  32
ATOM     32  C   UNL     1      46.780   9.819  21.127  0.00  0.00    +0.000 C 
ATOM     33  N   UNL     1      46.363  10.313  22.087  0.00  0.00    +0.000 NA
ENDBRANCH  31  32
ENDBRANCH  18  26
ENDBRANCH   1  20
TORSDOF 7
ENDMDL
MODEL 2
REMARK VINA RESULT:    -7.182      1.518      2.690
REMARK INTER + INTRA:         -11.150
REMARK INTER:                 -10.313
REMARK INTRA:                  -0.837
REMARK UNBOUND:                -1.029
REMARK  Name = 
REMARK  9 active torsions:
REMARK  status: ('A' for Active; 'I' for Inactive)
REMARK    1  A    between atoms: C_1  and  C_2
REMARK    2  A    between atoms: C_5  and  C_6
REMARK    3  A    between atoms: N_8  and  C_9
REMARK    4  A    between atoms: C_9  and  C_10
REMARK    5  A    between atoms: C_13  and  N_14
REMARK    6  A    between atoms: N_14  and  C_15
REMARK    7  A    between atoms: N_14  and  C_16
REMARK    8  A    between atoms: C_16  and  C_17
REMARK    9  A    between atoms: C_29  and  C_30
REMARK                            x       y       z     vdW  Elec       q    Type
REMARK                         _______ _______ _______ _____ _____    ______ ____
ROOT
ATOM      1  C   UNL     1      48.708   6.961  13.699  0.00  0.00    +0.000 C 
ENDROOT
BRANCH   1   2
ATOM      2  C   UNL     1      47.543   6.282  13.023  0.00  0.00    +0.000 A 
ATOM      3  C   UNL     1      46.947   6.847  11.896  0.00  0.00    +0.000 A 
ATOM      4  C   UNL     1      45.805   6.269  11.315  0.00  0.00    +0.000 A 
ATOM      5  C   UNL     1      45.199   5.112  11.830  0.00  0.00    +0.000 A 
ATOM      6  C   UNL     1      45.858   4.530  12.928  0.00  0.00    +0.000 A 
ATOM      7  C   UNL     1      46.995   5.102  13.524  0.00  0.00    +0.000 A 
BRANCH   5   8
ATOM      8  N   UNL     1      44.033   4.568  11.305  0.00  0.00    +0.000 N 
ATOM      9  C   UNL     1      42.705   5.093  11.629  0.00  0.00    +0.000 C 
BRANCH   8  10
ATOM     10  C   UNL     1      44.053   3.290  10.554  0.00  0.00    +0.000 C 
BRANCH  10  11
ATOM     11  C   UNL     1      45.201   3.175   9.523  0.00  0.00    +0.000 C 
ATOM     12  C   UNL     1      45.080   4.212   8.382  0.00  0.00    +0.000 C 
ATOM     13  N   UNL     1      46.149   4.075   7.368  0.00  0.00    +0.000 NA
ATOM     14  C   UNL     1      46.168   2.676   6.901  0.00  0.00    +0.000 C 
ATOM     15  C   UNL     1      46.337   1.691   8.064  0.00  0.00    +0.000 C 
ATOM     16  O   UNL     1      45.275   1.825   9.015  0.00  0.00    +0.000 OA
ATOM     17  H   UNL     1      47.045   4.284   7.807  0.00  0.00    +0.000 HD
ENDBRANCH  10  11
ENDBRANCH   8  10
ENDBRANCH   5   8
ENDBRANCH   1   2
BRANCH   1  20
ATOM     18  C   UNL     1      48.523   8.298  15.768  0.00  0.00    +0.000 C 
ATOM     19  O   UNL     1      48.750   9.356  15.186  0.00  0.00    +0.000 OA
ATOM     20  N   UNL     1      48.488   7.091  15.123  0.00  0.00    +0.000 N 
ATOM     21  H   UNL     1      48.285   6.247  15.660  0.00  0.00    +0.000 HD
BRANCH  18  26
ATOM     22  C   UNL     1      48.789   3.581  18.562  0.00  0.00    +0.000 C 
ATOM     23  C   UNL     1      48.533   5.040  18.672  0.00  0.00    +0.000 A 
ATOM     24  N   UNL     1      48.601   5.817  17.586  0.00  0.00    +0.000 NA
ATOM     25  N   UNL     1      48.314   7.084  18.017  0.00  0.00    +0.000 N 
ATOM     26  C   UNL     1      48.259   8.259  17.248  0.00  0.00    +0.000 A 
ATOM     27  C   UNL     1      47.953   9.422  17.867  0.00  0.00    +0.000 A 
ATOM     28  C   UNL     1      47.692   9.435  19.298  0.00  0.00    +0.000 A 
ATOM     29  C   UNL     1      47.747   8.311  20.034  0.00  0.00    +0.000 A 
ATOM     30  C   UNL     1      48.067   7.078  19.399  0.00  0.00    +0.000 A 
ATOM     31  C   UNL     1      48.204   5.779  19.827  0.00  0.00    +0.000 A 
BRANCH  31  32
ATOM     32  C   UNL     1      48.050   5.292  21.154  0.00  0.00    +0.000 C 
ATOM     33  N   UNL     1      47.924   4.898  22.235  0.00  0.00    +0.000 NA
ENDBRANCH  31  32
ENDBRANCH  18  26
ENDBRANCH   1  20
TORSDOF 7
ENDMDL
MODEL 3
REMARK VINA RESULT:    -6.726      4.166      5.927
REMARK INTER + INTRA:         -10.508
REMARK INTER:                  -9.586
REMARK INTRA:                  -0.922
REMARK UNBOUND:                -1.029
REMARK  Name = 
REMARK  9 active torsions:
REMARK  status: ('A' for Active; 'I' for Inactive)
REMARK    1  A    between atoms: C_1  and  C_2
REMARK    2  A    between atoms: C_5  and  C_6
REMARK    3  A    between atoms: N_8  and  C_9
REMARK    4  A    between atoms: C_9  and  C_10
REMARK    5  A    between atoms: C_13  and  N_14
REMARK    6  A    between atoms: N_14  and  C_15
REMARK    7  A    between atoms: N_14  and  C_16
REMARK    8  A    between atoms: C_16  and  C_17
REMARK    9  A    between atoms: C_29  and  C_30
REMARK                            x       y       z     vdW  Elec       q    Type
REMARK                         _______ _______ _______ _____ _____    ______ ____
ROOT
ATOM      1  C   UNL     1      45.690   5.191  13.131  0.00  0.00    +0.000 C 
ENDROOT
BRANCH   1   2
ATOM      2  C   UNL     1      45.559   6.604  12.621  0.00  0.00    +0.000 A 
ATOM      3  C   UNL     1      46.310   7.636  13.185  0.00  0.00    +0.000 A 
ATOM      4  C   UNL     1      46.127   8.969  12.777  0.00  0.00    +0.000 A 
ATOM      5  C   UNL     1      45.187   9.338  11.802  0.00  0.00    +0.000 A 
ATOM      6  C   UNL     1      44.490   8.271  11.209  0.00  0.00    +0.000 A 
ATOM      7  C   UNL     1      44.656   6.935  11.612  0.00  0.00    +0.000 A 
BRANCH   5   8
ATOM      8  N   UNL     1      44.951  10.658  11.439  0.00  0.00    +0.000 N 
ATOM      9  C   UNL     1      45.801  11.763  11.888  0.00  0.00    +0.000 C 
BRANCH   8  10
ATOM     10  C   UNL     1      43.699  11.052  10.748  0.00  0.00    +0.000 C 
BRANCH  10  11
ATOM     11  C   UNL     1      42.413  10.810  11.574  0.00  0.00    +0.000 C 
ATOM     12  C   UNL     1      41.344  10.017  10.788  0.00  0.00    +0.000 C 
ATOM     13  N   UNL     1      40.094   9.824  11.558  0.00  0.00    +0.000 NA
ATOM     14  C   UNL     1      39.631  11.143  12.027  0.00  0.00    +0.000 C 
ATOM     15  C   UNL     1      40.711  11.868  12.839  0.00  0.00    +0.000 C 
ATOM     16  O   UNL     1      41.897  12.066  12.064  0.00  0.00    +0.000 OA
ATOM     17  H   UNL     1      40.296   9.241  12.370  0.00  0.00    +0.000 HD
ENDBRANCH  10  11
ENDBRANCH   8  10
ENDBRANCH   5   8
ENDBRANCH   1   2
BRANCH   1  20
ATOM     18  C   UNL     1      47.119   4.104  14.828  0.00  0.00    +0.000 C 
ATOM     19  O   UNL     1      47.316   3.114  14.127  0.00  0.00    +0.000 OA
ATOM     20  N   UNL     1      46.340   5.154  14.423  0.00  0.00    +0.000 N 
ATOM     21  H   UNL     1      46.220   5.953  15.047  0.00  0.00    +0.000 HD
BRANCH  18  26
ATOM     22  C   UNL     1      49.746   8.682  16.330  0.00  0.00    +0.000 C 
ATOM     23  C   UNL     1      49.326   7.328  16.772  0.00  0.00    +0.000 A 
ATOM     24  N   UNL     1      48.641   6.535  15.942  0.00  0.00    +0.000 NA
ATOM     25  N   UNL     1      48.415   5.377  16.637  0.00  0.00    +0.000 N 
ATOM     26  C   UNL     1      47.732   4.231  16.195  0.00  0.00    +0.000 A 
ATOM     27  C   UNL     1      47.618   3.181  17.040  0.00  0.00    +0.000 A 
ATOM     28  C   UNL     1      48.194   3.258  18.373  0.00  0.00    +0.000 A 
ATOM     29  C   UNL     1      48.844   4.356  18.798  0.00  0.00    +0.000 A 
ATOM     30  C   UNL     1      48.975   5.469  17.921  0.00  0.00    +0.000 A 
ATOM     31  C   UNL     1      49.559   6.710  18.018  0.00  0.00    +0.000 A 
BRANCH  31  32
ATOM     32  C   UNL     1      50.246   7.251  19.139  0.00  0.00    +0.000 C 
ATOM     33  N   UNL     1      50.808   7.691  20.051  0.00  0.00    +0.000 NA
ENDBRANCH  31  32
ENDBRANCH  18  26
ENDBRANCH   1  20
TORSDOF 7
ENDMDL
MODEL 4
REMARK VINA RESULT:    -6.203      4.339      8.966
REMARK INTER + INTRA:          -9.771
REMARK INTER:                  -8.504
REMARK INTRA:                  -1.268
REMARK UNBOUND:                -1.029
REMARK  Name = 
REMARK  9 active torsions:
REMARK  status: ('A' for Active; 'I' for Inactive)
REMARK    1  A    between atoms: C_1  and  C_2
REMARK    2  A    between atoms: C_5  and  C_6
REMARK    3  A    between atoms: N_8  and  C_9
REMARK    4  A    between atoms: C_9  and  C_10
REMARK    5  A    between atoms: C_13  and  N_14
REMARK    6  A    between atoms: N_14  and  C_15
REMARK    7  A    between atoms: N_14  and  C_16
REMARK    8  A    between atoms: C_16  and  C_17
REMARK    9  A    between atoms: C_29  and  C_30
REMARK                            x       y       z     vdW  Elec       q    Type
REMARK                         _______ _______ _______ _____ _____    ______ ____
ROOT
ATOM      1  C   UNL     1      47.244   3.406  17.019  0.00  0.00    +0.000 C 
ENDROOT
BRANCH   1   2
ATOM      2  C   UNL     1      48.694   3.426  17.432  0.00  0.00    +0.000 A 
ATOM      3  C   UNL     1      49.217   4.506  18.143  0.00  0.00    +0.000 A 
ATOM      4  C   UNL     1      50.586   4.574  18.452  0.00  0.00    +0.000 A 
ATOM      5  C   UNL     1      51.498   3.580  18.063  0.00  0.00    +0.000 A 
ATOM      6  C   UNL     1      50.933   2.475  17.403  0.00  0.00    +0.000 A 
ATOM      7  C   UNL     1      49.567   2.397  17.079  0.00  0.00    +0.000 A 
BRANCH   5   8
ATOM      8  N   UNL     1      52.864   3.667  18.305  0.00  0.00    +0.000 N 
ATOM      9  C   UNL     1      53.474   3.198  19.551  0.00  0.00    +0.000 C 
BRANCH   8  10
ATOM     10  C   UNL     1      53.755   4.436  17.403  0.00  0.00    +0.000 C 
BRANCH  10  11
ATOM     11  C   UNL     1      53.684   5.969  17.593  0.00  0.00    +0.000 C 
ATOM     12  C   UNL     1      53.053   6.690  16.380  0.00  0.00    +0.000 C 
ATOM     13  N   UNL     1      53.026   8.162  16.538  0.00  0.00    +0.000 NA
ATOM     14  C   UNL     1      54.392   8.618  16.855  0.00  0.00    +0.000 C 
ATOM     15  C   UNL     1      54.954   7.908  18.093  0.00  0.00    +0.000 C 
ATOM     16  O   UNL     1      54.995   6.490  17.903  0.00  0.00    +0.000 OA
ATOM     17  H   UNL     1      52.414   8.396  17.318  0.00  0.00    +0.000 HD
ENDBRANCH  10  11
ENDBRANCH   8  10
ENDBRANCH   5   8
ENDBRANCH   1   2
BRANCH   1  20
ATOM     18  C   UNL     1      47.031   4.150  14.673  0.00  0.00    +0.000 C 
ATOM     19  O   UNL     1      47.333   3.046  14.224  0.00  0.00    +0.000 OA
ATOM     20  N   UNL     1      46.968   4.411  16.016  0.00  0.00    +0.000 N 
ATOM     21  H   UNL     1      46.702   5.346  16.327  0.00  0.00    +0.000 HD
BRANCH  18  26
ATOM     22  C   UNL     1      50.686   8.131  13.716  0.00  0.00    +0.000 C 
ATOM     23  C   UNL     1      49.316   7.645  13.407  0.00  0.00    +0.000 A 
ATOM     24  N   UNL     1      48.869   6.511  13.953  0.00  0.00    +0.000 NA
ATOM     25  N   UNL     1      47.594   6.348  13.480  0.00  0.00    +0.000 N 
ATOM     26  C   UNL     1      46.701   5.302  13.765  0.00  0.00    +0.000 A 
ATOM     27  C   UNL     1      45.475   5.326  13.193  0.00  0.00    +0.000 A 
ATOM     28  C   UNL     1      45.111   6.419  12.305  0.00  0.00    +0.000 A 
ATOM     29  C   UNL     1      45.966   7.419  12.030  0.00  0.00    +0.000 A 
ATOM     30  C   UNL     1      47.260   7.410  12.624  0.00  0.00    +0.000 A 
ATOM     31  C   UNL     1      48.352   8.243  12.571  0.00  0.00    +0.000 A 
BRANCH  31  32
ATOM     32  C   UNL     1      48.477   9.448  11.825  0.00  0.00    +0.000 C 
ATOM     33  N   UNL     1      48.576  10.430  11.219  0.00  0.00    +0.000 NA
ENDBRANCH  31  32
ENDBRANCH  18  26
ENDBRANCH   1  20
TORSDOF 7
ENDMDL
MODEL 5
REMARK VINA RESULT:    -6.195      2.925      9.312
REMARK INTER + INTRA:          -9.760
REMARK INTER:                  -8.597
REMARK INTRA:                  -1.163
REMARK UNBOUND:                -1.029
REMARK  Name = 
REMARK  9 active torsions:
REMARK  status: ('A' for Active; 'I' for Inactive)
REMARK    1  A    between atoms: C_1  and  C_2
REMARK    2  A    between atoms: C_5  and  C_6
REMARK    3  A    between atoms: N_8  and  C_9
REMARK    4  A    between atoms: C_9  and  C_10
REMARK    5  A    between atoms: C_13  and  N_14
REMARK    6  A    between atoms: N_14  and  C_15
REMARK    7  A    between atoms: N_14  and  C_16
REMARK    8  A    between atoms: C_16  and  C_17
REMARK    9  A    between atoms: C_29  and  C_30
REMARK                            x       y       z     vdW  Elec       q    Type
REMARK                         _______ _______ _______ _____ _____    ______ ____
ROOT
ATOM      1  C   UNL     1      47.490   3.925  16.370  0.00  0.00    +0.000 C 
ENDROOT
BRANCH   1   2
ATOM      2  C   UNL     1      47.876   4.955  17.403  0.00  0.00    +0.000 A 
ATOM      3  C   UNL     1      49.116   5.590  17.345  0.00  0.00    +0.000 A 
ATOM      4  C   UNL     1      49.519   6.482  18.354  0.00  0.00    +0.000 A 
ATOM      5  C   UNL     1      48.716   6.776  19.467  0.00  0.00    +0.000 A 
ATOM      6  C   UNL     1      47.447   6.170  19.466  0.00  0.00    +0.000 A 
ATOM      7  C   UNL     1      47.034   5.269  18.469  0.00  0.00    +0.000 A 
BRANCH   5   8
ATOM      8  N   UNL     1      49.129   7.605  20.502  0.00  0.00    +0.000 N 
ATOM      9  C   UNL     1      49.084   7.192  21.907  0.00  0.00    +0.000 C 
BRANCH   8  10
ATOM     10  C   UNL     1      49.440   9.035  20.263  0.00  0.00    +0.000 C 
BRANCH  10  11
ATOM     11  C   UNL     1      48.319   9.818  19.538  0.00  0.00    +0.000 C 
ATOM     12  C   UNL     1      48.725  10.249  18.110  0.00  0.00    +0.000 C 
ATOM     13  N   UNL     1      47.674  11.039  17.429  0.00  0.00    +0.000 NA
ATOM     14  C   UNL     1      47.299  12.163  18.306  0.00  0.00    +0.000 C 
ATOM     15  C   UNL     1      46.859  11.679  19.694  0.00  0.00    +0.000 C 
ATOM     16  O   UNL     1      47.903  10.943  20.341  0.00  0.00    +0.000 OA
ATOM     17  H   UNL     1      46.857  10.445  17.292  0.00  0.00    +0.000 HD
ENDBRANCH  10  11
ENDBRANCH   8  10
ENDBRANCH   5   8
ENDBRANCH   1   2
BRANCH   1  20
ATOM     18  C   UNL     1      46.569   4.041  14.081  0.00  0.00    +0.000 C 
ATOM     19  O   UNL     1      47.301   3.144  13.667  0.00  0.00    +0.000 OA
ATOM     20  N   UNL     1      46.600   4.483  15.376  0.00  0.00    +0.000 N 
ATOM     21  H   UNL     1      45.960   5.225  15.662  0.00  0.00    +0.000 HD
BRANCH  18  26
ATOM     22  C   UNL     1      47.018   9.378  12.885  0.00  0.00    +0.000 C 
ATOM     23  C   UNL     1      46.214   8.150  12.656  0.00  0.00    +0.000 A 
ATOM     24  N   UNL     1      46.568   7.000  13.237  0.00  0.00    +0.000 NA
ATOM     25  N   UNL     1      45.638   6.079  12.836  0.00  0.00    +0.000 N 
ATOM     26  C   UNL     1      45.574   4.718  13.179  0.00  0.00    +0.000 A 
ATOM     27  C   UNL     1      44.566   3.971  12.675  0.00  0.00    +0.000 A 
ATOM     28  C   UNL     1      43.580   4.582  11.797  0.00  0.00    +0.000 A 
ATOM     29  C   UNL     1      43.642   5.883  11.465  0.00  0.00    +0.000 A 
ATOM     30  C   UNL     1      44.696   6.685  11.988  0.00  0.00    +0.000 A 
ATOM     31  C   UNL     1      45.055   8.006  11.866  0.00  0.00    +0.000 A 
BRANCH  31  32
ATOM     32  C   UNL     1      44.395   9.008  11.103  0.00  0.00    +0.000 C 
ATOM     33  N   UNL     1      43.857   9.826  10.483  0.00  0.00    +0.000 NA
ENDBRANCH  31  32
ENDBRANCH  18  26
ENDBRANCH   1  20
TORSDOF 7
ENDMDL
MODEL 6
REMARK VINA RESULT:    -6.143      4.652      9.202
REMARK INTER + INTRA:          -9.686
REMARK INTER:                  -8.734
REMARK INTRA:                  -0.951
REMARK UNBOUND:                -1.029
REMARK  Name = 
REMARK  9 active torsions:
REMARK  status: ('A' for Active; 'I' for Inactive)
REMARK    1  A    between atoms: C_1  and  C_2
REMARK    2  A    between atoms: C_5  and  C_6
REMARK    3  A    between atoms: N_8  and  C_9
REMARK    4  A    between atoms: C_9  and  C_10
REMARK    5  A    between atoms: C_13  and  N_14
REMARK    6  A    between atoms: N_14  and  C_15
REMARK    7  A    between atoms: N_14  and  C_16
REMARK    8  A    between atoms: C_16  and  C_17
REMARK    9  A    between atoms: C_29  and  C_30
REMARK                            x       y       z     vdW  Elec       q    Type
REMARK                         _______ _______ _______ _____ _____    ______ ____
ROOT
ATOM      1  C   UNL     1      47.320   3.769  16.852  0.00  0.00    +0.000 C 
ENDROOT
BRANCH   1   2
ATOM      2  C   UNL     1      48.805   3.819  17.106  0.00  0.00    +0.000 A 
ATOM      3  C   UNL     1      49.537   2.644  17.282  0.00  0.00    +0.000 A 
ATOM      4  C   UNL     1      50.903   2.685  17.610  0.00  0.00    +0.000 A 
ATOM      5  C   UNL     1      51.601   3.890  17.787  0.00  0.00    +0.000 A 
ATOM      6  C   UNL     1      50.854   5.056  17.544  0.00  0.00    +0.000 A 
ATOM      7  C   UNL     1      49.486   5.031  17.224  0.00  0.00    +0.000 A 
BRANCH   5   8
ATOM      8  N   UNL     1      52.934   3.944  18.175  0.00  0.00    +0.000 N 
ATOM      9  C   UNL     1      53.495   5.081  18.910  0.00  0.00    +0.000 C 
BRANCH   8  10
ATOM     10  C   UNL     1      53.918   2.951  17.682  0.00  0.00    +0.000 C 
BRANCH  10  11
ATOM     11  C   UNL     1      53.931   1.621  18.472  0.00  0.00    +0.000 C 
ATOM     12  C   UNL     1      55.057   1.570  19.531  0.00  0.00    +0.000 C 
ATOM     13  N   UNL     1      55.102   0.281  20.257  0.00  0.00    +0.000 NA
ATOM     14  C   UNL     1      55.171  -0.807  19.265  0.00  0.00    +0.000 C 
ATOM     15  C   UNL     1      54.007  -0.740  18.268  0.00  0.00    +0.000 C 
ATOM     16  O   UNL     1      54.003   0.504  17.559  0.00  0.00    +0.000 OA
ATOM     17  H   UNL     1      54.243   0.178  20.796  0.00  0.00    +0.000 HD
ENDBRANCH  10  11
ENDBRANCH   8  10
ENDBRANCH   5   8
ENDBRANCH   1   2
BRANCH   1  20
ATOM     18  C   UNL     1      46.955   4.261  14.458  0.00  0.00    +0.000 C 
ATOM     19  O   UNL     1      47.299   3.135  14.104  0.00  0.00    +0.000 OA
ATOM     20  N   UNL     1      46.940   4.651  15.770  0.00  0.00    +0.000 N 
ATOM     21  H   UNL     1      46.636   5.598  16.003  0.00  0.00    +0.000 HD
BRANCH  18  26
ATOM     22  C   UNL     1      48.993   9.355  14.595  0.00  0.00    +0.000 C 
ATOM     23  C   UNL     1      48.062   8.443  13.883  0.00  0.00    +0.000 A 
ATOM     24  N   UNL     1      47.920   7.178  14.291  0.00  0.00    +0.000 NA
ATOM     25  N   UNL     1      47.004   6.615  13.444  0.00  0.00    +0.000 N 
ATOM     26  C   UNL     1      46.518   5.297  13.460  0.00  0.00    +0.000 A 
ATOM     27  C   UNL     1      45.605   4.934  12.529  0.00  0.00    +0.000 A 
ATOM     28  C   UNL     1      45.153   5.901  11.542  0.00  0.00    +0.000 A 
ATOM     29  C   UNL     1      45.621   7.161  11.524  0.00  0.00    +0.000 A 
ATOM     30  C   UNL     1      46.580   7.561  12.496  0.00  0.00    +0.000 A 
ATOM     31  C   UNL     1      47.249   8.730  12.768  0.00  0.00    +0.000 A 
BRANCH  31  32
ATOM     32  C   UNL     1      47.142   9.963  12.067  0.00  0.00    +0.000 C 
ATOM     33  N   UNL     1      47.057  10.968  11.498  0.00  0.00    +0.000 NA
ENDBRANCH  31  32
ENDBRANCH  18  26
ENDBRANCH   1  20
TORSDOF 7
ENDMDL
MODEL 7
REMARK VINA RESULT:    -6.093      3.588      8.514
REMARK INTER + INTRA:          -9.615
REMARK INTER:                  -8.338
REMARK INTRA:                  -1.277
REMARK UNBOUND:                -1.029
REMARK  Name = 
REMARK  9 active torsions:
REMARK  status: ('A' for Active; 'I' for Inactive)
REMARK    1  A    between atoms: C_1  and  C_2
REMARK    2  A    between atoms: C_5  and  C_6
REMARK    3  A    between atoms: N_8  and  C_9
REMARK    4  A    between atoms: C_9  and  C_10
REMARK    5  A    between atoms: C_13  and  N_14
REMARK    6  A    between atoms: N_14  and  C_15
REMARK    7  A    between atoms: N_14  and  C_16
REMARK    8  A    between atoms: C_16  and  C_17
REMARK    9  A    between atoms: C_29  and  C_30
REMARK                            x       y       z     vdW  Elec       q    Type
REMARK                         _______ _______ _______ _____ _____    ______ ____
ROOT
ATOM      1  C   UNL     1      48.521   9.762  15.371  0.00  0.00    +0.000 C 
ENDROOT
BRANCH   1   2
ATOM      2  C   UNL     1      49.395   8.796  16.132  0.00  0.00    +0.000 A 
ATOM      3  C   UNL     1      50.196   7.877  15.456  0.00  0.00    +0.000 A 
ATOM      4  C   UNL     1      50.943   6.914  16.157  0.00  0.00    +0.000 A 
ATOM      5  C   UNL     1      50.920   6.815  17.558  0.00  0.00    +0.000 A 
ATOM      6  C   UNL     1      50.153   7.793  18.214  0.00  0.00    +0.000 A 
ATOM      7  C   UNL     1      49.395   8.756  17.526  0.00  0.00    +0.000 A 
BRANCH   5   8
ATOM      8  N   UNL     1      51.601   5.827  18.259  0.00  0.00    +0.000 N 
ATOM      9  C   UNL     1      53.064   5.771  18.320  0.00  0.00    +0.000 C 
BRANCH   8  10
ATOM     10  C   UNL     1      50.890   4.649  18.810  0.00  0.00    +0.000 C 
BRANCH  10  11
ATOM     11  C   UNL     1      49.620   4.246  18.023  0.00  0.00    +0.000 C 
ATOM     12  C   UNL     1      48.319   4.544  18.802  0.00  0.00    +0.000 C 
ATOM     13  N   UNL     1      47.104   4.117  18.073  0.00  0.00    +0.000 NA
ATOM     14  C   UNL     1      47.261   2.700  17.700  0.00  0.00    +0.000 C 
ATOM     15  C   UNL     1      48.542   2.465  16.889  0.00  0.00    +0.000 C 
ATOM     16  O   UNL     1      49.703   2.860  17.627  0.00  0.00    +0.000 OA
ATOM     17  H   UNL     1      47.021   4.672  17.221  0.00  0.00    +0.000 HD
ENDBRANCH  10  11
ENDBRANCH   8  10
ENDBRANCH   5   8
ENDBRANCH   1   2
BRANCH   1  20
ATOM     18  C   UNL     1      47.456   8.997  13.277  0.00  0.00    +0.000 C 
ATOM     19  O   UNL     1      48.314   9.519  12.569  0.00  0.00    +0.000 OA
ATOM     20  N   UNL     1      47.479   9.070  14.644  0.00  0.00    +0.000 N 
ATOM     21  H   UNL     1      46.743   8.607  15.178  0.00  0.00    +0.000 HD
BRANCH  18  26
ATOM     22  C   UNL     1      47.022   3.572  13.987  0.00  0.00    +0.000 C 
ATOM     23  C   UNL     1      46.391   4.766  13.369  0.00  0.00    +0.000 A 
ATOM     24  N   UNL     1      46.954   5.970  13.509  0.00  0.00    +0.000 NA
ATOM     25  N   UNL     1      46.144   6.840  12.829  0.00  0.00    +0.000 N 
ATOM     26  C   UNL     1      46.310   8.227  12.681  0.00  0.00    +0.000 A 
ATOM     27  C   UNL     1      45.391   8.914  11.963  0.00  0.00    +0.000 A 
ATOM     28  C   UNL     1      44.265   8.213  11.368  0.00  0.00    +0.000 A 
ATOM     29  C   UNL     1      44.104   6.886  11.513  0.00  0.00    +0.000 A 
ATOM     30  C   UNL     1      45.061   6.147  12.264  0.00  0.00    +0.000 A 
ATOM     31  C   UNL     1      45.209   4.823  12.602  0.00  0.00    +0.000 A 
BRANCH  31  32
ATOM     32  C   UNL     1      44.348   3.747  12.254  0.00  0.00    +0.000 C 
ATOM     33  N   UNL     1      43.644   2.872  11.971  0.00  0.00    +0.000 NA
ENDBRANCH  31  32
ENDBRANCH  18  26
ENDBRANCH   1  20
TORSDOF 7
ENDMDL
MODEL 8
REMARK VINA RESULT:    -6.042      4.443      5.816
REMARK INTER + INTRA:          -9.544
REMARK INTER:                  -8.441
REMARK INTRA:                  -1.103
REMARK UNBOUND:                -1.029
REMARK  Name = 
REMARK  9 active torsions:
REMARK  status: ('A' for Active; 'I' for Inactive)
REMARK    1  A    between atoms: C_1  and  C_2
REMARK    2  A    between atoms: C_5  and  C_6
REMARK    3  A    between atoms: N_8  and  C_9
REMARK    4  A    between atoms: C_9  and  C_10
REMARK    5  A    between atoms: C_13  and  N_14
REMARK    6  A    between atoms: N_14  and  C_15
REMARK    7  A    between atoms: N_14  and  C_16
REMARK    8  A    between atoms: C_16  and  C_17
REMARK    9  A    between atoms: C_29  and  C_30
REMARK                            x       y       z     vdW  Elec       q    Type
REMARK                         _______ _______ _______ _____ _____    ______ ____
ROOT
ATOM      1  C   UNL     1      45.623   5.350  13.061  0.00  0.00    +0.000 C 
ENDROOT
BRANCH   1   2
ATOM      2  C   UNL     1      45.524   6.778  12.587  0.00  0.00    +0.000 A 
ATOM      3  C   UNL     1      46.346   7.766  13.129  0.00  0.00    +0.000 A 
ATOM      4  C   UNL     1      46.198   9.114  12.759  0.00  0.00    +0.000 A 
ATOM      5  C   UNL     1      45.224   9.542  11.843  0.00  0.00    +0.000 A 
ATOM      6  C   UNL     1      44.452   8.518  11.267  0.00  0.00    +0.000 A 
ATOM      7  C   UNL     1      44.583   7.168  11.634  0.00  0.00    +0.000 A 
BRANCH   5   8
ATOM      8  N   UNL     1      45.024  10.879  11.518  0.00  0.00    +0.000 N 
ATOM      9  C   UNL     1      46.023  11.914  11.794  0.00  0.00    +0.000 C 
BRANCH   8  10
ATOM     10  C   UNL     1      43.699  11.369  11.068  0.00  0.00    +0.000 C 
BRANCH  10  11
ATOM     11  C   UNL     1      43.707  12.030   9.669  0.00  0.00    +0.000 C 
ATOM     12  C   UNL     1      42.286  12.206   9.087  0.00  0.00    +0.000 C 
ATOM     13  N   UNL     1      42.292  12.794   7.728  0.00  0.00    +0.000 NA
ATOM     14  C   UNL     1      43.186  11.988   6.878  0.00  0.00    +0.000 C 
ATOM     15  C   UNL     1      44.595  11.883   7.475  0.00  0.00    +0.000 C 
ATOM     16  O   UNL     1      44.564  11.285   8.776  0.00  0.00    +0.000 OA
ATOM     17  H   UNL     1      42.662  13.743   7.785  0.00  0.00    +0.000 HD
ENDBRANCH  10  11
ENDBRANCH   8  10
ENDBRANCH   5   8
ENDBRANCH   1   2
BRANCH   1  20
ATOM     18  C   UNL     1      47.059   4.158  14.680  0.00  0.00    +0.000 C 
ATOM     19  O   UNL     1      47.160   3.165  13.963  0.00  0.00    +0.000 OA
ATOM     20  N   UNL     1      46.330   5.260  14.320  0.00  0.00    +0.000 N 
ATOM     21  H   UNL     1      46.291   6.058  14.954  0.00  0.00    +0.000 HD
BRANCH  18  26
ATOM     22  C   UNL     1      50.435   8.311  15.896  0.00  0.00    +0.000 C 
ATOM     23  C   UNL     1      49.827   7.056  16.408  0.00  0.00    +0.000 A 
ATOM     24  N   UNL     1      48.991   6.354  15.637  0.00  0.00    +0.000 NA
ATOM     25  N   UNL     1      48.616   5.271  16.386  0.00  0.00    +0.000 N 
ATOM     26  C   UNL     1      47.744   4.233  16.016  0.00  0.00    +0.000 A 
ATOM     27  C   UNL     1      47.503   3.244  16.908  0.00  0.00    +0.000 A 
ATOM     28  C   UNL     1      48.141   3.275  18.214  0.00  0.00    +0.000 A 
ATOM     29  C   UNL     1      48.973   4.269  18.569  0.00  0.00    +0.000 A 
ATOM     30  C   UNL     1      49.239   5.318  17.643  0.00  0.00    +0.000 A 
ATOM     31  C   UNL     1      50.014   6.453  17.668  0.00  0.00    +0.000 A 
BRANCH  31  32
ATOM     32  C   UNL     1      50.825   6.915  18.740  0.00  0.00    +0.000 C 
ATOM     33  N   UNL     1      51.484   7.295  19.613  0.00  0.00    +0.000 NA
ENDBRANCH  31  32
ENDBRANCH  18  26
ENDBRANCH   1  20
TORSDOF 7
ENDMDL
MODEL 9
REMARK VINA RESULT:    -5.939      1.698      2.377
REMARK INTER + INTRA:          -9.399
REMARK INTER:                  -8.535
REMARK INTRA:                  -0.864
REMARK UNBOUND:                -1.029
REMARK  Name = 
REMARK  9 active torsions:
REMARK  status: ('A' for Active; 'I' for Inactive)
REMARK    1  A    between atoms: C_1  and  C_2
REMARK    2  A    between atoms: C_5  and  C_6
REMARK    3  A    between atoms: N_8  and  C_9
REMARK    4  A    between atoms: C_9  and  C_10
REMARK    5  A    between atoms: C_13  and  N_14
REMARK    6  A    between atoms: N_14  and  C_15
REMARK    7  A    between atoms: N_14  and  C_16
REMARK    8  A    between atoms: C_16  and  C_17
REMARK    9  A    between atoms: C_29  and  C_30
REMARK                            x       y       z     vdW  Elec       q    Type
REMARK                         _______ _______ _______ _____ _____    ______ ____
ROOT
ATOM      1  C   UNL     1      47.720   3.991  15.578  0.00  0.00    +0.000 C 
ENDROOT
BRANCH   1   2
ATOM      2  C   UNL     1      46.881   4.155  14.336  0.00  0.00    +0.000 A 
ATOM      3  C   UNL     1      46.473   5.420  13.914  0.00  0.00    +0.000 A 
ATOM      4  C   UNL     1      45.616   5.573  12.810  0.00  0.00    +0.000 A 
ATOM      5  C   UNL     1      45.119   4.481  12.083  0.00  0.00    +0.000 A 
ATOM      6  C   UNL     1      45.596   3.223  12.492  0.00  0.00    +0.000 A 
ATOM      7  C   UNL     1      46.446   3.054  13.599  0.00  0.00    +0.000 A 
BRANCH   5   8
ATOM      8  N   UNL     1      44.220   4.615  11.032  0.00  0.00    +0.000 N 
ATOM      9  C   UNL     1      43.205   5.670  10.994  0.00  0.00    +0.000 C 
BRANCH   8  10
ATOM     10  C   UNL     1      44.096   3.568   9.990  0.00  0.00    +0.000 C 
BRANCH  10  11
ATOM     11  C   UNL     1      45.380   3.345   9.156  0.00  0.00    +0.000 C 
ATOM     12  C   UNL     1      45.616   4.466   8.118  0.00  0.00    +0.000 C 
ATOM     13  N   UNL     1      46.818   4.232   7.285  0.00  0.00    +0.000 NA
ATOM     14  C   UNL     1      46.716   2.886   6.693  0.00  0.00    +0.000 C 
ATOM     15  C   UNL     1      46.530   1.806   7.766  0.00  0.00    +0.000 C 
ATOM     16  O   UNL     1      45.347   2.040   8.538  0.00  0.00    +0.000 OA
ATOM     17  H   UNL     1      47.642   4.264   7.885  0.00  0.00    +0.000 HD
ENDBRANCH  10  11
ENDBRANCH   8  10
ENDBRANCH   5   8
ENDBRANCH   1   2
BRANCH   1  20
ATOM     18  C   UNL     1      48.910   5.581  17.048  0.00  0.00    +0.000 C 
ATOM     19  O   UNL     1      49.911   4.871  17.120  0.00  0.00    +0.000 OA
ATOM     20  N   UNL     1      47.803   5.227  16.325  0.00  0.00    +0.000 N 
ATOM     21  H   UNL     1      47.005   5.864  16.296  0.00  0.00    +0.000 HD
BRANCH  18  26
ATOM     22  C   UNL     1      48.811  10.287  14.226  0.00  0.00    +0.000 C 
ATOM     23  C   UNL     1      48.789   9.691  15.586  0.00  0.00    +0.000 A 
ATOM     24  N   UNL     1      48.839   8.364  15.737  0.00  0.00    +0.000 NA
ATOM     25  N   UNL     1      48.807   8.142  17.088  0.00  0.00    +0.000 N 
ATOM     26  C   UNL     1      48.837   6.906  17.755  0.00  0.00    +0.000 A 
ATOM     27  C   UNL     1      48.799   6.901  19.107  0.00  0.00    +0.000 A 
ATOM     28  C   UNL     1      48.726   8.158  19.835  0.00  0.00    +0.000 A 
ATOM     29  C   UNL     1      48.694   9.341  19.197  0.00  0.00    +0.000 A 
ATOM     30  C   UNL     1      48.735   9.365  17.774  0.00  0.00    +0.000 A 
ATOM     31  C   UNL     1      48.723  10.359  16.825  0.00  0.00    +0.000 A 
BRANCH  31  32
ATOM     32  C   UNL     1      48.654  11.762  17.052  0.00  0.00    +0.000 C 
ATOM     33  N   UNL     1      48.600  12.904  17.235  0.00  0.00    +0.000 NA
ENDBRANCH  31  32
ENDBRANCH  18  26
ENDBRANCH   1  20
TORSDOF 7
ENDMDL
