MODEL 1
REMARK VINA RESULT:    -7.533      0.000      0.000
REMARK INTER + INTRA:         -10.253
REMARK INTER:                  -9.735
REMARK INTRA:                  -0.518
REMARK UNBOUND:                -0.518
REMARK  Name = 
REMARK  5 active torsions:
REMARK  status: ('A' for Active; 'I' for Inactive)
REMARK    1  A    between atoms: C_2  and  C_5
REMARK    2  A    between atoms: C_9  and  C_10
REMARK    3  A    between atoms: C_10  and  O_11
REMARK    4  A    between atoms: O_11  and  C_12
REMARK    5  A    between atoms: C_16  and  N_17
REMARK                            x       y       z     vdW  Elec       q    Type
REMARK                         _______ _______ _______ _____ _____    ______ ____
ROOT
ATOM      1  O   UNL     1      43.897   4.114  11.342  0.00  0.00    +0.000 OA
ENDROOT
BRANCH   1   2
ATOM      2  C   UNL     1      44.990   4.341  12.123  0.00  0.00    +0.000 A 
ATOM      3  C   UNL     1      45.509   3.235  12.780  0.00  0.00    +0.000 A 
ATOM      4  N   UNL     1      46.567   3.278  13.611  0.00  0.00    +0.000 NA
ATOM      5  C   UNL     1      47.119   4.501  13.806  0.00  0.00    +0.000 A 
ATOM      6  C   UNL     1      46.687   5.702  13.228  0.00  0.00    +0.000 A 
ATOM      7  C   UNL     1      45.586   5.579  12.364  0.00  0.00    +0.000 A 
BRANCH   6   8
ATOM      8  N   UNL     1      47.277   6.918  13.496  0.00  0.00    +0.000 N 
ATOM      9  C   UNL     1      46.774   8.191  12.952  0.00  0.00    +0.000 C 
ATOM     10  C   UNL     1      47.917   8.955  12.269  0.00  0.00    +0.000 C 
ATOM     11  O   UNL     1      49.034   9.140  13.156  0.00  0.00    +0.000 OA
ATOM     12  C   UNL     1      49.537   7.869  13.597  0.00  0.00    +0.000 C 
ATOM     13  C   UNL     1      48.464   7.064  14.352  0.00  0.00    +0.000 C 
ENDBRANCH   6   8
ENDBRANCH   1   2
BRANCH   1  14
ATOM     14  C   UNL     1      43.893   2.915  10.566  0.00  0.00    +0.000 C 
BRANCH  14  19
ATOM     15  C   UNL     1      46.407   2.191   7.775  0.00  0.00    +0.000 A 
ATOM     16  C   UNL     1      46.524   3.475   7.270  0.00  0.00    +0.000 A 
ATOM     17  N   UNL     1      45.857   4.544   7.766  0.00  0.00    +0.000 NA
ATOM     18  C   UNL     1      45.041   4.325   8.822  0.00  0.00    +0.000 A 
ATOM     19  C   UNL     1      44.859   3.085   9.421  0.00  0.00    +0.000 A 
ATOM     20  C   UNL     1      45.550   2.001   8.867  0.00  0.00    +0.000 A 
BRANCH  15  22
ATOM     21  F   UNL     1      48.512   1.223   7.170  0.00  0.00    +0.000 F 
ATOM     22  C   UNL     1      47.162   1.048   7.171  0.00  0.00    +0.000 C 
ATOM     23  F   UNL     1      46.815   0.827   5.872  0.00  0.00    +0.000 F 
ATOM     24  F   UNL     1      46.940  -0.127   7.821  0.00  0.00    +0.000 F 
ENDBRANCH  15  22
ENDBRANCH  14  19
ENDBRANCH   1  14
TORSDOF 5
ENDMDL
MODEL 2
REMARK VINA RESULT:    -7.151      4.218      7.512
REMARK INTER + INTRA:          -9.759
REMARK INTER:                  -9.042
REMARK INTRA:                  -0.717
REMARK UNBOUND:                -0.518
REMARK  Name = 
REMARK  5 active torsions:
REMARK  status: ('A' for Active; 'I' for Inactive)
REMARK    1  A    between atoms: C_2  and  C_5
REMARK    2  A    between atoms: C_9  and  C_10
REMARK    3  A    between atoms: C_10  and  O_11
REMARK    4  A    between atoms: O_11  and  C_12
REMARK    5  A    between atoms: C_16  and  N_17
REMARK                            x       y       z     vdW  Elec       q    Type
REMARK                         _______ _______ _______ _____ _____    ______ ____
ROOT
ATOM      1  O   UNL     1      45.433   5.652  13.345  0.00  0.00    +0.000 OA
ENDROOT
BRANCH   1   2
ATOM      2  C   UNL     1      44.861   4.685  12.574  0.00  0.00    +0.000 A 
ATOM      3  C   UNL     1      43.914   3.888  13.200  0.00  0.00    +0.000 A 
ATOM      4  N   UNL     1      43.268   2.870  12.601  0.00  0.00    +0.000 NA
ATOM      5  C   UNL     1      43.609   2.629  11.311  0.00  0.00    +0.000 A 
ATOM      6  C   UNL     1      44.560   3.336  10.564  0.00  0.00    +0.000 A 
ATOM      7  C   UNL     1      45.184   4.391  11.250  0.00  0.00    +0.000 A 
BRANCH   6   8
ATOM      8  N   UNL     1      44.880   3.016   9.263  0.00  0.00    +0.000 N 
ATOM      9  C   UNL     1      45.047   1.630   8.795  0.00  0.00    +0.000 C 
ATOM     10  C   UNL     1      46.392   1.482   8.069  0.00  0.00    +0.000 C 
ATOM     11  O   UNL     1      46.528   2.440   7.006  0.00  0.00    +0.000 OA
ATOM     12  C   UNL     1      46.436   3.777   7.523  0.00  0.00    +0.000 C 
ATOM     13  C   UNL     1      45.082   4.027   8.213  0.00  0.00    +0.000 C 
ENDBRANCH   6   8
ENDBRANCH   1   2
BRANCH   1  14
ATOM     14  C   UNL     1      46.817   5.926  13.120  0.00  0.00    +0.000 C 
BRANCH  14  19
ATOM     15  C   UNL     1      48.074   4.421  16.405  0.00  0.00    +0.000 A 
ATOM     16  C   UNL     1      49.036   5.370  16.707  0.00  0.00    +0.000 A 
ATOM     17  N   UNL     1      49.299   6.450  15.933  0.00  0.00    +0.000 NA
ATOM     18  C   UNL     1      48.562   6.597  14.809  0.00  0.00    +0.000 A 
ATOM     19  C   UNL     1      47.560   5.718  14.415  0.00  0.00    +0.000 A 
ATOM     20  C   UNL     1      47.332   4.603  15.230  0.00  0.00    +0.000 A 
BRANCH  15  22
ATOM     21  F   UNL     1      48.220   3.447  18.588  0.00  0.00    +0.000 F 
ATOM     22  C   UNL     1      47.842   3.240  17.296  0.00  0.00    +0.000 C 
ATOM     23  F   UNL     1      48.524   2.136  16.881  0.00  0.00    +0.000 F 
ATOM     24  F   UNL     1      46.533   2.872  17.345  0.00  0.00    +0.000 F 
ENDBRANCH  15  22
ENDBRANCH  14  19
ENDBRANCH   1  14
TORSDOF 5
ENDMDL
MODEL 3
REMARK VINA RESULT:    -7.096      1.774      2.327
REMARK INTER + INTRA:          -9.687
REMARK INTER:                  -8.794
REMARK INTRA:                  -0.894
REMARK UNBOUND:                -0.518
REMARK  Name = 
REMARK  5 active torsions:
REMARK  status: ('A' for Active; 'I' for Inactive)
REMARK    1  A    between atoms: C_2  and  C_5
REMARK    2  A    between atoms: C_9  and  C_10
REMARK    3  A    between atoms: C_10  and  O_11
REMARK    4  A    between atoms: O_11  and  C_12
REMARK    5  A    between atoms: C_16  and  N_17
REMARK                            x       y       z     vdW  Elec       q    Type
REMARK                         _______ _______ _______ _____ _____    ______ ____
ROOT
ATOM      1  O   UNL     1      43.953   5.687  12.493  0.00  0.00    +0.000 OA
ENDROOT
BRANCH   1   2
ATOM      2  C   UNL     1      45.232   5.802  12.947  0.00  0.00    +0.000 A 
ATOM      3  C   UNL     1      45.687   4.770  13.753  0.00  0.00    +0.000 A 
ATOM      4  N   UNL     1      46.912   4.730  14.310  0.00  0.00    +0.000 NA
ATOM      5  C   UNL     1      47.712   5.795  14.059  0.00  0.00    +0.000 A 
ATOM      6  C   UNL     1      47.378   6.914  13.284  0.00  0.00    +0.000 A 
ATOM      7  C   UNL     1      46.089   6.880  12.726  0.00  0.00    +0.000 A 
BRANCH   6   8
ATOM      8  N   UNL     1      48.232   7.977  13.095  0.00  0.00    +0.000 N 
ATOM      9  C   UNL     1      47.761   9.345  12.819  0.00  0.00    +0.000 C 
ATOM     10  C   UNL     1      48.461   9.896  11.568  0.00  0.00    +0.000 C 
ATOM     11  O   UNL     1      49.892   9.821  11.687  0.00  0.00    +0.000 OA
ATOM     12  C   UNL     1      50.307   8.460  11.877  0.00  0.00    +0.000 C 
ATOM     13  C   UNL     1      49.696   7.852  13.153  0.00  0.00    +0.000 C 
ENDBRANCH   6   8
ENDBRANCH   1   2
BRANCH   1  14
ATOM     14  C   UNL     1      43.740   5.890  11.095  0.00  0.00    +0.000 C 
BRANCH  14  19
ATOM     15  C   UNL     1      45.369   3.405   8.685  0.00  0.00    +0.000 A 
ATOM     16  C   UNL     1      44.790   2.245   9.170  0.00  0.00    +0.000 A 
ATOM     17  N   UNL     1      43.918   2.212  10.205  0.00  0.00    +0.000 NA
ATOM     18  C   UNL     1      43.601   3.394  10.780  0.00  0.00    +0.000 A 
ATOM     19  C   UNL     1      44.107   4.621  10.368  0.00  0.00    +0.000 A 
ATOM     20  C   UNL     1      45.020   4.611   9.308  0.00  0.00    +0.000 A 
BRANCH  15  22
ATOM     21  F   UNL     1      47.248   2.361   7.628  0.00  0.00    +0.000 F 
ATOM     22  C   UNL     1      46.339   3.371   7.544  0.00  0.00    +0.000 C 
ATOM     23  F   UNL     1      47.066   4.519   7.448  0.00  0.00    +0.000 F 
ATOM     24  F   UNL     1      45.723   3.219   6.340  0.00  0.00    +0.000 F 
ENDBRANCH  15  22
ENDBRANCH  14  19
ENDBRANCH   1  14
TORSDOF 5
ENDMDL
MODEL 4
REMARK VINA RESULT:    -6.999      2.509      3.541
REMARK INTER + INTRA:          -9.563
REMARK INTER:                  -8.892
REMARK INTRA:                  -0.671
REMARK UNBOUND:                -0.518
REMARK  Name = 
REMARK  5 active torsions:
REMARK  status: ('A' for Active; 'I' for Inactive)
REMARK    1  A    between atoms: C_2  and  C_5
REMARK    2  A    between atoms: C_9  and  C_10
REMARK    3  A    between atoms: C_10  and  O_11
REMARK    4  A    between atoms: O_11  and  C_12
REMARK    5  A    between atoms: C_16  and  N_17
REMARK                            x       y       z     vdW  Elec       q    Type
REMARK                         _______ _______ _______ _____ _____    ______ ____
ROOT
ATOM      1  O   UNL     1      44.853   5.182  11.952  0.00  0.00    +0.000 OA
ENDROOT
BRANCH   1   2
ATOM      2  C   UNL     1      45.916   5.529  12.731  0.00  0.00    +0.000 A 
ATOM      3  C   UNL     1      46.784   6.468  12.193  0.00  0.00    +0.000 A 
ATOM      4  N   UNL     1      47.897   6.908  12.809  0.00  0.00    +0.000 NA
ATOM      5  C   UNL     1      48.161   6.358  14.020  0.00  0.00    +0.000 A 
ATOM      6  C   UNL     1      47.389   5.387  14.671  0.00  0.00    +0.000 A 
ATOM      7  C   UNL     1      46.237   4.985  13.975  0.00  0.00    +0.000 A 
BRANCH   6   8
ATOM      8  N   UNL     1      47.734   4.848  15.890  0.00  0.00    +0.000 N 
ATOM      9  C   UNL     1      48.509   5.584  16.902  0.00  0.00    +0.000 C 
ATOM     10  C   UNL     1      49.711   4.742  17.355  0.00  0.00    +0.000 C 
ATOM     11  O   UNL     1      49.302   3.442  17.815  0.00  0.00    +0.000 OA
ATOM     12  C   UNL     1      48.619   2.734  16.769  0.00  0.00    +0.000 C 
ATOM     13  C   UNL     1      47.360   3.486  16.302  0.00  0.00    +0.000 C 
ENDBRANCH   6   8
ENDBRANCH   1   2
BRANCH   1  14
ATOM     14  C   UNL     1      44.916   5.543  10.571  0.00  0.00    +0.000 C 
BRANCH  14  19
ATOM     15  C   UNL     1      46.004   3.024   7.906  0.00  0.00    +0.000 A 
ATOM     16  C   UNL     1      45.329   1.916   8.389  0.00  0.00    +0.000 A 
ATOM     17  N   UNL     1      44.554   1.928   9.500  0.00  0.00    +0.000 NA
ATOM     18  C   UNL     1      44.439   3.105  10.156  0.00  0.00    +0.000 A 
ATOM     19  C   UNL     1      45.056   4.284   9.756  0.00  0.00    +0.000 A 
ATOM     20  C   UNL     1      45.864   4.225   8.614  0.00  0.00    +0.000 A 
BRANCH  15  22
ATOM     21  F   UNL     1      46.650   3.957   5.797  0.00  0.00    +0.000 F 
ATOM     22  C   UNL     1      46.857   2.940   6.678  0.00  0.00    +0.000 C 
ATOM     23  F   UNL     1      46.644   1.791   5.978  0.00  0.00    +0.000 F 
ATOM     24  F   UNL     1      48.187   2.960   6.965  0.00  0.00    +0.000 F 
ENDBRANCH  15  22
ENDBRANCH  14  19
ENDBRANCH   1  14
TORSDOF 5
ENDMDL
MODEL 5
REMARK VINA RESULT:    -6.826      2.769      4.385
REMARK INTER + INTRA:          -9.339
REMARK INTER:                  -8.575
REMARK INTRA:                  -0.764
REMARK UNBOUND:                -0.518
REMARK  Name = 
REMARK  5 active torsions:
REMARK  status: ('A' for Active; 'I' for Inactive)
REMARK    1  A    between atoms: C_2  and  C_5
REMARK    2  A    between atoms: C_9  and  C_10
REMARK    3  A    between atoms: C_10  and  O_11
REMARK    4  A    between atoms: O_11  and  C_12
REMARK    5  A    between atoms: C_16  and  N_17
REMARK                            x       y       z     vdW  Elec       q    Type
REMARK                         _______ _______ _______ _____ _____    ______ ____
ROOT
ATOM      1  O   UNL     1      46.485   6.762  11.384  0.00  0.00    +0.000 OA
ENDROOT
BRANCH   1   2
ATOM      2  C   UNL     1      47.352   6.810  12.434  0.00  0.00    +0.000 A 
ATOM      3  C   UNL     1      48.483   7.593  12.253  0.00  0.00    +0.000 A 
ATOM      4  N   UNL     1      49.457   7.735  13.172  0.00  0.00    +0.000 NA
ATOM      5  C   UNL     1      49.294   7.036  14.322  0.00  0.00    +0.000 A 
ATOM      6  C   UNL     1      48.218   6.193  14.629  0.00  0.00    +0.000 A 
ATOM      7  C   UNL     1      47.235   6.103  13.630  0.00  0.00    +0.000 A 
BRANCH   6   8
ATOM      8  N   UNL     1      48.131   5.488  15.809  0.00  0.00    +0.000 N 
ATOM      9  C   UNL     1      48.949   5.801  16.993  0.00  0.00    +0.000 C 
ATOM     10  C   UNL     1      49.656   4.532  17.491  0.00  0.00    +0.000 C 
ATOM     11  O   UNL     1      48.721   3.467  17.735  0.00  0.00    +0.000 OA
ATOM     12  C   UNL     1      48.004   3.146  16.533  0.00  0.00    +0.000 C 
ATOM     13  C   UNL     1      47.213   4.355  16.004  0.00  0.00    +0.000 C 
ENDBRANCH   6   8
ENDBRANCH   1   2
BRANCH   1  14
ATOM     14  C   UNL     1      45.090   6.758  11.696  0.00  0.00    +0.000 C 
BRANCH  14  19
ATOM     15  C   UNL     1      44.423   3.303  10.197  0.00  0.00    +0.000 A 
ATOM     16  C   UNL     1      43.614   2.800  11.202  0.00  0.00    +0.000 A 
ATOM     17  N   UNL     1      43.271   3.494  12.313  0.00  0.00    +0.000 NA
ATOM     18  C   UNL     1      43.751   4.753  12.425  0.00  0.00    +0.000 A 
ATOM     19  C   UNL     1      44.556   5.367  11.473  0.00  0.00    +0.000 A 
ATOM     20  C   UNL     1      44.904   4.609  10.348  0.00  0.00    +0.000 A 
BRANCH  15  22
ATOM     21  F   UNL     1      44.270   1.213   9.036  0.00  0.00    +0.000 F 
ATOM     22  C   UNL     1      44.776   2.477   8.999  0.00  0.00    +0.000 C 
ATOM     23  F   UNL     1      46.122   2.334   8.847  0.00  0.00    +0.000 F 
ATOM     24  F   UNL     1      44.326   3.024   7.837  0.00  0.00    +0.000 F 
ENDBRANCH  15  22
ENDBRANCH  14  19
ENDBRANCH   1  14
TORSDOF 5
ENDMDL
MODEL 6
REMARK VINA RESULT:    -6.757      4.554      8.179
REMARK INTER + INTRA:          -9.250
REMARK INTER:                  -8.460
REMARK INTRA:                  -0.790
REMARK UNBOUND:                -0.518
REMARK  Name = 
REMARK  5 active torsions:
REMARK  status: ('A' for Active; 'I' for Inactive)
REMARK    1  A    between atoms: C_2  and  C_5
REMARK    2  A    between atoms: C_9  and  C_10
REMARK    3  A    between atoms: C_10  and  O_11
REMARK    4  A    between atoms: O_11  and  C_12
REMARK    5  A    between atoms: C_16  and  N_17
REMARK                            x       y       z     vdW  Elec       q    Type
REMARK                         _______ _______ _______ _____ _____    ______ ____
ROOT
ATOM      1  O   UNL     1      49.216   6.520  14.237  0.00  0.00    +0.000 OA
ENDROOT
BRANCH   1   2
ATOM      2  C   UNL     1      47.964   6.688  13.727  0.00  0.00    +0.000 A 
ATOM      3  C   UNL     1      47.568   7.999  13.504  0.00  0.00    +0.000 A 
ATOM      4  N   UNL     1      46.359   8.352  13.029  0.00  0.00    +0.000 NA
ATOM      5  C   UNL     1      45.496   7.334  12.786  0.00  0.00    +0.000 A 
ATOM      6  C   UNL     1      45.753   5.971  12.986  0.00  0.00    +0.000 A 
ATOM      7  C   UNL     1      47.037   5.677  13.470  0.00  0.00    +0.000 A 
BRANCH   6   8
ATOM      8  N   UNL     1      44.817   4.990  12.745  0.00  0.00    +0.000 N 
ATOM      9  C   UNL     1      45.174   3.629  12.313  0.00  0.00    +0.000 C 
ATOM     10  C   UNL     1      44.374   3.251  11.058  0.00  0.00    +0.000 C 
ATOM     11  O   UNL     1      42.960   3.407  11.267  0.00  0.00    +0.000 OA
ATOM     12  C   UNL     1      42.652   4.768  11.610  0.00  0.00    +0.000 C 
ATOM     13  C   UNL     1      43.370   5.204  12.900  0.00  0.00    +0.000 C 
ENDBRANCH   6   8
ENDBRANCH   1   2
BRANCH   1  14
ATOM     14  C   UNL     1      49.555   7.293  15.390  0.00  0.00    +0.000 C 
BRANCH  14  19
ATOM     15  C   UNL     1      48.327   4.637  17.855  0.00  0.00    +0.000 A 
ATOM     16  C   UNL     1      47.974   5.477  18.897  0.00  0.00    +0.000 A 
ATOM     17  N   UNL     1      48.100   6.825  18.856  0.00  0.00    +0.000 NA
ATOM     18  C   UNL     1      48.594   7.363  17.718  0.00  0.00    +0.000 A 
ATOM     19  C   UNL     1      48.966   6.620  16.604  0.00  0.00    +0.000 A 
ATOM     20  C   UNL     1      48.839   5.229  16.693  0.00  0.00    +0.000 A 
BRANCH  15  22
ATOM     21  F   UNL     1      49.143   2.451  17.314  0.00  0.00    +0.000 F 
ATOM     22  C   UNL     1      48.176   3.152  17.970  0.00  0.00    +0.000 C 
ATOM     23  F   UNL     1      46.990   2.712  17.464  0.00  0.00    +0.000 F 
ATOM     24  F   UNL     1      48.214   2.721  19.260  0.00  0.00    +0.000 F 
ENDBRANCH  15  22
ENDBRANCH  14  19
ENDBRANCH   1  14
TORSDOF 5
ENDMDL
MODEL 7
REMARK VINA RESULT:    -6.525      3.572      7.124
REMARK INTER + INTRA:          -8.950
REMARK INTER:                  -8.206
REMARK INTRA:                  -0.743
REMARK UNBOUND:                -0.518
REMARK  Name = 
REMARK  5 active torsions:
REMARK  status: ('A' for Active; 'I' for Inactive)
REMARK    1  A    between atoms: C_2  and  C_5
REMARK    2  A    between atoms: C_9  and  C_10
REMARK    3  A    between atoms: C_10  and  O_11
REMARK    4  A    between atoms: O_11  and  C_12
REMARK    5  A    between atoms: C_16  and  N_17
REMARK                            x       y       z     vdW  Elec       q    Type
REMARK                         _______ _______ _______ _____ _____    ______ ____
ROOT
ATOM      1  O   UNL     1      45.868   5.739  13.212  0.00  0.00    +0.000 OA
ENDROOT
BRANCH   1   2
ATOM      2  C   UNL     1      45.147   4.868  12.452  0.00  0.00    +0.000 A 
ATOM      3  C   UNL     1      44.052   4.283  13.070  0.00  0.00    +0.000 A 
ATOM      4  N   UNL     1      43.244   3.383  12.480  0.00  0.00    +0.000 NA
ATOM      5  C   UNL     1      43.568   3.038  11.210  0.00  0.00    +0.000 A 
ATOM      6  C   UNL     1      44.653   3.530  10.473  0.00  0.00    +0.000 A 
ATOM      7  C   UNL     1      45.445   4.474  11.148  0.00  0.00    +0.000 A 
BRANCH   6   8
ATOM      8  N   UNL     1      44.942   3.112   9.193  0.00  0.00    +0.000 N 
ATOM      9  C   UNL     1      45.040   1.692   8.816  0.00  0.00    +0.000 C 
ATOM     10  C   UNL     1      46.368   1.435   8.089  0.00  0.00    +0.000 C 
ATOM     11  O   UNL     1      46.534   2.315   6.963  0.00  0.00    +0.000 OA
ATOM     12  C   UNL     1      46.508   3.685   7.392  0.00  0.00    +0.000 C 
ATOM     13  C   UNL     1      45.176   4.041   8.077  0.00  0.00    +0.000 C 
ENDBRANCH   6   8
ENDBRANCH   1   2
BRANCH   1  14
ATOM     14  C   UNL     1      46.901   5.184  14.029  0.00  0.00    +0.000 C 
BRANCH  14  19
ATOM     15  C   UNL     1      49.608   7.639  12.898  0.00  0.00    +0.000 A 
ATOM     16  C   UNL     1      50.143   7.936  14.140  0.00  0.00    +0.000 A 
ATOM     17  N   UNL     1      49.697   7.401  15.302  0.00  0.00    +0.000 NA
ATOM     18  C   UNL     1      48.674   6.521  15.220  0.00  0.00    +0.000 A 
ATOM     19  C   UNL     1      48.070   6.136  14.029  0.00  0.00    +0.000 A 
ATOM     20  C   UNL     1      48.547   6.726  12.853  0.00  0.00    +0.000 A 
BRANCH  15  22
ATOM     21  F   UNL     1      50.651   7.389  10.757  0.00  0.00    +0.000 F 
ATOM     22  C   UNL     1      50.139   8.278  11.652  0.00  0.00    +0.000 C 
ATOM     23  F   UNL     1      51.141   9.164  11.911  0.00  0.00    +0.000 F 
ATOM     24  F   UNL     1      49.187   8.979  10.978  0.00  0.00    +0.000 F 
ENDBRANCH  15  22
ENDBRANCH  14  19
ENDBRANCH   1  14
TORSDOF 5
ENDMDL
MODEL 8
REMARK VINA RESULT:    -6.450      2.379      3.571
REMARK INTER + INTRA:          -8.852
REMARK INTER:                  -8.231
REMARK INTRA:                  -0.621
REMARK UNBOUND:                -0.518
REMARK  Name = 
REMARK  5 active torsions:
REMARK  status: ('A' for Active; 'I' for Inactive)
REMARK    1  A    between atoms: C_2  and  C_5
REMARK    2  A    between atoms: C_9  and  C_10
REMARK    3  A    between atoms: C_10  and  O_11
REMARK    4  A    between atoms: O_11  and  C_12
REMARK    5  A    between atoms: C_16  and  N_17
REMARK                            x       y       z     vdW  Elec       q    Type
REMARK                         _______ _______ _______ _____ _____    ______ ____
ROOT
ATOM      1  O   UNL     1      45.358   6.131  12.661  0.00  0.00    +0.000 OA
ENDROOT
BRANCH   1   2
ATOM      2  C   UNL     1      46.630   6.568  12.880  0.00  0.00    +0.000 A 
ATOM      3  C   UNL     1      47.277   7.131  11.790  0.00  0.00    +0.000 A 
ATOM      4  N   UNL     1      48.542   7.591  11.816  0.00  0.00    +0.000 NA
ATOM      5  C   UNL     1      49.196   7.458  12.996  0.00  0.00    +0.000 A 
ATOM      6  C   UNL     1      48.677   6.891  14.168  0.00  0.00    +0.000 A 
ATOM      7  C   UNL     1      47.349   6.445  14.069  0.00  0.00    +0.000 A 
BRANCH   6   8
ATOM      8  N   UNL     1      49.411   6.761  15.326  0.00  0.00    +0.000 N 
ATOM      9  C   UNL     1      48.919   6.037  16.510  0.00  0.00    +0.000 C 
ATOM     10  C   UNL     1      49.047   6.926  17.756  0.00  0.00    +0.000 C 
ATOM     11  O   UNL     1      50.391   7.407  17.926  0.00  0.00    +0.000 OA
ATOM     12  C   UNL     1      50.797   8.171  16.780  0.00  0.00    +0.000 C 
ATOM     13  C   UNL     1      50.758   7.328  15.492  0.00  0.00    +0.000 C 
ENDBRANCH   6   8
ENDBRANCH   1   2
BRANCH   1  14
ATOM     14  C   UNL     1      44.788   6.410  11.381  0.00  0.00    +0.000 C 
BRANCH  14  19
ATOM     15  C   UNL     1      45.352   3.607   8.840  0.00  0.00    +0.000 A 
ATOM     16  C   UNL     1      44.458   2.684   9.355  0.00  0.00    +0.000 A 
ATOM     17  N   UNL     1      43.693   2.905  10.451  0.00  0.00    +0.000 NA
ATOM     18  C   UNL     1      43.819   4.107  11.057  0.00  0.00    +0.000 A 
ATOM     19  C   UNL     1      44.671   5.115  10.620  0.00  0.00    +0.000 A 
ATOM     20  C   UNL     1      45.459   4.840   9.496  0.00  0.00    +0.000 A 
BRANCH  15  22
ATOM     21  F   UNL     1      45.454   3.176   6.486  0.00  0.00    +0.000 F 
ATOM     22  C   UNL     1      46.180   3.295   7.632  0.00  0.00    +0.000 C 
ATOM     23  F   UNL     1      46.864   2.124   7.762  0.00  0.00    +0.000 F 
ATOM     24  F   UNL     1      47.118   4.248   7.381  0.00  0.00    +0.000 F 
ENDBRANCH  15  22
ENDBRANCH  14  19
ENDBRANCH   1  14
TORSDOF 5
ENDMDL
MODEL 9
REMARK VINA RESULT:    -6.382      3.362      4.545
REMARK INTER + INTRA:          -8.765
REMARK INTER:                  -8.242
REMARK INTRA:                  -0.524
REMARK UNBOUND:                -0.518
REMARK  Name = 
REMARK  5 active torsions:
REMARK  status: ('A' for Active; 'I' for Inactive)
REMARK    1  A    between atoms: C_2  and  C_5
REMARK    2  A    between atoms: C_9  and  C_10
REMARK    3  A    between atoms: C_10  and  O_11
REMARK    4  A    between atoms: O_11  and  C_12
REMARK    5  A    between atoms: C_16  and  N_17
REMARK                            x       y       z     vdW  Elec       q    Type
REMARK                         _______ _______ _______ _____ _____    ______ ____
ROOT
ATOM      1  O   UNL     1      47.342   6.333  12.756  0.00  0.00    +0.000 OA
ENDROOT
BRANCH   1   2
ATOM      2  C   UNL     1      47.540   5.750  13.971  0.00  0.00    +0.000 A 
ATOM      3  C   UNL     1      46.861   4.561  14.193  0.00  0.00    +0.000 A 
ATOM      4  N   UNL     1      46.918   3.862  15.342  0.00  0.00    +0.000 NA
ATOM      5  C   UNL     1      47.681   4.400  16.326  0.00  0.00    +0.000 A 
ATOM      6  C   UNL     1      48.400   5.600  16.249  0.00  0.00    +0.000 A 
ATOM      7  C   UNL     1      48.304   6.267  15.017  0.00  0.00    +0.000 A 
BRANCH   6   8
ATOM      8  N   UNL     1      49.133   6.103  17.301  0.00  0.00    +0.000 N 
ATOM      9  C   UNL     1      50.547   5.762  17.530  0.00  0.00    +0.000 C 
ATOM     10  C   UNL     1      50.740   5.281  18.976  0.00  0.00    +0.000 C 
ATOM     11  O   UNL     1      50.247   6.244  19.924  0.00  0.00    +0.000 OA
ATOM     12  C   UNL     1      48.848   6.485  19.709  0.00  0.00    +0.000 C 
ATOM     13  C   UNL     1      48.576   7.033  18.296  0.00  0.00    +0.000 C 
ENDBRANCH   6   8
ENDBRANCH   1   2
BRANCH   1  14
ATOM     14  C   UNL     1      46.092   6.995  12.550  0.00  0.00    +0.000 C 
BRANCH  14  19
ATOM     15  C   UNL     1      44.904   4.620   9.797  0.00  0.00    +0.000 A 
ATOM     16  C   UNL     1      43.596   4.455  10.222  0.00  0.00    +0.000 A 
ATOM     17  N   UNL     1      43.079   5.055  11.321  0.00  0.00    +0.000 NA
ATOM     18  C   UNL     1      43.902   5.864  12.025  0.00  0.00    +0.000 A 
ATOM     19  C   UNL     1      45.226   6.117  11.684  0.00  0.00    +0.000 A 
ATOM     20  C   UNL     1      45.728   5.463  10.553  0.00  0.00    +0.000 A 
BRANCH  15  22
ATOM     21  F   UNL     1      45.828   2.639   8.817  0.00  0.00    +0.000 F 
ATOM     22  C   UNL     1      45.418   3.916   8.579  0.00  0.00    +0.000 C 
ATOM     23  F   UNL     1      46.487   4.553   8.026  0.00  0.00    +0.000 F 
ATOM     24  F   UNL     1      44.484   3.829   7.593  0.00  0.00    +0.000 F 
ENDBRANCH  15  22
ENDBRANCH  14  19
ENDBRANCH   1  14
TORSDOF 5
ENDMDL
