MODEL 1
REMARK VINA RESULT:    -9.156      0.000      0.000
REMARK INTER + INTRA:         -12.139
REMARK INTER:                 -11.832
REMARK INTRA:                  -0.307
REMARK UNBOUND:                -0.307
REMARK  Name = 
REMARK  6 active torsions:
REMARK  status: ('A' for Active; 'I' for Inactive)
REMARK    1  A    between atoms: C_1  and  C_2
REMARK    2  A    between atoms: C_2  and  N_3
REMARK    3  A    between atoms: C_2  and  C_16
REMARK    4  A    between atoms: C_4  and  C_6
REMARK    5  A    between atoms: C_19  and  O_20
REMARK    6  A    between atoms: O_20  and  C_21
REMARK                            x       y       z     vdW  Elec       q    Type
REMARK                         _______ _______ _______ _____ _____    ______ ____
ROOT
ATOM      1  C   UNL     1      42.881   5.024  13.118  0.00  0.00    +0.000 C 
ATOM      2  C   UNL     1      44.216   4.328  12.848  0.00  0.00    +0.000 C 
ENDROOT
BRANCH   2   3
ATOM      3  C   UNL     1      44.621   4.307  11.383  0.00  0.00    +0.000 A 
ATOM      4  C   UNL     1      45.419   5.350  10.884  0.00  0.00    +0.000 A 
ATOM      5  C   UNL     1      45.798   5.382   9.540  0.00  0.00    +0.000 A 
ATOM      6  C   UNL     1      45.431   4.343   8.684  0.00  0.00    +0.000 A 
ATOM      7  C   UNL     1      44.587   3.337   9.151  0.00  0.00    +0.000 A 
ATOM      8  C   UNL     1      44.175   3.324  10.486  0.00  0.00    +0.000 A 
BRANCH   6   9
ATOM      9  O   UNL     1      45.796   4.258   7.360  0.00  0.00    +0.000 OA
BRANCH   9  10
ATOM     10  C   UNL     1      46.382   3.113   6.883  0.00  0.00    +0.000 A 
ATOM     11  C   UNL     1      46.605   1.951   7.622  0.00  0.00    +0.000 A 
ATOM     12  C   UNL     1      47.254   0.873   7.026  0.00  0.00    +0.000 A 
ATOM     13  C   UNL     1      47.604   0.973   5.689  0.00  0.00    +0.000 A 
ATOM     14  N   UNL     1      47.343   2.054   4.924  0.00  0.00    +0.000 NA
ATOM     15  C   UNL     1      46.734   3.097   5.540  0.00  0.00    +0.000 A 
ENDBRANCH   9  10
ENDBRANCH   6   9
ENDBRANCH   2   3
BRANCH   2  16
ATOM     16  N   UNL     1      45.278   4.951  13.609  0.00  0.00    +0.000 N 
ATOM     17  C   UNL     1      46.405   4.290  14.013  0.00  0.00    +0.000 C 
ATOM     18  O   UNL     1      46.628   3.122  13.703  0.00  0.00    +0.000 OA
ATOM     19  H   UNL     1      45.056   5.848  14.025  0.00  0.00    +0.000 HD
BRANCH  17  20
ATOM     20  C   UNL     1      47.378   5.081  14.768  0.00  0.00    +0.000 A 
ATOM     21  C   UNL     1      48.090   6.092  14.141  0.00  0.00    +0.000 A 
ATOM     22  S   UNL     1      49.125   6.947  15.191  0.00  0.00    +0.000 S 
ATOM     23  C   UNL     1      48.699   5.959  16.511  0.00  0.00    +0.000 A 
ATOM     24  N   UNL     1      49.253   6.151  17.738  0.00  0.00    +0.000 NA
ATOM     25  C   UNL     1      48.867   5.306  18.635  0.00  0.00    +0.000 A 
ATOM     26  N   UNL     1      47.977   4.287  18.417  0.00  0.00    +0.000 N 
ATOM     27  C   UNL     1      47.361   4.081  17.206  0.00  0.00    +0.000 A 
ATOM     28  O   UNL     1      46.520   3.198  17.061  0.00  0.00    +0.000 OA
ATOM     29  C   UNL     1      47.770   4.998  16.157  0.00  0.00    +0.000 A 
ATOM     30  H   UNL     1      47.710   3.665  19.165  0.00  0.00    +0.000 HD
ENDBRANCH  17  20
ENDBRANCH   2  16
TORSDOF 5
ENDMDL
MODEL 2
REMARK VINA RESULT:    -8.397      1.610      2.703
REMARK INTER + INTRA:         -11.158
REMARK INTER:                 -10.959
REMARK INTRA:                  -0.199
REMARK UNBOUND:                -0.307
REMARK  Name = 
REMARK  6 active torsions:
REMARK  status: ('A' for Active; 'I' for Inactive)
REMARK    1  A    between atoms: C_1  and  C_2
REMARK    2  A    between atoms: C_2  and  N_3
REMARK    3  A    between atoms: C_2  and  C_16
REMARK    4  A    between atoms: C_4  and  C_6
REMARK    5  A    between atoms: C_19  and  O_20
REMARK    6  A    between atoms: O_20  and  C_21
REMARK                            x       y       z     vdW  Elec       q    Type
REMARK                         _______ _______ _______ _____ _____    ______ ____
ROOT
ATOM      1  C   UNL     1      42.903   5.037  12.877  0.00  0.00    +0.000 C 
ATOM      2  C   UNL     1      44.244   4.332  12.663  0.00  0.00    +0.000 C 
ENDROOT
BRANCH   2   3
ATOM      3  C   UNL     1      44.720   4.326  11.219  0.00  0.00    +0.000 A 
ATOM      4  C   UNL     1      44.517   3.174  10.442  0.00  0.00    +0.000 A 
ATOM      5  C   UNL     1      44.956   3.116   9.117  0.00  0.00    +0.000 A 
ATOM      6  C   UNL     1      45.557   4.230   8.530  0.00  0.00    +0.000 A 
ATOM      7  C   UNL     1      45.822   5.355   9.308  0.00  0.00    +0.000 A 
ATOM      8  C   UNL     1      45.419   5.399  10.645  0.00  0.00    +0.000 A 
BRANCH   6   9
ATOM      9  O   UNL     1      45.977   4.288   7.221  0.00  0.00    +0.000 OA
BRANCH   9  10
ATOM     10  C   UNL     1      46.523   3.178   6.628  0.00  0.00    +0.000 A 
ATOM     11  C   UNL     1      46.565   2.934   5.255  0.00  0.00    +0.000 A 
ATOM     12  C   UNL     1      47.109   1.740   4.788  0.00  0.00    +0.000 A 
ATOM     13  C   UNL     1      47.649   0.858   5.708  0.00  0.00    +0.000 A 
ATOM     14  N   UNL     1      47.689   1.091   7.038  0.00  0.00    +0.000 NA
ATOM     15  C   UNL     1      47.128   2.249   7.464  0.00  0.00    +0.000 A 
ENDBRANCH   9  10
ENDBRANCH   6   9
ENDBRANCH   2   3
BRANCH   2  16
ATOM     16  N   UNL     1      45.273   4.934  13.484  0.00  0.00    +0.000 N 
ATOM     17  C   UNL     1      46.383   4.262  13.915  0.00  0.00    +0.000 C 
ATOM     18  O   UNL     1      46.621   3.104  13.582  0.00  0.00    +0.000 OA
ATOM     19  H   UNL     1      45.033   5.819  13.915  0.00  0.00    +0.000 HD
BRANCH  17  20
ATOM     20  C   UNL     1      47.324   5.033  14.731  0.00  0.00    +0.000 A 
ATOM     21  C   UNL     1      47.545   4.685  16.054  0.00  0.00    +0.000 A 
ATOM     22  S   UNL     1      48.720   5.651  16.824  0.00  0.00    +0.000 S 
ATOM     23  C   UNL     1      48.936   6.604  15.431  0.00  0.00    +0.000 A 
ATOM     24  N   UNL     1      49.811   7.644  15.420  0.00  0.00    +0.000 NA
ATOM     25  C   UNL     1      49.845   8.303  14.310  0.00  0.00    +0.000 A 
ATOM     26  N   UNL     1      49.082   8.016  13.208  0.00  0.00    +0.000 N 
ATOM     27  C   UNL     1      48.215   6.950  13.158  0.00  0.00    +0.000 A 
ATOM     28  O   UNL     1      47.593   6.683  12.134  0.00  0.00    +0.000 OA
ATOM     29  C   UNL     1      48.130   6.183  14.388  0.00  0.00    +0.000 A 
ATOM     30  H   UNL     1      49.162   8.566  12.367  0.00  0.00    +0.000 HD
ENDBRANCH  17  20
ENDBRANCH   2  16
TORSDOF 5
ENDMDL
MODEL 3
REMARK VINA RESULT:    -8.064      1.994      2.849
REMARK INTER + INTRA:         -10.728
REMARK INTER:                 -10.633
REMARK INTRA:                  -0.095
REMARK UNBOUND:                -0.307
REMARK  Name = 
REMARK  6 active torsions:
REMARK  status: ('A' for Active; 'I' for Inactive)
REMARK    1  A    between atoms: C_1  and  C_2
REMARK    2  A    between atoms: C_2  and  N_3
REMARK    3  A    between atoms: C_2  and  C_16
REMARK    4  A    between atoms: C_4  and  C_6
REMARK    5  A    between atoms: C_19  and  O_20
REMARK    6  A    between atoms: O_20  and  C_21
REMARK                            x       y       z     vdW  Elec       q    Type
REMARK                         _______ _______ _______ _____ _____    ______ ____
ROOT
ATOM      1  C   UNL     1      47.052   9.008  12.167  0.00  0.00    +0.000 C 
ATOM      2  C   UNL     1      46.146   7.985  12.856  0.00  0.00    +0.000 C 
ENDROOT
BRANCH   2   3
ATOM      3  C   UNL     1      45.651   6.877  11.941  0.00  0.00    +0.000 A 
ATOM      4  C   UNL     1      44.525   6.131  12.327  0.00  0.00    +0.000 A 
ATOM      5  C   UNL     1      44.047   5.090  11.528  0.00  0.00    +0.000 A 
ATOM      6  C   UNL     1      44.655   4.812  10.303  0.00  0.00    +0.000 A 
ATOM      7  C   UNL     1      45.811   5.500   9.940  0.00  0.00    +0.000 A 
ATOM      8  C   UNL     1      46.313   6.516  10.758  0.00  0.00    +0.000 A 
BRANCH   6   9
ATOM      9  O   UNL     1      44.229   3.842   9.425  0.00  0.00    +0.000 OA
BRANCH   9  10
ATOM     10  C   UNL     1      45.142   3.178   8.643  0.00  0.00    +0.000 A 
ATOM     11  C   UNL     1      45.868   3.741   7.595  0.00  0.00    +0.000 A 
ATOM     12  C   UNL     1      46.730   2.940   6.850  0.00  0.00    +0.000 A 
ATOM     13  C   UNL     1      46.881   1.613   7.221  0.00  0.00    +0.000 A 
ATOM     14  N   UNL     1      46.247   1.051   8.272  0.00  0.00    +0.000 NA
ATOM     15  C   UNL     1      45.395   1.850   8.960  0.00  0.00    +0.000 A 
ENDBRANCH   9  10
ENDBRANCH   6   9
ENDBRANCH   2   3
BRANCH   2  16
ATOM     16  N   UNL     1      46.824   7.383  13.983  0.00  0.00    +0.000 N 
ATOM     17  C   UNL     1      48.101   6.896  13.923  0.00  0.00    +0.000 C 
ATOM     18  O   UNL     1      48.794   6.991  12.913  0.00  0.00    +0.000 OA
ATOM     19  H   UNL     1      46.238   7.134  14.771  0.00  0.00    +0.000 HD
BRANCH  17  20
ATOM     20  C   UNL     1      48.632   6.329  15.164  0.00  0.00    +0.000 A 
ATOM     21  C   UNL     1      49.732   6.906  15.779  0.00  0.00    +0.000 A 
ATOM     22  S   UNL     1      50.165   6.152  17.246  0.00  0.00    +0.000 S 
ATOM     23  C   UNL     1      48.929   4.993  17.083  0.00  0.00    +0.000 A 
ATOM     24  N   UNL     1      48.754   4.018  18.015  0.00  0.00    +0.000 NA
ATOM     25  C   UNL     1      47.804   3.186  17.745  0.00  0.00    +0.000 A 
ATOM     26  N   UNL     1      47.013   3.240  16.629  0.00  0.00    +0.000 N 
ATOM     27  C   UNL     1      47.125   4.230  15.681  0.00  0.00    +0.000 A 
ATOM     28  O   UNL     1      46.358   4.286  14.724  0.00  0.00    +0.000 OA
ATOM     29  C   UNL     1      48.188   5.186  15.931  0.00  0.00    +0.000 A 
ATOM     30  H   UNL     1      46.280   2.562  16.480  0.00  0.00    +0.000 HD
ENDBRANCH  17  20
ENDBRANCH   2  16
TORSDOF 5
ENDMDL
MODEL 4
REMARK VINA RESULT:    -7.556      4.179      8.485
REMARK INTER + INTRA:         -10.072
REMARK INTER:                  -8.872
REMARK INTRA:                  -1.200
REMARK UNBOUND:                -0.307
REMARK  Name = 
REMARK  6 active torsions:
REMARK  status: ('A' for Active; 'I' for Inactive)
REMARK    1  A    between atoms: C_1  and  C_2
REMARK    2  A    between atoms: C_2  and  N_3
REMARK    3  A    between atoms: C_2  and  C_16
REMARK    4  A    between atoms: C_4  and  C_6
REMARK    5  A    between atoms: C_19  and  O_20
REMARK    6  A    between atoms: O_20  and  C_21
REMARK                            x       y       z     vdW  Elec       q    Type
REMARK                         _______ _______ _______ _____ _____    ______ ____
ROOT
ATOM      1  C   UNL     1      48.294   9.108  14.565  0.00  0.00    +0.000 C 
ATOM      2  C   UNL     1      48.441   7.632  14.188  0.00  0.00    +0.000 C 
ENDROOT
BRANCH   2   3
ATOM      3  C   UNL     1      48.931   6.747  15.321  0.00  0.00    +0.000 A 
ATOM      4  C   UNL     1      48.103   5.708  15.778  0.00  0.00    +0.000 A 
ATOM      5  C   UNL     1      48.504   4.881  16.831  0.00  0.00    +0.000 A 
ATOM      6  C   UNL     1      49.763   5.045  17.408  0.00  0.00    +0.000 A 
ATOM      7  C   UNL     1      50.567   6.112  17.009  0.00  0.00    +0.000 A 
ATOM      8  C   UNL     1      50.150   6.963  15.982  0.00  0.00    +0.000 A 
BRANCH   6   9
ATOM      9  O   UNL     1      50.268   4.253  18.414  0.00  0.00    +0.000 OA
BRANCH   9  10
ATOM     10  C   UNL     1      51.153   3.249  18.114  0.00  0.00    +0.000 A 
ATOM     11  C   UNL     1      52.510   3.244  18.438  0.00  0.00    +0.000 A 
ATOM     12  C   UNL     1      53.308   2.178  18.032  0.00  0.00    +0.000 A 
ATOM     13  C   UNL     1      52.708   1.122  17.365  0.00  0.00    +0.000 A 
ATOM     14  N   UNL     1      51.387   1.060  17.094  0.00  0.00    +0.000 NA
ATOM     15  C   UNL     1      50.641   2.125  17.480  0.00  0.00    +0.000 A 
ENDBRANCH   9  10
ENDBRANCH   6   9
ENDBRANCH   2   3
BRANCH   2  16
ATOM     16  N   UNL     1      47.184   7.104  13.702  0.00  0.00    +0.000 N 
ATOM     17  C   UNL     1      46.901   6.934  12.374  0.00  0.00    +0.000 C 
ATOM     18  O   UNL     1      47.724   7.163  11.492  0.00  0.00    +0.000 OA
ATOM     19  H   UNL     1      46.429   7.066  14.376  0.00  0.00    +0.000 HD
BRANCH  17  20
ATOM     20  C   UNL     1      45.582   6.378  12.065  0.00  0.00    +0.000 A 
ATOM     21  C   UNL     1      44.581   7.196  11.564  0.00  0.00    +0.000 A 
ATOM     22  S   UNL     1      43.139   6.362  11.201  0.00  0.00    +0.000 S 
ATOM     23  C   UNL     1      43.784   4.886  11.752  0.00  0.00    +0.000 A 
ATOM     24  N   UNL     1      43.044   3.746  11.732  0.00  0.00    +0.000 NA
ATOM     25  C   UNL     1      43.645   2.711  12.215  0.00  0.00    +0.000 A 
ATOM     26  N   UNL     1      44.921   2.711  12.715  0.00  0.00    +0.000 N 
ATOM     27  C   UNL     1      45.721   3.829  12.718  0.00  0.00    +0.000 A 
ATOM     28  O   UNL     1      46.881   3.780  13.115  0.00  0.00    +0.000 OA
ATOM     29  C   UNL     1      45.087   5.026  12.196  0.00  0.00    +0.000 A 
ATOM     30  H   UNL     1      45.337   1.864  13.072  0.00  0.00    +0.000 HD
ENDBRANCH  17  20
ENDBRANCH   2  16
TORSDOF 5
ENDMDL
MODEL 5
REMARK VINA RESULT:    -7.511      2.479      3.716
REMARK INTER + INTRA:         -10.013
REMARK INTER:                  -8.789
REMARK INTRA:                  -1.224
REMARK UNBOUND:                -0.307
REMARK  Name = 
REMARK  6 active torsions:
REMARK  status: ('A' for Active; 'I' for Inactive)
REMARK    1  A    between atoms: C_1  and  C_2
REMARK    2  A    between atoms: C_2  and  N_3
REMARK    3  A    between atoms: C_2  and  C_16
REMARK    4  A    between atoms: C_4  and  C_6
REMARK    5  A    between atoms: C_19  and  O_20
REMARK    6  A    between atoms: O_20  and  C_21
REMARK                            x       y       z     vdW  Elec       q    Type
REMARK                         _______ _______ _______ _____ _____    ______ ____
ROOT
ATOM      1  C   UNL     1      48.447   9.147  13.095  0.00  0.00    +0.000 C 
ATOM      2  C   UNL     1      47.666   8.090  13.879  0.00  0.00    +0.000 C 
ENDROOT
BRANCH   2   3
ATOM      3  C   UNL     1      46.746   7.234  13.023  0.00  0.00    +0.000 A 
ATOM      4  C   UNL     1      45.801   7.868  12.201  0.00  0.00    +0.000 A 
ATOM      5  C   UNL     1      44.921   7.122  11.413  0.00  0.00    +0.000 A 
ATOM      6  C   UNL     1      45.009   5.730  11.392  0.00  0.00    +0.000 A 
ATOM      7  C   UNL     1      45.899   5.087  12.251  0.00  0.00    +0.000 A 
ATOM      8  C   UNL     1      46.752   5.832  13.070  0.00  0.00    +0.000 A 
BRANCH   6   9
ATOM      9  O   UNL     1      44.224   4.911  10.614  0.00  0.00    +0.000 OA
BRANCH   9  10
ATOM     10  C   UNL     1      44.807   4.071   9.700  0.00  0.00    +0.000 A 
ATOM     11  C   UNL     1      44.708   2.680   9.701  0.00  0.00    +0.000 A 
ATOM     12  C   UNL     1      45.391   1.942   8.737  0.00  0.00    +0.000 A 
ATOM     13  C   UNL     1      46.103   2.627   7.767  0.00  0.00    +0.000 A 
ATOM     14  N   UNL     1      46.166   3.974   7.693  0.00  0.00    +0.000 NA
ATOM     15  C   UNL     1      45.512   4.663   8.660  0.00  0.00    +0.000 A 
ENDBRANCH   9  10
ENDBRANCH   6   9
ENDBRANCH   2   3
BRANCH   2  16
ATOM     16  N   UNL     1      48.571   7.217  14.596  0.00  0.00    +0.000 N 
ATOM     17  C   UNL     1      48.953   7.427  15.892  0.00  0.00    +0.000 C 
ATOM     18  O   UNL     1      48.503   8.349  16.569  0.00  0.00    +0.000 OA
ATOM     19  H   UNL     1      49.090   6.556  14.030  0.00  0.00    +0.000 HD
BRANCH  17  20
ATOM     20  C   UNL     1      49.869   6.437  16.461  0.00  0.00    +0.000 A 
ATOM     21  C   UNL     1      51.187   6.776  16.721  0.00  0.00    +0.000 A 
ATOM     22  S   UNL     1      52.084   5.518  17.444  0.00  0.00    +0.000 S 
ATOM     23  C   UNL     1      50.754   4.457  17.385  0.00  0.00    +0.000 A 
ATOM     24  N   UNL     1      50.854   3.180  17.842  0.00  0.00    +0.000 NA
ATOM     25  C   UNL     1      49.780   2.477  17.700  0.00  0.00    +0.000 A 
ATOM     26  N   UNL     1      48.615   2.934  17.144  0.00  0.00    +0.000 N 
ATOM     27  C   UNL     1      48.453   4.228  16.707  0.00  0.00    +0.000 A 
ATOM     28  O   UNL     1      47.376   4.623  16.272  0.00  0.00    +0.000 OA
ATOM     29  C   UNL     1      49.637   5.059  16.832  0.00  0.00    +0.000 A 
ATOM     30  H   UNL     1      47.807   2.335  17.070  0.00  0.00    +0.000 HD
ENDBRANCH  17  20
ENDBRANCH   2  16
TORSDOF 5
ENDMDL
MODEL 6
REMARK VINA RESULT:    -7.247      2.757      4.077
REMARK INTER + INTRA:          -9.672
REMARK INTER:                  -8.715
REMARK INTRA:                  -0.956
REMARK UNBOUND:                -0.307
REMARK  Name = 
REMARK  6 active torsions:
REMARK  status: ('A' for Active; 'I' for Inactive)
REMARK    1  A    between atoms: C_1  and  C_2
REMARK    2  A    between atoms: C_2  and  N_3
REMARK    3  A    between atoms: C_2  and  C_16
REMARK    4  A    between atoms: C_4  and  C_6
REMARK    5  A    between atoms: C_19  and  O_20
REMARK    6  A    between atoms: O_20  and  C_21
REMARK                            x       y       z     vdW  Elec       q    Type
REMARK                         _______ _______ _______ _____ _____    ______ ____
ROOT
ATOM      1  C   UNL     1      49.505   8.140  13.157  0.00  0.00    +0.000 C 
ATOM      2  C   UNL     1      48.072   8.210  13.690  0.00  0.00    +0.000 C 
ENDROOT
BRANCH   2   3
ATOM      3  C   UNL     1      47.087   7.324  12.944  0.00  0.00    +0.000 A 
ATOM      4  C   UNL     1      46.120   7.928  12.124  0.00  0.00    +0.000 A 
ATOM      5  C   UNL     1      45.181   7.155  11.435  0.00  0.00    +0.000 A 
ATOM      6  C   UNL     1      45.229   5.763  11.513  0.00  0.00    +0.000 A 
ATOM      7  C   UNL     1      46.142   5.156  12.373  0.00  0.00    +0.000 A 
ATOM      8  C   UNL     1      47.056   5.930  13.093  0.00  0.00    +0.000 A 
BRANCH   6   9
ATOM      9  O   UNL     1      44.383   4.915  10.835  0.00  0.00    +0.000 OA
BRANCH   9  10
ATOM     10  C   UNL     1      44.881   4.083   9.865  0.00  0.00    +0.000 A 
ATOM     11  C   UNL     1      44.763   2.694   9.854  0.00  0.00    +0.000 A 
ATOM     12  C   UNL     1      45.358   1.963   8.828  0.00  0.00    +0.000 A 
ATOM     13  C   UNL     1      46.000   2.654   7.815  0.00  0.00    +0.000 A 
ATOM     14  N   UNL     1      46.076   4.001   7.756  0.00  0.00    +0.000 NA
ATOM     15  C   UNL     1      45.510   4.682   8.782  0.00  0.00    +0.000 A 
ENDBRANCH   9  10
ENDBRANCH   6   9
ENDBRANCH   2   3
BRANCH   2  16
ATOM     16  N   UNL     1      48.035   7.859  15.093  0.00  0.00    +0.000 N 
ATOM     17  C   UNL     1      48.454   8.695  16.091  0.00  0.00    +0.000 C 
ATOM     18  O   UNL     1      48.840   9.840  15.870  0.00  0.00    +0.000 OA
ATOM     19  H   UNL     1      47.888   6.878  15.301  0.00  0.00    +0.000 HD
BRANCH  17  20
ATOM     20  C   UNL     1      48.335   8.177  17.456  0.00  0.00    +0.000 A 
ATOM     21  C   UNL     1      47.909   9.007  18.481  0.00  0.00    +0.000 A 
ATOM     22  S   UNL     1      47.767   8.215  19.984  0.00  0.00    +0.000 S 
ATOM     23  C   UNL     1      48.324   6.745  19.328  0.00  0.00    +0.000 A 
ATOM     24  N   UNL     1      48.457   5.637  20.104  0.00  0.00    +0.000 NA
ATOM     25  C   UNL     1      48.925   4.605  19.484  0.00  0.00    +0.000 A 
ATOM     26  N   UNL     1      49.270   4.580  18.159  0.00  0.00    +0.000 N 
ATOM     27  C   UNL     1      49.113   5.663  17.326  0.00  0.00    +0.000 A 
ATOM     28  O   UNL     1      49.373   5.589  16.129  0.00  0.00    +0.000 OA
ATOM     29  C   UNL     1      48.602   6.856  17.978  0.00  0.00    +0.000 A 
ATOM     30  H   UNL     1      49.623   3.737  17.732  0.00  0.00    +0.000 HD
ENDBRANCH  17  20
ENDBRANCH   2  16
TORSDOF 5
ENDMDL
MODEL 7
REMARK VINA RESULT:    -7.196      3.485      5.278
REMARK INTER + INTRA:          -9.606
REMARK INTER:                  -8.194
REMARK INTRA:                  -1.412
REMARK UNBOUND:                -0.307
REMARK  Name = 
REMARK  6 active torsions:
REMARK  status: ('A' for Active; 'I' for Inactive)
REMARK    1  A    between atoms: C_1  and  C_2
REMARK    2  A    between atoms: C_2  and  N_3
REMARK    3  A    between atoms: C_2  and  C_16
REMARK    4  A    between atoms: C_4  and  C_6
REMARK    5  A    between atoms: C_19  and  O_20
REMARK    6  A    between atoms: O_20  and  C_21
REMARK                            x       y       z     vdW  Elec       q    Type
REMARK                         _______ _______ _______ _____ _____    ______ ____
ROOT
ATOM      1  C   UNL     1      50.475   8.710  13.120  0.00  0.00    +0.000 C 
ATOM      2  C   UNL     1      49.209   8.714  13.979  0.00  0.00    +0.000 C 
ENDROOT
BRANCH   2   3
ATOM      3  C   UNL     1      47.976   8.174  13.273  0.00  0.00    +0.000 A 
ATOM      4  C   UNL     1      48.109   7.053  12.437  0.00  0.00    +0.000 A 
ATOM      5  C   UNL     1      47.007   6.534  11.752  0.00  0.00    +0.000 A 
ATOM      6  C   UNL     1      45.743   7.096  11.934  0.00  0.00    +0.000 A 
ATOM      7  C   UNL     1      45.610   8.247  12.709  0.00  0.00    +0.000 A 
ATOM      8  C   UNL     1      46.718   8.789  13.363  0.00  0.00    +0.000 A 
BRANCH   6   9
ATOM      9  O   UNL     1      44.591   6.628  11.345  0.00  0.00    +0.000 OA
BRANCH   9  10
ATOM     10  C   UNL     1      44.249   5.305  11.465  0.00  0.00    +0.000 A 
ATOM     11  C   UNL     1      44.278   4.365  10.435  0.00  0.00    +0.000 A 
ATOM     12  C   UNL     1      43.859   3.061  10.684  0.00  0.00    +0.000 A 
ATOM     13  C   UNL     1      43.482   2.726  11.974  0.00  0.00    +0.000 A 
ATOM     14  N   UNL     1      43.507   3.590  13.012  0.00  0.00    +0.000 NA
ATOM     15  C   UNL     1      43.894   4.858  12.731  0.00  0.00    +0.000 A 
ENDBRANCH   9  10
ENDBRANCH   6   9
ENDBRANCH   2   3
BRANCH   2  16
ATOM     16  N   UNL     1      49.415   7.951  15.192  0.00  0.00    +0.000 N 
ATOM     17  C   UNL     1      48.901   8.313  16.407  0.00  0.00    +0.000 C 
ATOM     18  O   UNL     1      48.168   9.290  16.546  0.00  0.00    +0.000 OA
ATOM     19  H   UNL     1      50.143   7.247  15.154  0.00  0.00    +0.000 HD
BRANCH  17  20
ATOM     20  C   UNL     1      49.203   7.418  17.525  0.00  0.00    +0.000 A 
ATOM     21  C   UNL     1      49.786   7.917  18.679  0.00  0.00    +0.000 A 
ATOM     22  S   UNL     1      50.001   6.743  19.896  0.00  0.00    +0.000 S 
ATOM     23  C   UNL     1      49.372   5.512  18.902  0.00  0.00    +0.000 A 
ATOM     24  N   UNL     1      49.288   4.228  19.342  0.00  0.00    +0.000 NA
ATOM     25  C   UNL     1      48.827   3.395  18.471  0.00  0.00    +0.000 A 
ATOM     26  N   UNL     1      48.441   3.727  17.199  0.00  0.00    +0.000 N 
ATOM     27  C   UNL     1      48.468   5.017  16.724  0.00  0.00    +0.000 A 
ATOM     28  O   UNL     1      48.055   5.292  15.602  0.00  0.00    +0.000 OA
ATOM     29  C   UNL     1      48.991   5.994  17.662  0.00  0.00    +0.000 A 
ATOM     30  H   UNL     1      48.080   3.027  16.568  0.00  0.00    +0.000 HD
ENDBRANCH  17  20
ENDBRANCH   2  16
TORSDOF 5
ENDMDL
MODEL 8
REMARK VINA RESULT:    -7.145      2.557      3.998
REMARK INTER + INTRA:          -9.540
REMARK INTER:                  -8.748
REMARK INTRA:                  -0.792
REMARK UNBOUND:                -0.307
REMARK  Name = 
REMARK  6 active torsions:
REMARK  status: ('A' for Active; 'I' for Inactive)
REMARK    1  A    between atoms: C_1  and  C_2
REMARK    2  A    between atoms: C_2  and  N_3
REMARK    3  A    between atoms: C_2  and  C_16
REMARK    4  A    between atoms: C_4  and  C_6
REMARK    5  A    between atoms: C_19  and  O_20
REMARK    6  A    between atoms: O_20  and  C_21
REMARK                            x       y       z     vdW  Elec       q    Type
REMARK                         _______ _______ _______ _____ _____    ______ ____
ROOT
ATOM      1  C   UNL     1      49.372   8.066  13.396  0.00  0.00    +0.000 C 
ATOM      2  C   UNL     1      48.120   7.594  14.137  0.00  0.00    +0.000 C 
ENDROOT
BRANCH   2   3
ATOM      3  C   UNL     1      47.127   6.842  13.266  0.00  0.00    +0.000 A 
ATOM      4  C   UNL     1      46.367   7.560  12.329  0.00  0.00    +0.000 A 
ATOM      5  C   UNL     1      45.428   6.914  11.521  0.00  0.00    +0.000 A 
ATOM      6  C   UNL     1      45.273   5.529  11.599  0.00  0.00    +0.000 A 
ATOM      7  C   UNL     1      45.974   4.815  12.570  0.00  0.00    +0.000 A 
ATOM      8  C   UNL     1      46.885   5.467  13.405  0.00  0.00    +0.000 A 
BRANCH   6   9
ATOM      9  O   UNL     1      44.413   4.797  10.814  0.00  0.00    +0.000 OA
BRANCH   9  10
ATOM     10  C   UNL     1      44.911   3.996   9.817  0.00  0.00    +0.000 A 
ATOM     11  C   UNL     1      44.817   2.605   9.775  0.00  0.00    +0.000 A 
ATOM     12  C   UNL     1      45.409   1.909   8.724  0.00  0.00    +0.000 A 
ATOM     13  C   UNL     1      46.025   2.635   7.718  0.00  0.00    +0.000 A 
ATOM     14  N   UNL     1      46.075   3.984   7.690  0.00  0.00    +0.000 NA
ATOM     15  C   UNL     1      45.513   4.631   8.739  0.00  0.00    +0.000 A 
ENDBRANCH   9  10
ENDBRANCH   6   9
ENDBRANCH   2   3
BRANCH   2  16
ATOM     16  N   UNL     1      48.480   6.751  15.258  0.00  0.00    +0.000 N 
ATOM     17  C   UNL     1      49.045   7.228  16.409  0.00  0.00    +0.000 C 
ATOM     18  O   UNL     1      49.233   8.427  16.601  0.00  0.00    +0.000 OA
ATOM     19  H   UNL     1      48.500   5.755  15.074  0.00  0.00    +0.000 HD
BRANCH  17  20
ATOM     20  C   UNL     1      49.335   6.232  17.442  0.00  0.00    +0.000 A 
ATOM     21  C   UNL     1      50.285   5.248  17.214  0.00  0.00    +0.000 A 
ATOM     22  S   UNL     1      50.536   4.222  18.552  0.00  0.00    +0.000 S 
ATOM     23  C   UNL     1      49.344   5.022  19.465  0.00  0.00    +0.000 A 
ATOM     24  N   UNL     1      49.042   4.623  20.729  0.00  0.00    +0.000 NA
ATOM     25  C   UNL     1      48.092   5.295  21.289  0.00  0.00    +0.000 A 
ATOM     26  N   UNL     1      47.418   6.333  20.701  0.00  0.00    +0.000 N 
ATOM     27  C   UNL     1      47.717   6.799  19.443  0.00  0.00    +0.000 A 
ATOM     28  O   UNL     1      47.136   7.771  18.969  0.00  0.00    +0.000 OA
ATOM     29  C   UNL     1      48.771   6.067  18.763  0.00  0.00    +0.000 A 
ATOM     30  H   UNL     1      46.690   6.824  21.198  0.00  0.00    +0.000 HD
ENDBRANCH  17  20
ENDBRANCH   2  16
TORSDOF 5
ENDMDL
MODEL 9
REMARK VINA RESULT:    -7.102      2.812      4.393
REMARK INTER + INTRA:          -9.485
REMARK INTER:                  -8.362
REMARK INTRA:                  -1.123
REMARK UNBOUND:                -0.307
REMARK  Name = 
REMARK  6 active torsions:
REMARK  status: ('A' for Active; 'I' for Inactive)
REMARK    1  A    between atoms: C_1  and  C_2
REMARK    2  A    between atoms: C_2  and  N_3
REMARK    3  A    between atoms: C_2  and  C_16
REMARK    4  A    between atoms: C_4  and  C_6
REMARK    5  A    between atoms: C_19  and  O_20
REMARK    6  A    between atoms: O_20  and  C_21
REMARK                            x       y       z     vdW  Elec       q    Type
REMARK                         _______ _______ _______ _____ _____    ______ ____
ROOT
ATOM      1  C   UNL     1      47.784   3.268  16.619  0.00  0.00    +0.000 C 
ATOM      2  C   UNL     1      48.008   4.573  15.851  0.00  0.00    +0.000 C 
ENDROOT
BRANCH   2   3
ATOM      3  C   UNL     1      47.121   4.736  14.628  0.00  0.00    +0.000 A 
ATOM      4  C   UNL     1      46.599   3.587  14.011  0.00  0.00    +0.000 A 
ATOM      5  C   UNL     1      45.796   3.687  12.872  0.00  0.00    +0.000 A 
ATOM      6  C   UNL     1      45.455   4.942  12.364  0.00  0.00    +0.000 A 
ATOM      7  C   UNL     1      46.019   6.085  12.929  0.00  0.00    +0.000 A 
ATOM      8  C   UNL     1      46.855   5.983  14.044  0.00  0.00    +0.000 A 
BRANCH   6   9
ATOM      9  O   UNL     1      44.633   5.146  11.281  0.00  0.00    +0.000 OA
BRANCH   9  10
ATOM     10  C   UNL     1      44.917   4.542  10.082  0.00  0.00    +0.000 A 
ATOM     11  C   UNL     1      44.362   3.346   9.628  0.00  0.00    +0.000 A 
ATOM     12  C   UNL     1      44.775   2.818   8.408  0.00  0.00    +0.000 A 
ATOM     13  C   UNL     1      45.687   3.539   7.654  0.00  0.00    +0.000 A 
ATOM     14  N   UNL     1      46.193   4.733   8.029  0.00  0.00    +0.000 NA
ATOM     15  C   UNL     1      45.792   5.207   9.233  0.00  0.00    +0.000 A 
ENDBRANCH   9  10
ENDBRANCH   6   9
ENDBRANCH   2   3
BRANCH   2  16
ATOM     16  N   UNL     1      47.809   5.713  16.720  0.00  0.00    +0.000 N 
ATOM     17  C   UNL     1      48.804   6.591  17.052  0.00  0.00    +0.000 C 
ATOM     18  O   UNL     1      49.937   6.508  16.583  0.00  0.00    +0.000 OA
ATOM     19  H   UNL     1      46.948   5.718  17.254  0.00  0.00    +0.000 HD
BRANCH  17  20
ATOM     20  C   UNL     1      48.420   7.693  17.936  0.00  0.00    +0.000 A 
ATOM     21  C   UNL     1      48.435   8.998  17.468  0.00  0.00    +0.000 A 
ATOM     22  S   UNL     1      47.893  10.138  18.614  0.00  0.00    +0.000 S 
ATOM     23  C   UNL     1      47.671   8.933  19.795  0.00  0.00    +0.000 A 
ATOM     24  N   UNL     1      47.229   9.245  21.042  0.00  0.00    +0.000 NA
ATOM     25  C   UNL     1      47.143   8.238  21.846  0.00  0.00    +0.000 A 
ATOM     26  N   UNL     1      47.458   6.947  21.516  0.00  0.00    +0.000 N 
ATOM     27  C   UNL     1      47.869   6.577  20.258  0.00  0.00    +0.000 A 
ATOM     28  O   UNL     1      48.082   5.401  19.977  0.00  0.00    +0.000 OA
ATOM     29  C   UNL     1      47.994   7.675  19.317  0.00  0.00    +0.000 A 
ATOM     30  H   UNL     1      47.361   6.202  22.191  0.00  0.00    +0.000 HD
ENDBRANCH  17  20
ENDBRANCH   2  16
TORSDOF 5
ENDMDL
