MODEL 1
REMARK VINA RESULT:    -6.649      0.000      0.000
REMARK INTER + INTRA:          -9.336
REMARK INTER:                  -8.593
REMARK INTRA:                  -0.743
REMARK UNBOUND:                -0.743
REMARK  Name = 
REMARK  8 active torsions:
REMARK  status: ('A' for Active; 'I' for Inactive)
REMARK    1  A    between atoms: C_1  and  O_2
REMARK    2  A    between atoms: O_2  and  C_3
REMARK    3  A    between atoms: C_5  and  C_6
REMARK    4  A    between atoms: C_6  and  O_7
REMARK    5  A    between atoms: N_10  and  C_11
REMARK    6  A    between atoms: C_13  and  C_14
REMARK    7  A    between atoms: C_16  and  O_17
REMARK    8  A    between atoms: C_23  and  C_24
REMARK                            x       y       z     vdW  Elec       q    Type
REMARK                         _______ _______ _______ _____ _____    ______ ____
ROOT
ATOM      1  C   UNL     1      45.379   5.193  11.075  0.00  0.00    +0.000 C 
ATOM      2  C   UNL     1      45.443   3.669  11.307  0.00  0.00    +0.000 C 
ATOM      3  C   UNL     1      44.759   2.866  10.205  0.00  0.00    +0.000 C 
ATOM      4  N   UNL     1      45.294   3.295   8.915  0.00  0.00    +0.000 N 
ATOM      5  C   UNL     1      45.098   4.703   8.597  0.00  0.00    +0.000 C 
ATOM      6  C   UNL     1      45.825   5.553   9.642  0.00  0.00    +0.000 C 
ENDROOT
BRANCH   4   7
ATOM      7  C   UNL     1      45.909   2.423   8.038  0.00  0.00    +0.000 A 
ATOM      8  C   UNL     1      46.397   2.856   6.791  0.00  0.00    +0.000 A 
ATOM      9  C   UNL     1      47.066   1.993   5.911  0.00  0.00    +0.000 A 
ATOM     10  C   UNL     1      47.646   2.499   4.626  0.00  0.00    +0.000 C 
ATOM     11  C   UNL     1      47.227   0.650   6.264  0.00  0.00    +0.000 A 
ATOM     12  C   UNL     1      46.731   0.205   7.481  0.00  0.00    +0.000 A 
ATOM     13  C   UNL     1      46.093   1.074   8.352  0.00  0.00    +0.000 A 
BRANCH  12  14
ATOM     14  O   UNL     1      46.866  -1.107   7.862  0.00  0.00    +0.000 OA
ATOM     15  H   UNL     1      47.671  -1.451   7.479  0.00  0.00    +0.000 HD
ENDBRANCH  12  14
ENDBRANCH   4   7
BRANCH   1  18
ATOM     16  C   UNL     1      47.548   6.063  14.201  0.00  0.00    +0.000 A 
ATOM     17  C   UNL     1      46.840   5.336  13.217  0.00  0.00    +0.000 A 
ATOM     18  C   UNL     1      46.181   5.970  12.140  0.00  0.00    +0.000 A 
ATOM     19  C   UNL     1      46.288   7.369  12.069  0.00  0.00    +0.000 A 
ATOM     20  C   UNL     1      46.995   8.092  13.030  0.00  0.00    +0.000 A 
ATOM     21  C   UNL     1      47.630   7.449  14.098  0.00  0.00    +0.000 A 
BRANCH  16  23
ATOM     22  C   UNL     1      47.303   4.232  15.701  0.00  0.00    +0.000 C 
ATOM     23  O   UNL     1      48.124   5.268  15.165  0.00  0.00    +0.000 OA
ENDBRANCH  16  23
BRANCH  21  24
ATOM     24  C   UNL     1      48.375   8.283  15.002  0.00  0.00    +0.000 C 
ATOM     25  N   UNL     1      48.979   8.975  15.707  0.00  0.00    +0.000 NA
ENDBRANCH  21  24
ENDBRANCH   1  18
BRANCH   1  26
ATOM     26  O   UNL     1      43.993   5.579  11.182  0.00  0.00    +0.000 OA
ATOM     27  H   UNL     1      43.456   4.871  10.785  0.00  0.00    +0.000 HD
ENDBRANCH   1  26
TORSDOF 6
ENDMDL
MODEL 2
REMARK VINA RESULT:    -6.259      3.449      5.013
REMARK INTER + INTRA:          -8.831
REMARK INTER:                  -8.079
REMARK INTRA:                  -0.752
REMARK UNBOUND:                -0.743
REMARK  Name = 
REMARK  8 active torsions:
REMARK  status: ('A' for Active; 'I' for Inactive)
REMARK    1  A    between atoms: C_1  and  O_2
REMARK    2  A    between atoms: O_2  and  C_3
REMARK    3  A    between atoms: C_5  and  C_6
REMARK    4  A    between atoms: C_6  and  O_7
REMARK    5  A    between atoms: N_10  and  C_11
REMARK    6  A    between atoms: C_13  and  C_14
REMARK    7  A    between atoms: C_16  and  O_17
REMARK    8  A    between atoms: C_23  and  C_24
REMARK                            x       y       z     vdW  Elec       q    Type
REMARK                         _______ _______ _______ _____ _____    ______ ____
ROOT
ATOM      1  C   UNL     1      47.056   8.282  12.675  0.00  0.00    +0.000 C 
ATOM      2  C   UNL     1      47.585   6.840  12.819  0.00  0.00    +0.000 C 
ATOM      3  C   UNL     1      46.494   5.835  13.175  0.00  0.00    +0.000 C 
ATOM      4  N   UNL     1      45.401   5.975  12.216  0.00  0.00    +0.000 N 
ATOM      5  C   UNL     1      44.771   7.287  12.178  0.00  0.00    +0.000 C 
ATOM      6  C   UNL     1      45.815   8.326  11.759  0.00  0.00    +0.000 C 
ENDROOT
BRANCH   4   7
ATOM      7  C   UNL     1      44.966   4.928  11.427  0.00  0.00    +0.000 A 
ATOM      8  C   UNL     1      45.341   4.821  10.074  0.00  0.00    +0.000 A 
ATOM      9  C   UNL     1      44.947   3.740   9.273  0.00  0.00    +0.000 A 
ATOM     10  C   UNL     1      45.428   3.611   7.860  0.00  0.00    +0.000 C 
ATOM     11  C   UNL     1      44.127   2.750   9.820  0.00  0.00    +0.000 A 
ATOM     12  C   UNL     1      43.732   2.853  11.147  0.00  0.00    +0.000 A 
ATOM     13  C   UNL     1      44.148   3.915  11.934  0.00  0.00    +0.000 A 
BRANCH  12  14
ATOM     14  O   UNL     1      42.924   1.903  11.720  0.00  0.00    +0.000 OA
ATOM     15  H   UNL     1      42.014   2.179  11.619  0.00  0.00    +0.000 HD
ENDBRANCH  12  14
ENDBRANCH   4   7
BRANCH   1  18
ATOM     16  C   UNL     1      50.463   9.726  11.431  0.00  0.00    +0.000 A 
ATOM     17  C   UNL     1      49.455   8.822  11.839  0.00  0.00    +0.000 A 
ATOM     18  C   UNL     1      48.157   9.252  12.199  0.00  0.00    +0.000 A 
ATOM     19  C   UNL     1      47.899  10.630  12.102  0.00  0.00    +0.000 A 
ATOM     20  C   UNL     1      48.885  11.526  11.688  0.00  0.00    +0.000 A 
ATOM     21  C   UNL     1      50.168  11.084  11.349  0.00  0.00    +0.000 A 
BRANCH  16  23
ATOM     22  C   UNL     1      51.577   7.752  10.706  0.00  0.00    +0.000 C 
ATOM     23  O   UNL     1      51.655   9.116  11.118  0.00  0.00    +0.000 OA
ENDBRANCH  16  23
BRANCH  21  24
ATOM     24  C   UNL     1      51.092  12.084  10.886  0.00  0.00    +0.000 C 
ATOM     25  N   UNL     1      51.848  12.869  10.494  0.00  0.00    +0.000 NA
ENDBRANCH  21  24
ENDBRANCH   1  18
BRANCH   1  26
ATOM     26  O   UNL     1      46.617   8.704  13.983  0.00  0.00    +0.000 OA
ATOM     27  H   UNL     1      47.296   8.434  14.625  0.00  0.00    +0.000 HD
ENDBRANCH   1  26
TORSDOF 6
ENDMDL
MODEL 3
REMARK VINA RESULT:    -6.211      3.287      4.976
REMARK INTER + INTRA:          -8.770
REMARK INTER:                  -8.012
REMARK INTRA:                  -0.758
REMARK UNBOUND:                -0.743
REMARK  Name = 
REMARK  8 active torsions:
REMARK  status: ('A' for Active; 'I' for Inactive)
REMARK    1  A    between atoms: C_1  and  O_2
REMARK    2  A    between atoms: O_2  and  C_3
REMARK    3  A    between atoms: C_5  and  C_6
REMARK    4  A    between atoms: C_6  and  O_7
REMARK    5  A    between atoms: N_10  and  C_11
REMARK    6  A    between atoms: C_13  and  C_14
REMARK    7  A    between atoms: C_16  and  O_17
REMARK    8  A    between atoms: C_23  and  C_24
REMARK                            x       y       z     vdW  Elec       q    Type
REMARK                         _______ _______ _______ _____ _____    ______ ____
ROOT
ATOM      1  C   UNL     1      47.859   7.416  13.248  0.00  0.00    +0.000 C 
ATOM      2  C   UNL     1      47.715   5.932  13.645  0.00  0.00    +0.000 C 
ATOM      3  C   UNL     1      46.268   5.448  13.633  0.00  0.00    +0.000 C 
ATOM      4  N   UNL     1      45.676   5.779  12.339  0.00  0.00    +0.000 N 
ATOM      5  C   UNL     1      45.650   7.197  12.012  0.00  0.00    +0.000 C 
ATOM      6  C   UNL     1      47.088   7.718  11.946  0.00  0.00    +0.000 C 
ENDROOT
BRANCH   4   7
ATOM      7  C   UNL     1      45.142   4.821  11.499  0.00  0.00    +0.000 A 
ATOM      8  C   UNL     1      45.467   4.780  10.130  0.00  0.00    +0.000 A 
ATOM      9  C   UNL     1      44.972   3.786   9.274  0.00  0.00    +0.000 A 
ATOM     10  C   UNL     1      45.398   3.718   7.840  0.00  0.00    +0.000 C 
ATOM     11  C   UNL     1      44.099   2.820   9.785  0.00  0.00    +0.000 A 
ATOM     12  C   UNL     1      43.753   2.861  11.129  0.00  0.00    +0.000 A 
ATOM     13  C   UNL     1      44.269   3.836  11.968  0.00  0.00    +0.000 A 
BRANCH  12  14
ATOM     14  O   UNL     1      42.897   1.934  11.666  0.00  0.00    +0.000 OA
ATOM     15  H   UNL     1      43.037   1.099  11.222  0.00  0.00    +0.000 HD
ENDBRANCH  12  14
ENDBRANCH   4   7
BRANCH   1  18
ATOM     16  C   UNL     1      51.380   8.355  11.850  0.00  0.00    +0.000 A 
ATOM     17  C   UNL     1      50.016   7.990  11.921  0.00  0.00    +0.000 A 
ATOM     18  C   UNL     1      49.339   7.843  13.153  0.00  0.00    +0.000 A 
ATOM     19  C   UNL     1      50.078   8.111  14.317  0.00  0.00    +0.000 A 
ATOM     20  C   UNL     1      51.421   8.484  14.254  0.00  0.00    +0.000 A 
ATOM     21  C   UNL     1      52.081   8.611  13.026  0.00  0.00    +0.000 A 
BRANCH  16  23
ATOM     22  C   UNL     1      52.262   7.228   9.949  0.00  0.00    +0.000 C 
ATOM     23  O   UNL     1      51.858   8.451  10.564  0.00  0.00    +0.000 OA
ENDBRANCH  16  23
BRANCH  21  24
ATOM     24  C   UNL     1      53.449   9.051  13.072  0.00  0.00    +0.000 C 
ATOM     25  N   UNL     1      54.557   9.387  13.086  0.00  0.00    +0.000 NA
ENDBRANCH  21  24
ENDBRANCH   1  18
BRANCH   1  26
ATOM     26  O   UNL     1      47.231   8.194  14.287  0.00  0.00    +0.000 OA
ATOM     27  H   UNL     1      46.970   7.584  14.999  0.00  0.00    +0.000 HD
ENDBRANCH   1  26
TORSDOF 6
ENDMDL
MODEL 4
REMARK VINA RESULT:    -6.162      1.655      2.226
REMARK INTER + INTRA:          -8.706
REMARK INTER:                  -7.984
REMARK INTRA:                  -0.722
REMARK UNBOUND:                -0.743
REMARK  Name = 
REMARK  8 active torsions:
REMARK  status: ('A' for Active; 'I' for Inactive)
REMARK    1  A    between atoms: C_1  and  O_2
REMARK    2  A    between atoms: O_2  and  C_3
REMARK    3  A    between atoms: C_5  and  C_6
REMARK    4  A    between atoms: C_6  and  O_7
REMARK    5  A    between atoms: N_10  and  C_11
REMARK    6  A    between atoms: C_13  and  C_14
REMARK    7  A    between atoms: C_16  and  O_17
REMARK    8  A    between atoms: C_23  and  C_24
REMARK                            x       y       z     vdW  Elec       q    Type
REMARK                         _______ _______ _______ _____ _____    ______ ____
ROOT
ATOM      1  C   UNL     1      45.696   5.124  11.910  0.00  0.00    +0.000 C 
ATOM      2  C   UNL     1      45.389   3.621  11.748  0.00  0.00    +0.000 C 
ATOM      3  C   UNL     1      44.685   3.293  10.434  0.00  0.00    +0.000 C 
ATOM      4  N   UNL     1      45.459   3.865   9.335  0.00  0.00    +0.000 N 
ATOM      5  C   UNL     1      45.623   5.311   9.377  0.00  0.00    +0.000 C 
ATOM      6  C   UNL     1      46.387   5.687  10.650  0.00  0.00    +0.000 C 
ENDROOT
BRANCH   4   7
ATOM      7  C   UNL     1      45.967   3.097   8.306  0.00  0.00    +0.000 A 
ATOM      8  C   UNL     1      46.165   1.711   8.451  0.00  0.00    +0.000 A 
ATOM      9  C   UNL     1      46.636   0.910   7.400  0.00  0.00    +0.000 A 
ATOM     10  C   UNL     1      46.761  -0.574   7.557  0.00  0.00    +0.000 C 
ATOM     11  C   UNL     1      46.951   1.508   6.176  0.00  0.00    +0.000 A 
ATOM     12  C   UNL     1      46.780   2.877   6.026  0.00  0.00    +0.000 A 
ATOM     13  C   UNL     1      46.292   3.653   7.066  0.00  0.00    +0.000 A 
BRANCH  12  14
ATOM     14  O   UNL     1      47.082   3.501   4.842  0.00  0.00    +0.000 OA
ATOM     15  H   UNL     1      48.027   3.640   4.806  0.00  0.00    +0.000 HD
ENDBRANCH  12  14
ENDBRANCH   4   7
BRANCH   1  18
ATOM     16  C   UNL     1      47.221   4.844  15.493  0.00  0.00    +0.000 A 
ATOM     17  C   UNL     1      46.490   4.557  14.318  0.00  0.00    +0.000 A 
ATOM     18  C   UNL     1      46.513   5.408  13.189  0.00  0.00    +0.000 A 
ATOM     19  C   UNL     1      47.330   6.547  13.273  0.00  0.00    +0.000 A 
ATOM     20  C   UNL     1      48.064   6.830  14.425  0.00  0.00    +0.000 A 
ATOM     21  C   UNL     1      48.019   5.984  15.539  0.00  0.00    +0.000 A 
BRANCH  16  23
ATOM     22  C   UNL     1      48.022   2.829  16.475  0.00  0.00    +0.000 C 
ATOM     23  O   UNL     1      47.074   3.895  16.479  0.00  0.00    +0.000 OA
ENDBRANCH  16  23
BRANCH  21  24
ATOM     24  C   UNL     1      48.854   6.341  16.654  0.00  0.00    +0.000 C 
ATOM     25  N   UNL     1      49.503   6.641  17.565  0.00  0.00    +0.000 NA
ENDBRANCH  21  24
ENDBRANCH   1  18
BRANCH   1  26
ATOM     26  O   UNL     1      44.430   5.805  12.024  0.00  0.00    +0.000 OA
ATOM     27  H   UNL     1      44.464   6.364  12.820  0.00  0.00    +0.000 HD
ENDBRANCH   1  26
TORSDOF 6
ENDMDL
MODEL 5
REMARK VINA RESULT:    -6.109      1.889      8.204
REMARK INTER + INTRA:          -8.638
REMARK INTER:                  -7.970
REMARK INTRA:                  -0.669
REMARK UNBOUND:                -0.743
REMARK  Name = 
REMARK  8 active torsions:
REMARK  status: ('A' for Active; 'I' for Inactive)
REMARK    1  A    between atoms: C_1  and  O_2
REMARK    2  A    between atoms: O_2  and  C_3
REMARK    3  A    between atoms: C_5  and  C_6
REMARK    4  A    between atoms: C_6  and  O_7
REMARK    5  A    between atoms: N_10  and  C_11
REMARK    6  A    between atoms: C_13  and  C_14
REMARK    7  A    between atoms: C_16  and  O_17
REMARK    8  A    between atoms: C_23  and  C_24
REMARK                            x       y       z     vdW  Elec       q    Type
REMARK                         _______ _______ _______ _____ _____    ______ ____
ROOT
ATOM      1  C   UNL     1      45.251   4.058   9.523  0.00  0.00    +0.000 C 
ATOM      2  C   UNL     1      46.006   5.390   9.715  0.00  0.00    +0.000 C 
ATOM      3  C   UNL     1      45.577   6.144  10.971  0.00  0.00    +0.000 C 
ATOM      4  N   UNL     1      45.668   5.237  12.113  0.00  0.00    +0.000 N 
ATOM      5  C   UNL     1      44.835   4.046  12.029  0.00  0.00    +0.000 C 
ATOM      6  C   UNL     1      45.272   3.219  10.818  0.00  0.00    +0.000 C 
ENDROOT
BRANCH   4   7
ATOM      7  C   UNL     1      46.458   5.506  13.214  0.00  0.00    +0.000 A 
ATOM      8  C   UNL     1      46.507   4.631  14.315  0.00  0.00    +0.000 A 
ATOM      9  C   UNL     1      47.339   4.865  15.419  0.00  0.00    +0.000 A 
ATOM     10  C   UNL     1      47.432   3.877  16.541  0.00  0.00    +0.000 C 
ATOM     11  C   UNL     1      48.125   6.021  15.446  0.00  0.00    +0.000 A 
ATOM     12  C   UNL     1      48.071   6.903  14.376  0.00  0.00    +0.000 A 
ATOM     13  C   UNL     1      47.261   6.647  13.281  0.00  0.00    +0.000 A 
BRANCH  12  14
ATOM     14  O   UNL     1      48.824   8.050  14.368  0.00  0.00    +0.000 OA
ATOM     15  H   UNL     1      48.512   8.612  13.659  0.00  0.00    +0.000 HD
ENDBRANCH  12  14
ENDBRANCH   4   7
BRANCH   1  18
ATOM     16  C   UNL     1      46.837   1.254   7.317  0.00  0.00    +0.000 A 
ATOM     17  C   UNL     1      46.322   1.959   8.429  0.00  0.00    +0.000 A 
ATOM     18  C   UNL     1      45.790   3.264   8.314  0.00  0.00    +0.000 A 
ATOM     19  C   UNL     1      45.763   3.824   7.026  0.00  0.00    +0.000 A 
ATOM     20  C   UNL     1      46.258   3.129   5.922  0.00  0.00    +0.000 A 
ATOM     21  C   UNL     1      46.795   1.844   6.056  0.00  0.00    +0.000 A 
BRANCH  16  23
ATOM     22  C   UNL     1      46.429  -1.090   7.346  0.00  0.00    +0.000 C 
ATOM     23  O   UNL     1      47.306  -0.001   7.630  0.00  0.00    +0.000 OA
ENDBRANCH  16  23
BRANCH  21  24
ATOM     24  C   UNL     1      47.229   1.197   4.848  0.00  0.00    +0.000 C 
ATOM     25  N   UNL     1      47.551   0.669   3.869  0.00  0.00    +0.000 NA
ENDBRANCH  21  24
ENDBRANCH   1  18
BRANCH   1  26
ATOM     26  O   UNL     1      43.871   4.387   9.268  0.00  0.00    +0.000 OA
ATOM     27  H   UNL     1      43.817   4.776   8.378  0.00  0.00    +0.000 HD
ENDBRANCH   1  26
TORSDOF 6
ENDMDL
MODEL 6
REMARK VINA RESULT:    -6.050      3.185      4.889
REMARK INTER + INTRA:          -8.561
REMARK INTER:                  -7.822
REMARK INTRA:                  -0.739
REMARK UNBOUND:                -0.743
REMARK  Name = 
REMARK  8 active torsions:
REMARK  status: ('A' for Active; 'I' for Inactive)
REMARK    1  A    between atoms: C_1  and  O_2
REMARK    2  A    between atoms: O_2  and  C_3
REMARK    3  A    between atoms: C_5  and  C_6
REMARK    4  A    between atoms: C_6  and  O_7
REMARK    5  A    between atoms: N_10  and  C_11
REMARK    6  A    between atoms: C_13  and  C_14
REMARK    7  A    between atoms: C_16  and  O_17
REMARK    8  A    between atoms: C_23  and  C_24
REMARK                            x       y       z     vdW  Elec       q    Type
REMARK                         _______ _______ _______ _____ _____    ______ ____
ROOT
ATOM      1  C   UNL     1      47.643   7.811  13.093  0.00  0.00    +0.000 C 
ATOM      2  C   UNL     1      47.922   6.300  13.238  0.00  0.00    +0.000 C 
ATOM      3  C   UNL     1      46.659   5.480  13.485  0.00  0.00    +0.000 C 
ATOM      4  N   UNL     1      45.680   5.809  12.451  0.00  0.00    +0.000 N 
ATOM      5  C   UNL     1      45.274   7.207  12.401  0.00  0.00    +0.000 C 
ATOM      6  C   UNL     1      46.500   8.069  12.089  0.00  0.00    +0.000 C 
ENDROOT
BRANCH   4   7
ATOM      7  C   UNL     1      45.146   4.858  11.604  0.00  0.00    +0.000 A 
ATOM      8  C   UNL     1      45.457   4.838  10.231  0.00  0.00    +0.000 A 
ATOM      9  C   UNL     1      44.961   3.851   9.367  0.00  0.00    +0.000 A 
ATOM     10  C   UNL     1      45.372   3.806   7.928  0.00  0.00    +0.000 C 
ATOM     11  C   UNL     1      44.102   2.871   9.875  0.00  0.00    +0.000 A 
ATOM     12  C   UNL     1      43.771   2.891  11.222  0.00  0.00    +0.000 A 
ATOM     13  C   UNL     1      44.287   3.859  12.070  0.00  0.00    +0.000 A 
BRANCH  12  14
ATOM     14  O   UNL     1      42.929   1.949  11.757  0.00  0.00    +0.000 OA
ATOM     15  H   UNL     1      42.388   2.370  12.424  0.00  0.00    +0.000 HD
ENDBRANCH  12  14
ENDBRANCH   4   7
BRANCH   1  18
ATOM     16  C   UNL     1      51.361   8.980  12.872  0.00  0.00    +0.000 A 
ATOM     17  C   UNL     1      50.204   8.234  13.193  0.00  0.00    +0.000 A 
ATOM     18  C   UNL     1      48.920   8.597  12.727  0.00  0.00    +0.000 A 
ATOM     19  C   UNL     1      48.846   9.724  11.892  0.00  0.00    +0.000 A 
ATOM     20  C   UNL     1      49.986  10.458  11.560  0.00  0.00    +0.000 A 
ATOM     21  C   UNL     1      51.247  10.093  12.043  0.00  0.00    +0.000 A 
BRANCH  16  23
ATOM     22  C   UNL     1      52.483   8.188  14.816  0.00  0.00    +0.000 C 
ATOM     23  O   UNL     1      52.515   8.467  13.417  0.00  0.00    +0.000 OA
ENDBRANCH  16  23
BRANCH  21  24
ATOM     24  C   UNL     1      52.361  10.886  11.598  0.00  0.00    +0.000 C 
ATOM     25  N   UNL     1      53.243  11.549  11.246  0.00  0.00    +0.000 NA
ENDBRANCH  21  24
ENDBRANCH   1  18
BRANCH   1  26
ATOM     26  O   UNL     1      47.177   8.280  14.375  0.00  0.00    +0.000 OA
ATOM     27  H   UNL     1      46.240   8.524  14.279  0.00  0.00    +0.000 HD
ENDBRANCH   1  26
TORSDOF 6
ENDMDL
MODEL 7
REMARK VINA RESULT:    -5.673      5.094      7.604
REMARK INTER + INTRA:          -8.074
REMARK INTER:                  -7.331
REMARK INTRA:                  -0.743
REMARK UNBOUND:                -0.743
REMARK  Name = 
REMARK  8 active torsions:
REMARK  status: ('A' for Active; 'I' for Inactive)
REMARK    1  A    between atoms: C_1  and  O_2
REMARK    2  A    between atoms: O_2  and  C_3
REMARK    3  A    between atoms: C_5  and  C_6
REMARK    4  A    between atoms: C_6  and  O_7
REMARK    5  A    between atoms: N_10  and  C_11
REMARK    6  A    between atoms: C_13  and  C_14
REMARK    7  A    between atoms: C_16  and  O_17
REMARK    8  A    between atoms: C_23  and  C_24
REMARK                            x       y       z     vdW  Elec       q    Type
REMARK                         _______ _______ _______ _____ _____    ______ ____
ROOT
ATOM      1  C   UNL     1      44.956   9.416  11.856  0.00  0.00    +0.000 C 
ATOM      2  C   UNL     1      43.930   9.291  10.710  0.00  0.00    +0.000 C 
ATOM      3  C   UNL     1      43.534  10.638  10.112  0.00  0.00    +0.000 C 
ATOM      4  N   UNL     1      44.750  11.361   9.747  0.00  0.00    +0.000 N 
ATOM      5  C   UNL     1      45.663  11.638  10.846  0.00  0.00    +0.000 C 
ATOM      6  C   UNL     1      46.142  10.311  11.440  0.00  0.00    +0.000 C 
ENDROOT
BRANCH   4   7
ATOM      7  C   UNL     1      45.002  11.787   8.458  0.00  0.00    +0.000 A 
ATOM      8  C   UNL     1      46.291  12.179   8.050  0.00  0.00    +0.000 A 
ATOM      9  C   UNL     1      46.572  12.568   6.733  0.00  0.00    +0.000 A 
ATOM     10  C   UNL     1      47.969  12.903   6.308  0.00  0.00    +0.000 C 
ATOM     11  C   UNL     1      45.535  12.602   5.797  0.00  0.00    +0.000 A 
ATOM     12  C   UNL     1      44.255  12.239   6.189  0.00  0.00    +0.000 A 
ATOM     13  C   UNL     1      43.995  11.833   7.489  0.00  0.00    +0.000 A 
BRANCH  12  14
ATOM     14  O   UNL     1      43.209  12.263   5.300  0.00  0.00    +0.000 OA
ATOM     15  H   UNL     1      43.333  13.003   4.708  0.00  0.00    +0.000 HD
ENDBRANCH  12  14
ENDBRANCH   4   7
BRANCH   1  18
ATOM     16  C   UNL     1      44.985   5.689  13.016  0.00  0.00    +0.000 A 
ATOM     17  C   UNL     1      44.546   6.941  12.528  0.00  0.00    +0.000 A 
ATOM     18  C   UNL     1      45.426   8.034  12.358  0.00  0.00    +0.000 A 
ATOM     19  C   UNL     1      46.778   7.812  12.667  0.00  0.00    +0.000 A 
ATOM     20  C   UNL     1      47.220   6.575  13.137  0.00  0.00    +0.000 A 
ATOM     21  C   UNL     1      46.334   5.507  13.313  0.00  0.00    +0.000 A 
BRANCH  16  23
ATOM     22  C   UNL     1      42.808   5.007  12.339  0.00  0.00    +0.000 C 
ATOM     23  O   UNL     1      43.983   4.751  13.107  0.00  0.00    +0.000 OA
ENDBRANCH  16  23
BRANCH  21  24
ATOM     24  C   UNL     1      46.903   4.262  13.752  0.00  0.00    +0.000 C 
ATOM     25  N   UNL     1      47.334   3.247  14.108  0.00  0.00    +0.000 NA
ENDBRANCH  21  24
ENDBRANCH   1  18
BRANCH   1  26
ATOM     26  O   UNL     1      44.294  10.091  12.945  0.00  0.00    +0.000 OA
ATOM     27  H   UNL     1      44.275  11.041  12.737  0.00  0.00    +0.000 HD
ENDBRANCH   1  26
TORSDOF 6
ENDMDL
MODEL 8
REMARK VINA RESULT:    -5.598      3.384      9.962
REMARK INTER + INTRA:          -7.978
REMARK INTER:                  -7.298
REMARK INTRA:                  -0.681
REMARK UNBOUND:                -0.743
REMARK  Name = 
REMARK  8 active torsions:
REMARK  status: ('A' for Active; 'I' for Inactive)
REMARK    1  A    between atoms: C_1  and  O_2
REMARK    2  A    between atoms: O_2  and  C_3
REMARK    3  A    between atoms: C_5  and  C_6
REMARK    4  A    between atoms: C_6  and  O_7
REMARK    5  A    between atoms: N_10  and  C_11
REMARK    6  A    between atoms: C_13  and  C_14
REMARK    7  A    between atoms: C_16  and  O_17
REMARK    8  A    between atoms: C_23  and  C_24
REMARK                            x       y       z     vdW  Elec       q    Type
REMARK                         _______ _______ _______ _____ _____    ______ ____
ROOT
ATOM      1  C   UNL     1      48.182   6.956  14.140  0.00  0.00    +0.000 C 
ATOM      2  C   UNL     1      48.171   6.177  15.471  0.00  0.00    +0.000 C 
ATOM      3  C   UNL     1      49.010   6.841  16.560  0.00  0.00    +0.000 C 
ATOM      4  N   UNL     1      48.596   8.236  16.682  0.00  0.00    +0.000 N 
ATOM      5  C   UNL     1      48.753   9.039  15.478  0.00  0.00    +0.000 C 
ATOM      6  C   UNL     1      47.874   8.450  14.371  0.00  0.00    +0.000 C 
ENDROOT
BRANCH   4   7
ATOM      7  C   UNL     1      48.124   8.770  17.865  0.00  0.00    +0.000 A 
ATOM      8  C   UNL     1      47.932   7.970  19.008  0.00  0.00    +0.000 A 
ATOM      9  C   UNL     1      47.499   8.506  20.230  0.00  0.00    +0.000 A 
ATOM     10  C   UNL     1      47.380   7.646  21.451  0.00  0.00    +0.000 C 
ATOM     11  C   UNL     1      47.217   9.872  20.313  0.00  0.00    +0.000 A 
ATOM     12  C   UNL     1      47.382  10.669  19.189  0.00  0.00    +0.000 A 
ATOM     13  C   UNL     1      47.833  10.130  17.993  0.00  0.00    +0.000 A 
BRANCH  12  14
ATOM     14  O   UNL     1      47.112  12.013  19.229  0.00  0.00    +0.000 OA
ATOM     15  H   UNL     1      46.600  12.195  20.016  0.00  0.00    +0.000 HD
ENDBRANCH  12  14
ENDBRANCH   4   7
BRANCH   1  18
ATOM     16  C   UNL     1      45.452   4.730  12.457  0.00  0.00    +0.000 A 
ATOM     17  C   UNL     1      46.298   5.318  13.426  0.00  0.00    +0.000 A 
ATOM     18  C   UNL     1      47.232   6.327  13.099  0.00  0.00    +0.000 A 
ATOM     19  C   UNL     1      47.261   6.751  11.760  0.00  0.00    +0.000 A 
ATOM     20  C   UNL     1      46.421   6.185  10.801  0.00  0.00    +0.000 A 
ATOM     21  C   UNL     1      45.512   5.176  11.139  0.00  0.00    +0.000 A 
BRANCH  16  23
ATOM     22  C   UNL     1      43.283   4.194  13.275  0.00  0.00    +0.000 C 
ATOM     23  O   UNL     1      44.611   3.770  12.969  0.00  0.00    +0.000 OA
ENDBRANCH  16  23
BRANCH  21  24
ATOM     24  C   UNL     1      44.658   4.699  10.085  0.00  0.00    +0.000 C 
ATOM     25  N   UNL     1      43.992   4.319   9.218  0.00  0.00    +0.000 NA
ENDBRANCH  21  24
ENDBRANCH   1  18
BRANCH   1  26
ATOM     26  O   UNL     1      49.526   6.889  13.622  0.00  0.00    +0.000 OA
ATOM     27  H   UNL     1      49.900   7.787  13.647  0.00  0.00    +0.000 HD
ENDBRANCH   1  26
TORSDOF 6
ENDMDL
MODEL 9
REMARK VINA RESULT:    -5.534      4.663      6.840
REMARK INTER + INTRA:          -7.894
REMARK INTER:                  -7.146
REMARK INTRA:                  -0.749
REMARK UNBOUND:                -0.743
REMARK  Name = 
REMARK  8 active torsions:
REMARK  status: ('A' for Active; 'I' for Inactive)
REMARK    1  A    between atoms: C_1  and  O_2
REMARK    2  A    between atoms: O_2  and  C_3
REMARK    3  A    between atoms: C_5  and  C_6
REMARK    4  A    between atoms: C_6  and  O_7
REMARK    5  A    between atoms: N_10  and  C_11
REMARK    6  A    between atoms: C_13  and  C_14
REMARK    7  A    between atoms: C_16  and  O_17
REMARK    8  A    between atoms: C_23  and  C_24
REMARK                            x       y       z     vdW  Elec       q    Type
REMARK                         _______ _______ _______ _____ _____    ______ ____
ROOT
ATOM      1  C   UNL     1      49.450   8.495  12.272  0.00  0.00    +0.000 C 
ATOM      2  C   UNL     1      49.355   6.958  12.375  0.00  0.00    +0.000 C 
ATOM      3  C   UNL     1      48.163   6.487  13.204  0.00  0.00    +0.000 C 
ATOM      4  N   UNL     1      46.955   7.126  12.688  0.00  0.00    +0.000 N 
ATOM      5  C   UNL     1      46.953   8.581  12.733  0.00  0.00    +0.000 C 
ATOM      6  C   UNL     1      48.095   9.106  11.859  0.00  0.00    +0.000 C 
ENDROOT
BRANCH   4   7
ATOM      7  C   UNL     1      45.873   6.403  12.224  0.00  0.00    +0.000 A 
ATOM      8  C   UNL     1      45.878   5.806  10.950  0.00  0.00    +0.000 A 
ATOM      9  C   UNL     1      44.807   5.030  10.484  0.00  0.00    +0.000 A 
ATOM     10  C   UNL     1      44.873   4.340   9.156  0.00  0.00    +0.000 C 
ATOM     11  C   UNL     1      43.680   4.868  11.295  0.00  0.00    +0.000 A 
ATOM     12  C   UNL     1      43.652   5.469  12.546  0.00  0.00    +0.000 A 
ATOM     13  C   UNL     1      44.728   6.214  13.003  0.00  0.00    +0.000 A 
BRANCH  12  14
ATOM     14  O   UNL     1      42.563   5.337  13.369  0.00  0.00    +0.000 OA
ATOM     15  H   UNL     1      41.857   5.883  13.027  0.00  0.00    +0.000 HD
ENDBRANCH  12  14
ENDBRANCH   4   7
BRANCH   1  18
ATOM     16  C   UNL     1      52.549   8.445   9.899  0.00  0.00    +0.000 A 
ATOM     17  C   UNL     1      51.491   8.023  10.736  0.00  0.00    +0.000 A 
ATOM     18  C   UNL     1      50.592   8.937  11.332  0.00  0.00    +0.000 A 
ATOM     19  C   UNL     1      50.776  10.295  11.027  0.00  0.00    +0.000 A 
ATOM     20  C   UNL     1      51.810  10.717  10.191  0.00  0.00    +0.000 A 
ATOM     21  C   UNL     1      52.700   9.801   9.621  0.00  0.00    +0.000 A 
BRANCH  16  23
ATOM     22  C   UNL     1      52.822   6.762   8.239  0.00  0.00    +0.000 C 
ATOM     23  O   UNL     1      53.313   7.409   9.412  0.00  0.00    +0.000 OA
ENDBRANCH  16  23
BRANCH  21  24
ATOM     24  C   UNL     1      53.697  10.337   8.734  0.00  0.00    +0.000 C 
ATOM     25  N   UNL     1      54.480  10.770   7.998  0.00  0.00    +0.000 NA
ENDBRANCH  21  24
ENDBRANCH   1  18
BRANCH   1  26
ATOM     26  O   UNL     1      49.738   8.990  13.596  0.00  0.00    +0.000 OA
ATOM     27  H   UNL     1      48.906   8.991  14.100  0.00  0.00    +0.000 HD
ENDBRANCH   1  26
TORSDOF 6
ENDMDL
