MODEL 1
REMARK VINA RESULT:    -8.398      0.000      0.000
REMARK INTER + INTRA:         -12.783
REMARK INTER:                 -11.835
REMARK INTRA:                  -0.948
REMARK UNBOUND:                -0.948
REMARK  Name = 
REMARK  9 active torsions:
REMARK  status: ('A' for Active; 'I' for Inactive)
REMARK    1  A    between atoms: C_1  and  C_2
REMARK    2  A    between atoms: C_2  and  N_3
REMARK    3  A    between atoms: C_2  and  C_26
REMARK    4  A    between atoms: N_3  and  C_4
REMARK    5  A    between atoms: C_4  and  C_5
REMARK    6  A    between atoms: C_8  and  C_9
REMARK    7  A    between atoms: C_9  and  C_10
REMARK    8  A    between atoms: C_9  and  N_11
REMARK    9  A    between atoms: C_12  and  C_14
REMARK                            x       y       z     vdW  Elec       q    Type
REMARK                         _______ _______ _______ _____ _____    ______ ____
ROOT
ATOM      1  C   UNL     1      45.524   4.387  12.302  0.00  0.00    +0.000 A 
ATOM      2  C   UNL     1      45.680   5.718  11.907  0.00  0.00    +0.000 A 
ATOM      3  C   UNL     1      46.683   6.498  12.477  0.00  0.00    +0.000 A 
ATOM      4  C   UNL     1      47.504   5.930  13.449  0.00  0.00    +0.000 A 
ATOM      5  N   UNL     1      47.389   4.629  13.820  0.00  0.00    +0.000 NA
ATOM      6  C   UNL     1      46.409   3.898  13.252  0.00  0.00    +0.000 A 
ENDROOT
BRANCH   4   7
ATOM      7  C   UNL     1      48.586   6.764  14.118  0.00  0.00    +0.000 C 
ATOM      8  C   UNL     1      48.703   8.148  13.470  0.00  0.00    +0.000 C 
BRANCH   7   9
ATOM      9  N   UNL     1      48.315   6.926  15.537  0.00  0.00    +0.000 N 
ATOM     10  C   UNL     1      49.202   6.560  16.513  0.00  0.00    +0.000 C 
ATOM     11  O   UNL     1      50.307   6.091  16.249  0.00  0.00    +0.000 OA
ATOM     12  H   UNL     1      47.336   7.056  15.776  0.00  0.00    +0.000 HD
BRANCH  10  13
ATOM     13  C   UNL     1      48.796   6.828  17.899  0.00  0.00    +0.000 A 
ATOM     14  C   UNL     1      48.485   8.126  18.285  0.00  0.00    +0.000 A 
ATOM     15  S   UNL     1      48.003   8.260  19.914  0.00  0.00    +0.000 S 
ATOM     16  C   UNL     1      48.233   6.595  20.176  0.00  0.00    +0.000 A 
ATOM     17  N   UNL     1      48.020   6.045  21.402  0.00  0.00    +0.000 NA
ATOM     18  C   UNL     1      48.259   4.777  21.466  0.00  0.00    +0.000 A 
ATOM     19  N   UNL     1      48.679   4.009  20.412  0.00  0.00    +0.000 N 
ATOM     20  C   UNL     1      48.856   4.509  19.145  0.00  0.00    +0.000 A 
ATOM     21  O   UNL     1      49.144   3.777  18.208  0.00  0.00    +0.000 OA
ATOM     22  C   UNL     1      48.640   5.939  19.027  0.00  0.00    +0.000 A 
ATOM     23  H   UNL     1      48.827   3.016  20.521  0.00  0.00    +0.000 HD
ENDBRANCH  10  13
ENDBRANCH   7   9
ENDBRANCH   4   7
BRANCH   1  24
ATOM     24  C   UNL     1      44.402   3.532  11.785  0.00  0.00    +0.000 C 
BRANCH  24  25
ATOM     25  N   UNL     1      44.881   2.525  10.842  0.00  0.00    +0.000 NA
ATOM     26  H   UNL     1      44.489   1.620  11.111  0.00  0.00    +0.000 HD
BRANCH  25  28
ATOM     27  C   UNL     1      44.046   4.258   9.231  0.00  0.00    +0.000 C 
ATOM     28  C   UNL     1      44.455   2.796   9.453  0.00  0.00    +0.000 C 
BRANCH  28  29
ATOM     29  C   UNL     1      45.562   2.428   8.465  0.00  0.00    +0.000 A 
ATOM     30  C   UNL     1      46.084   3.384   7.591  0.00  0.00    +0.000 A 
ATOM     31  C   UNL     1      47.061   3.008   6.677  0.00  0.00    +0.000 A 
ATOM     32  C   UNL     1      47.501   1.691   6.658  0.00  0.00    +0.000 A 
ATOM     33  C   UNL     1      46.944   0.804   7.565  0.00  0.00    +0.000 A 
ATOM     34  N   UNL     1      45.990   1.139   8.462  0.00  0.00    +0.000 NA
ENDBRANCH  28  29
ENDBRANCH  25  28
ENDBRANCH  24  25
ENDBRANCH   1  24
TORSDOF 7
ENDMDL
MODEL 2
REMARK VINA RESULT:    -8.306      1.262      1.882
REMARK INTER + INTRA:         -12.653
REMARK INTER:                 -11.376
REMARK INTRA:                  -1.277
REMARK UNBOUND:                -0.948
REMARK  Name = 
REMARK  9 active torsions:
REMARK  status: ('A' for Active; 'I' for Inactive)
REMARK    1  A    between atoms: C_1  and  C_2
REMARK    2  A    between atoms: C_2  and  N_3
REMARK    3  A    between atoms: C_2  and  C_26
REMARK    4  A    between atoms: N_3  and  C_4
REMARK    5  A    between atoms: C_4  and  C_5
REMARK    6  A    between atoms: C_8  and  C_9
REMARK    7  A    between atoms: C_9  and  C_10
REMARK    8  A    between atoms: C_9  and  N_11
REMARK    9  A    between atoms: C_12  and  C_14
REMARK                            x       y       z     vdW  Elec       q    Type
REMARK                         _______ _______ _______ _____ _____    ______ ____
ROOT
ATOM      1  C   UNL     1      45.580   4.502  12.316  0.00  0.00    +0.000 A 
ATOM      2  C   UNL     1      45.770   5.851  12.007  0.00  0.00    +0.000 A 
ATOM      3  C   UNL     1      46.709   6.599  12.713  0.00  0.00    +0.000 A 
ATOM      4  C   UNL     1      47.432   5.981  13.730  0.00  0.00    +0.000 A 
ATOM      5  N   UNL     1      47.285   4.662  14.021  0.00  0.00    +0.000 NA
ATOM      6  C   UNL     1      46.368   3.963  13.323  0.00  0.00    +0.000 A 
ENDROOT
BRANCH   4   7
ATOM      7  C   UNL     1      48.441   6.777  14.545  0.00  0.00    +0.000 C 
ATOM      8  C   UNL     1      48.313   8.279  14.274  0.00  0.00    +0.000 C 
BRANCH   7   9
ATOM      9  N   UNL     1      48.267   6.535  15.968  0.00  0.00    +0.000 N 
ATOM     10  C   UNL     1      49.260   6.037  16.767  0.00  0.00    +0.000 C 
ATOM     11  O   UNL     1      50.382   5.784  16.334  0.00  0.00    +0.000 OA
ATOM     12  H   UNL     1      47.301   6.483  16.281  0.00  0.00    +0.000 HD
BRANCH  10  13
ATOM     13  C   UNL     1      48.939   5.889  18.193  0.00  0.00    +0.000 A 
ATOM     14  C   UNL     1      49.185   4.679  18.829  0.00  0.00    +0.000 A 
ATOM     15  S   UNL     1      48.789   4.684  20.487  0.00  0.00    +0.000 S 
ATOM     16  C   UNL     1      48.234   6.290  20.406  0.00  0.00    +0.000 A 
ATOM     17  N   UNL     1      47.719   6.908  21.504  0.00  0.00    +0.000 NA
ATOM     18  C   UNL     1      47.311   8.115  21.294  0.00  0.00    +0.000 A 
ATOM     19  N   UNL     1      47.383   8.764  20.089  0.00  0.00    +0.000 N 
ATOM     20  C   UNL     1      47.943   8.200  18.968  0.00  0.00    +0.000 A 
ATOM     21  O   UNL     1      48.073   8.840  17.933  0.00  0.00    +0.000 OA
ATOM     22  C   UNL     1      48.381   6.827  19.138  0.00  0.00    +0.000 A 
ATOM     23  H   UNL     1      47.068   9.718  19.994  0.00  0.00    +0.000 HD
ENDBRANCH  10  13
ENDBRANCH   7   9
ENDBRANCH   4   7
BRANCH   1  24
ATOM     24  C   UNL     1      44.517   3.677  11.648  0.00  0.00    +0.000 C 
BRANCH  24  25
ATOM     25  N   UNL     1      45.092   2.680  10.749  0.00  0.00    +0.000 NA
ATOM     26  H   UNL     1      44.795   1.753  11.063  0.00  0.00    +0.000 HD
BRANCH  25  28
ATOM     27  C   UNL     1      44.256   4.287   9.014  0.00  0.00    +0.000 C 
ATOM     28  C   UNL     1      44.638   2.840   9.353  0.00  0.00    +0.000 C 
BRANCH  28  29
ATOM     29  C   UNL     1      45.710   2.360   8.375  0.00  0.00    +0.000 A 
ATOM     30  C   UNL     1      46.319   3.254   7.491  0.00  0.00    +0.000 A 
ATOM     31  C   UNL     1      47.261   2.778   6.586  0.00  0.00    +0.000 A 
ATOM     32  C   UNL     1      47.581   1.427   6.586  0.00  0.00    +0.000 A 
ATOM     33  C   UNL     1      46.943   0.606   7.502  0.00  0.00    +0.000 A 
ATOM     34  N   UNL     1      46.020   1.038   8.391  0.00  0.00    +0.000 NA
ENDBRANCH  28  29
ENDBRANCH  25  28
ENDBRANCH  24  25
ENDBRANCH   1  24
TORSDOF 7
ENDMDL
MODEL 3
REMARK VINA RESULT:    -8.187      2.037      2.483
REMARK INTER + INTRA:         -12.486
REMARK INTER:                 -11.209
REMARK INTRA:                  -1.277
REMARK UNBOUND:                -0.948
REMARK  Name = 
REMARK  9 active torsions:
REMARK  status: ('A' for Active; 'I' for Inactive)
REMARK    1  A    between atoms: C_1  and  C_2
REMARK    2  A    between atoms: C_2  and  N_3
REMARK    3  A    between atoms: C_2  and  C_26
REMARK    4  A    between atoms: N_3  and  C_4
REMARK    5  A    between atoms: C_4  and  C_5
REMARK    6  A    between atoms: C_8  and  C_9
REMARK    7  A    between atoms: C_9  and  C_10
REMARK    8  A    between atoms: C_9  and  N_11
REMARK    9  A    between atoms: C_12  and  C_14
REMARK                            x       y       z     vdW  Elec       q    Type
REMARK                         _______ _______ _______ _____ _____    ______ ____
ROOT
ATOM      1  C   UNL     1      44.556   5.250  10.832  0.00  0.00    +0.000 A 
ATOM      2  C   UNL     1      44.175   5.593  12.132  0.00  0.00    +0.000 A 
ATOM      3  C   UNL     1      44.985   6.433  12.893  0.00  0.00    +0.000 A 
ATOM      4  C   UNL     1      46.174   6.902  12.340  0.00  0.00    +0.000 A 
ATOM      5  N   UNL     1      46.543   6.606  11.066  0.00  0.00    +0.000 NA
ATOM      6  C   UNL     1      45.740   5.790  10.353  0.00  0.00    +0.000 A 
ENDROOT
BRANCH   4   7
ATOM      7  C   UNL     1      47.099   7.791  13.156  0.00  0.00    +0.000 C 
ATOM      8  C   UNL     1      46.448   9.146  13.454  0.00  0.00    +0.000 C 
BRANCH   7   9
ATOM      9  N   UNL     1      47.462   7.153  14.410  0.00  0.00    +0.000 N 
ATOM     10  C   UNL     1      48.741   6.772  14.711  0.00  0.00    +0.000 C 
ATOM     11  O   UNL     1      49.680   6.971  13.943  0.00  0.00    +0.000 OA
ATOM     12  H   UNL     1      46.686   6.748  14.928  0.00  0.00    +0.000 HD
BRANCH  10  13
ATOM     13  C   UNL     1      48.952   6.177  16.037  0.00  0.00    +0.000 A 
ATOM     14  C   UNL     1      49.825   6.784  16.931  0.00  0.00    +0.000 A 
ATOM     15  S   UNL     1      49.931   5.988  18.435  0.00  0.00    +0.000 S 
ATOM     16  C   UNL     1      48.846   4.778  17.932  0.00  0.00    +0.000 A 
ATOM     17  N   UNL     1      48.521   3.746  18.756  0.00  0.00    +0.000 NA
ATOM     18  C   UNL     1      47.709   2.885  18.237  0.00  0.00    +0.000 A 
ATOM     19  N   UNL     1      47.185   2.970  16.974  0.00  0.00    +0.000 N 
ATOM     20  C   UNL     1      47.443   4.021  16.126  0.00  0.00    +0.000 A 
ATOM     21  O   UNL     1      46.887   4.112  15.040  0.00  0.00    +0.000 OA
ATOM     22  C   UNL     1      48.384   4.997  16.646  0.00  0.00    +0.000 A 
ATOM     23  H   UNL     1      46.536   2.276  16.634  0.00  0.00    +0.000 HD
ENDBRANCH  10  13
ENDBRANCH   7   9
ENDBRANCH   4   7
BRANCH   1  24
ATOM     24  C   UNL     1      43.765   4.277  10.004  0.00  0.00    +0.000 C 
BRANCH  24  25
ATOM     25  N   UNL     1      44.476   3.904   8.784  0.00  0.00    +0.000 NA
ATOM     26  H   UNL     1      45.127   4.656   8.547  0.00  0.00    +0.000 HD
BRANCH  25  28
ATOM     27  C   UNL     1      44.397   1.433   9.213  0.00  0.00    +0.000 C 
ATOM     28  C   UNL     1      45.269   2.667   8.941  0.00  0.00    +0.000 C 
BRANCH  28  29
ATOM     29  C   UNL     1      46.128   2.412   7.703  0.00  0.00    +0.000 A 
ATOM     30  C   UNL     1      46.221   3.370   6.690  0.00  0.00    +0.000 A 
ATOM     31  C   UNL     1      46.978   3.090   5.558  0.00  0.00    +0.000 A 
ATOM     32  C   UNL     1      47.631   1.869   5.463  0.00  0.00    +0.000 A 
ATOM     33  C   UNL     1      47.501   0.976   6.515  0.00  0.00    +0.000 A 
ATOM     34  N   UNL     1      46.769   1.217   7.625  0.00  0.00    +0.000 NA
ENDBRANCH  28  29
ENDBRANCH  25  28
ENDBRANCH  24  25
ENDBRANCH   1  24
TORSDOF 7
ENDMDL
MODEL 4
REMARK VINA RESULT:    -7.801      3.166      9.009
REMARK INTER + INTRA:         -11.941
REMARK INTER:                 -10.210
REMARK INTRA:                  -1.731
REMARK UNBOUND:                -0.948
REMARK  Name = 
REMARK  9 active torsions:
REMARK  status: ('A' for Active; 'I' for Inactive)
REMARK    1  A    between atoms: C_1  and  C_2
REMARK    2  A    between atoms: C_2  and  N_3
REMARK    3  A    between atoms: C_2  and  C_26
REMARK    4  A    between atoms: N_3  and  C_4
REMARK    5  A    between atoms: C_4  and  C_5
REMARK    6  A    between atoms: C_8  and  C_9
REMARK    7  A    between atoms: C_9  and  C_10
REMARK    8  A    between atoms: C_9  and  N_11
REMARK    9  A    between atoms: C_12  and  C_14
REMARK                            x       y       z     vdW  Elec       q    Type
REMARK                         _______ _______ _______ _____ _____    ______ ____
ROOT
ATOM      1  C   UNL     1      48.698   7.987  16.441  0.00  0.00    +0.000 A 
ATOM      2  C   UNL     1      48.974   6.797  15.761  0.00  0.00    +0.000 A 
ATOM      3  C   UNL     1      48.703   6.698  14.399  0.00  0.00    +0.000 A 
ATOM      4  C   UNL     1      48.144   7.793  13.744  0.00  0.00    +0.000 A 
ATOM      5  N   UNL     1      47.901   8.968  14.381  0.00  0.00    +0.000 NA
ATOM      6  C   UNL     1      48.172   9.035  15.700  0.00  0.00    +0.000 A 
ENDROOT
BRANCH   4   7
ATOM      7  C   UNL     1      47.803   7.707  12.264  0.00  0.00    +0.000 C 
ATOM      8  C   UNL     1      49.069   7.704  11.401  0.00  0.00    +0.000 C 
BRANCH   7   9
ATOM      9  N   UNL     1      47.030   6.510  11.977  0.00  0.00    +0.000 N 
ATOM     10  C   UNL     1      45.681   6.425  12.187  0.00  0.00    +0.000 C 
ATOM     11  O   UNL     1      45.024   7.373  12.611  0.00  0.00    +0.000 OA
ATOM     12  H   UNL     1      47.576   5.657  11.884  0.00  0.00    +0.000 HD
BRANCH  10  13
ATOM     13  C   UNL     1      45.038   5.160  11.806  0.00  0.00    +0.000 A 
ATOM     14  C   UNL     1      44.316   4.445  12.753  0.00  0.00    +0.000 A 
ATOM     15  S   UNL     1      43.607   3.019  12.143  0.00  0.00    +0.000 S 
ATOM     16  C   UNL     1      44.276   3.282  10.601  0.00  0.00    +0.000 A 
ATOM     17  N   UNL     1      44.075   2.392   9.592  0.00  0.00    +0.000 NA
ATOM     18  C   UNL     1      44.662   2.702   8.484  0.00  0.00    +0.000 A 
ATOM     19  N   UNL     1      45.421   3.827   8.291  0.00  0.00    +0.000 N 
ATOM     20  C   UNL     1      45.607   4.779   9.264  0.00  0.00    +0.000 A 
ATOM     21  O   UNL     1      46.215   5.816   9.029  0.00  0.00    +0.000 OA
ATOM     22  C   UNL     1      45.002   4.460  10.544  0.00  0.00    +0.000 A 
ATOM     23  H   UNL     1      45.835   4.025   7.392  0.00  0.00    +0.000 HD
ENDBRANCH  10  13
ENDBRANCH   7   9
ENDBRANCH   4   7
BRANCH   1  24
ATOM     24  C   UNL     1      48.885   8.114  17.926  0.00  0.00    +0.000 C 
BRANCH  24  25
ATOM     25  N   UNL     1      47.781   7.505  18.663  0.00  0.00    +0.000 NA
ATOM     26  H   UNL     1      47.090   7.168  17.989  0.00  0.00    +0.000 HD
BRANCH  25  28
ATOM     27  C   UNL     1      47.329   6.137  20.717  0.00  0.00    +0.000 C 
ATOM     28  C   UNL     1      48.207   6.347  19.476  0.00  0.00    +0.000 C 
BRANCH  28  29
ATOM     29  C   UNL     1      48.208   5.068  18.639  0.00  0.00    +0.000 A 
ATOM     30  C   UNL     1      49.368   4.301  18.511  0.00  0.00    +0.000 A 
ATOM     31  C   UNL     1      49.347   3.165  17.710  0.00  0.00    +0.000 A 
ATOM     32  C   UNL     1      48.171   2.815  17.061  0.00  0.00    +0.000 A 
ATOM     33  C   UNL     1      47.058   3.619  17.248  0.00  0.00    +0.000 A 
ATOM     34  N   UNL     1      47.049   4.731  18.017  0.00  0.00    +0.000 NA
ENDBRANCH  28  29
ENDBRANCH  25  28
ENDBRANCH  24  25
ENDBRANCH   1  24
TORSDOF 7
ENDMDL
MODEL 5
REMARK VINA RESULT:    -7.745      3.487      8.501
REMARK INTER + INTRA:         -11.862
REMARK INTER:                 -10.376
REMARK INTRA:                  -1.486
REMARK UNBOUND:                -0.948
REMARK  Name = 
REMARK  9 active torsions:
REMARK  status: ('A' for Active; 'I' for Inactive)
REMARK    1  A    between atoms: C_1  and  C_2
REMARK    2  A    between atoms: C_2  and  N_3
REMARK    3  A    between atoms: C_2  and  C_26
REMARK    4  A    between atoms: N_3  and  C_4
REMARK    5  A    between atoms: C_4  and  C_5
REMARK    6  A    between atoms: C_8  and  C_9
REMARK    7  A    between atoms: C_9  and  C_10
REMARK    8  A    between atoms: C_9  and  N_11
REMARK    9  A    between atoms: C_12  and  C_14
REMARK                            x       y       z     vdW  Elec       q    Type
REMARK                         _______ _______ _______ _____ _____    ______ ____
ROOT
ATOM      1  C   UNL     1      48.757   7.937  16.217  0.00  0.00    +0.000 A 
ATOM      2  C   UNL     1      48.167   9.011  15.545  0.00  0.00    +0.000 A 
ATOM      3  C   UNL     1      48.107   9.011  14.153  0.00  0.00    +0.000 A 
ATOM      4  C   UNL     1      48.656   7.936  13.458  0.00  0.00    +0.000 A 
ATOM      5  N   UNL     1      49.202   6.868  14.096  0.00  0.00    +0.000 NA
ATOM      6  C   UNL     1      49.248   6.896  15.443  0.00  0.00    +0.000 A 
ENDROOT
BRANCH   4   7
ATOM      7  C   UNL     1      48.639   7.920  11.937  0.00  0.00    +0.000 C 
ATOM      8  C   UNL     1      50.054   7.773  11.368  0.00  0.00    +0.000 C 
BRANCH   7   9
ATOM      9  N   UNL     1      47.811   6.835  11.437  0.00  0.00    +0.000 N 
ATOM     10  C   UNL     1      46.445   6.895  11.401  0.00  0.00    +0.000 C 
ATOM     11  O   UNL     1      45.824   7.890  11.769  0.00  0.00    +0.000 OA
ATOM     12  H   UNL     1      48.273   5.931  11.382  0.00  0.00    +0.000 HD
BRANCH  10  13
ATOM     13  C   UNL     1      45.754   5.732  10.827  0.00  0.00    +0.000 A 
ATOM     14  C   UNL     1      45.834   5.491   9.462  0.00  0.00    +0.000 A 
ATOM     15  S   UNL     1      45.006   4.087   8.963  0.00  0.00    +0.000 S 
ATOM     16  C   UNL     1      44.474   3.773  10.548  0.00  0.00    +0.000 A 
ATOM     17  N   UNL     1      43.675   2.705  10.817  0.00  0.00    +0.000 NA
ATOM     18  C   UNL     1      43.323   2.602  12.056  0.00  0.00    +0.000 A 
ATOM     19  N   UNL     1      43.709   3.462  13.050  0.00  0.00    +0.000 N 
ATOM     20  C   UNL     1      44.557   4.522  12.836  0.00  0.00    +0.000 A 
ATOM     21  O   UNL     1      44.953   5.216  13.763  0.00  0.00    +0.000 OA
ATOM     22  C   UNL     1      44.950   4.708  11.451  0.00  0.00    +0.000 A 
ATOM     23  H   UNL     1      43.419   3.313  14.006  0.00  0.00    +0.000 HD
ENDBRANCH  10  13
ENDBRANCH   7   9
ENDBRANCH   4   7
BRANCH   1  24
ATOM     24  C   UNL     1      48.928   7.932  17.709  0.00  0.00    +0.000 C 
BRANCH  24  25
ATOM     25  N   UNL     1      47.788   7.315  18.381  0.00  0.00    +0.000 NA
ATOM     26  H   UNL     1      47.157   6.943  17.669  0.00  0.00    +0.000 HD
BRANCH  25  28
ATOM     27  C   UNL     1      47.231   6.003  20.446  0.00  0.00    +0.000 C 
ATOM     28  C   UNL     1      48.181   6.190  19.255  0.00  0.00    +0.000 C 
BRANCH  28  29
ATOM     29  C   UNL     1      48.255   4.886  18.461  0.00  0.00    +0.000 A 
ATOM     30  C   UNL     1      49.451   4.170  18.377  0.00  0.00    +0.000 A 
ATOM     31  C   UNL     1      49.495   3.009  17.613  0.00  0.00    +0.000 A 
ATOM     32  C   UNL     1      48.348   2.584  16.957  0.00  0.00    +0.000 A 
ATOM     33  C   UNL     1      47.196   3.342  17.100  0.00  0.00    +0.000 A 
ATOM     34  N   UNL     1      47.124   4.476  17.832  0.00  0.00    +0.000 NA
ENDBRANCH  28  29
ENDBRANCH  25  28
ENDBRANCH  24  25
ENDBRANCH   1  24
TORSDOF 7
ENDMDL
MODEL 6
REMARK VINA RESULT:    -6.912      3.742      9.995
REMARK INTER + INTRA:         -10.689
REMARK INTER:                  -9.332
REMARK INTRA:                  -1.356
REMARK UNBOUND:                -0.948
REMARK  Name = 
REMARK  9 active torsions:
REMARK  status: ('A' for Active; 'I' for Inactive)
REMARK    1  A    between atoms: C_1  and  C_2
REMARK    2  A    between atoms: C_2  and  N_3
REMARK    3  A    between atoms: C_2  and  C_26
REMARK    4  A    between atoms: N_3  and  C_4
REMARK    5  A    between atoms: C_4  and  C_5
REMARK    6  A    between atoms: C_8  and  C_9
REMARK    7  A    between atoms: C_9  and  C_10
REMARK    8  A    between atoms: C_9  and  N_11
REMARK    9  A    between atoms: C_12  and  C_14
REMARK                            x       y       z     vdW  Elec       q    Type
REMARK                         _______ _______ _______ _____ _____    ______ ____
ROOT
ATOM      1  C   UNL     1      51.275   5.551  17.965  0.00  0.00    +0.000 A 
ATOM      2  C   UNL     1      50.961   4.263  18.407  0.00  0.00    +0.000 A 
ATOM      3  C   UNL     1      49.850   3.602  17.887  0.00  0.00    +0.000 A 
ATOM      4  C   UNL     1      49.063   4.255  16.941  0.00  0.00    +0.000 A 
ATOM      5  N   UNL     1      49.373   5.494  16.475  0.00  0.00    +0.000 NA
ATOM      6  C   UNL     1      50.453   6.109  16.997  0.00  0.00    +0.000 A 
ENDROOT
BRANCH   4   7
ATOM      7  C   UNL     1      47.822   3.577  16.378  0.00  0.00    +0.000 C 
ATOM      8  C   UNL     1      46.899   3.089  17.500  0.00  0.00    +0.000 C 
BRANCH   7   9
ATOM      9  N   UNL     1      47.082   4.482  15.514  0.00  0.00    +0.000 N 
ATOM     10  C   UNL     1      46.923   4.267  14.172  0.00  0.00    +0.000 C 
ATOM     11  O   UNL     1      47.377   3.273  13.610  0.00  0.00    +0.000 OA
ATOM     12  H   UNL     1      46.934   5.414  15.891  0.00  0.00    +0.000 HD
BRANCH  10  13
ATOM     13  C   UNL     1      46.112   5.252  13.444  0.00  0.00    +0.000 A 
ATOM     14  C   UNL     1      46.554   6.565  13.343  0.00  0.00    +0.000 A 
ATOM     15  S   UNL     1      45.516   7.572  12.440  0.00  0.00    +0.000 S 
ATOM     16  C   UNL     1      44.415   6.300  12.186  0.00  0.00    +0.000 A 
ATOM     17  N   UNL     1      43.261   6.502  11.494  0.00  0.00    +0.000 NA
ATOM     18  C   UNL     1      42.506   5.459  11.401  0.00  0.00    +0.000 A 
ATOM     19  N   UNL     1      42.807   4.229  11.926  0.00  0.00    +0.000 N 
ATOM     20  C   UNL     1      43.983   3.964  12.585  0.00  0.00    +0.000 A 
ATOM     21  O   UNL     1      44.259   2.832  12.961  0.00  0.00    +0.000 OA
ATOM     22  C   UNL     1      44.851   5.114  12.754  0.00  0.00    +0.000 A 
ATOM     23  H   UNL     1      42.184   3.444  11.798  0.00  0.00    +0.000 HD
ENDBRANCH  10  13
ENDBRANCH   7   9
ENDBRANCH   4   7
BRANCH   1  24
ATOM     24  C   UNL     1      52.406   6.340  18.560  0.00  0.00    +0.000 C 
BRANCH  24  25
ATOM     25  N   UNL     1      51.921   7.472  19.344  0.00  0.00    +0.000 NA
ATOM     26  H   UNL     1      51.030   7.780  18.948  0.00  0.00    +0.000 HD
BRANCH  25  28
ATOM     27  C   UNL     1      52.100   8.238  21.727  0.00  0.00    +0.000 C 
ATOM     28  C   UNL     1      51.678   7.124  20.759  0.00  0.00    +0.000 C 
BRANCH  28  29
ATOM     29  C   UNL     1      50.204   6.790  20.991  0.00  0.00    +0.000 A 
ATOM     30  C   UNL     1      49.825   5.536  21.477  0.00  0.00    +0.000 A 
ATOM     31  C   UNL     1      48.474   5.250  21.638  0.00  0.00    +0.000 A 
ATOM     32  C   UNL     1      47.533   6.219  21.319  0.00  0.00    +0.000 A 
ATOM     33  C   UNL     1      47.988   7.443  20.855  0.00  0.00    +0.000 A 
ATOM     34  N   UNL     1      49.293   7.749  20.684  0.00  0.00    +0.000 NA
ENDBRANCH  28  29
ENDBRANCH  25  28
ENDBRANCH  24  25
ENDBRANCH   1  24
TORSDOF 7
ENDMDL
MODEL 7
REMARK VINA RESULT:    -6.875      2.248      2.743
REMARK INTER + INTRA:         -10.636
REMARK INTER:                 -10.190
REMARK INTRA:                  -0.446
REMARK UNBOUND:                -0.948
REMARK  Name = 
REMARK  9 active torsions:
REMARK  status: ('A' for Active; 'I' for Inactive)
REMARK    1  A    between atoms: C_1  and  C_2
REMARK    2  A    between atoms: C_2  and  N_3
REMARK    3  A    between atoms: C_2  and  C_26
REMARK    4  A    between atoms: N_3  and  C_4
REMARK    5  A    between atoms: C_4  and  C_5
REMARK    6  A    between atoms: C_8  and  C_9
REMARK    7  A    between atoms: C_9  and  C_10
REMARK    8  A    between atoms: C_9  and  N_11
REMARK    9  A    between atoms: C_12  and  C_14
REMARK                            x       y       z     vdW  Elec       q    Type
REMARK                         _______ _______ _______ _____ _____    ______ ____
ROOT
ATOM      1  C   UNL     1      44.783   5.321  10.991  0.00  0.00    +0.000 A 
ATOM      2  C   UNL     1      45.858   5.996  10.405  0.00  0.00    +0.000 A 
ATOM      3  C   UNL     1      46.791   6.645  11.210  0.00  0.00    +0.000 A 
ATOM      4  C   UNL     1      46.620   6.618  12.592  0.00  0.00    +0.000 A 
ATOM      5  N   UNL     1      45.601   5.938  13.180  0.00  0.00    +0.000 NA
ATOM      6  C   UNL     1      44.712   5.320  12.376  0.00  0.00    +0.000 A 
ENDROOT
BRANCH   4   7
ATOM      7  C   UNL     1      47.600   7.347  13.499  0.00  0.00    +0.000 C 
ATOM      8  C   UNL     1      46.998   8.650  14.035  0.00  0.00    +0.000 C 
BRANCH   7   9
ATOM      9  N   UNL     1      47.994   6.509  14.619  0.00  0.00    +0.000 N 
ATOM     10  C   UNL     1      48.930   6.889  15.542  0.00  0.00    +0.000 C 
ATOM     11  O   UNL     1      49.484   7.985  15.498  0.00  0.00    +0.000 OA
ATOM     12  H   UNL     1      47.756   5.525  14.526  0.00  0.00    +0.000 HD
BRANCH  10  13
ATOM     13  C   UNL     1      49.186   5.947  16.639  0.00  0.00    +0.000 A 
ATOM     14  C   UNL     1      48.118   5.337  17.284  0.00  0.00    +0.000 A 
ATOM     15  S   UNL     1      48.587   4.249  18.510  0.00  0.00    +0.000 S 
ATOM     16  C   UNL     1      50.235   4.584  18.253  0.00  0.00    +0.000 A 
ATOM     17  N   UNL     1      51.195   3.991  19.012  0.00  0.00    +0.000 NA
ATOM     18  C   UNL     1      52.400   4.357  18.728  0.00  0.00    +0.000 A 
ATOM     19  N   UNL     1      52.732   5.253  17.745  0.00  0.00    +0.000 N 
ATOM     20  C   UNL     1      51.802   5.835  16.919  0.00  0.00    +0.000 A 
ATOM     21  O   UNL     1      52.141   6.560  15.993  0.00  0.00    +0.000 OA
ATOM     22  C   UNL     1      50.426   5.489  17.223  0.00  0.00    +0.000 A 
ATOM     23  H   UNL     1      53.697   5.480  17.556  0.00  0.00    +0.000 HD
ENDBRANCH  10  13
ENDBRANCH   7   9
ENDBRANCH   4   7
BRANCH   1  24
ATOM     24  C   UNL     1      43.702   4.684  10.166  0.00  0.00    +0.000 C 
BRANCH  24  25
ATOM     25  N   UNL     1      44.226   4.139   8.916  0.00  0.00    +0.000 NA
ATOM     26  H   UNL     1      44.804   4.854   8.470  0.00  0.00    +0.000 HD
BRANCH  25  28
ATOM     27  C   UNL     1      44.267   1.687   9.447  0.00  0.00    +0.000 C 
ATOM     28  C   UNL     1      45.078   2.950   9.125  0.00  0.00    +0.000 C 
BRANCH  28  29
ATOM     29  C   UNL     1      45.953   2.687   7.900  0.00  0.00    +0.000 A 
ATOM     30  C   UNL     1      46.641   1.479   7.761  0.00  0.00    +0.000 A 
ATOM     31  C   UNL     1      47.460   1.288   6.654  0.00  0.00    +0.000 A 
ATOM     32  C   UNL     1      47.571   2.298   5.709  0.00  0.00    +0.000 A 
ATOM     33  C   UNL     1      46.846   3.462   5.910  0.00  0.00    +0.000 A 
ATOM     34  N   UNL     1      46.046   3.679   6.977  0.00  0.00    +0.000 NA
ENDBRANCH  28  29
ENDBRANCH  25  28
ENDBRANCH  24  25
ENDBRANCH   1  24
TORSDOF 7
ENDMDL
MODEL 8
REMARK VINA RESULT:    -6.861      3.578      5.544
REMARK INTER + INTRA:         -10.617
REMARK INTER:                  -9.525
REMARK INTRA:                  -1.091
REMARK UNBOUND:                -0.948
REMARK  Name = 
REMARK  9 active torsions:
REMARK  status: ('A' for Active; 'I' for Inactive)
REMARK    1  A    between atoms: C_1  and  C_2
REMARK    2  A    between atoms: C_2  and  N_3
REMARK    3  A    between atoms: C_2  and  C_26
REMARK    4  A    between atoms: N_3  and  C_4
REMARK    5  A    between atoms: C_4  and  C_5
REMARK    6  A    between atoms: C_8  and  C_9
REMARK    7  A    between atoms: C_9  and  C_10
REMARK    8  A    between atoms: C_9  and  N_11
REMARK    9  A    between atoms: C_12  and  C_14
REMARK                            x       y       z     vdW  Elec       q    Type
REMARK                         _______ _______ _______ _____ _____    ______ ____
ROOT
ATOM      1  C   UNL     1      44.665   5.071  10.990  0.00  0.00    +0.000 A 
ATOM      2  C   UNL     1      44.349   4.506  12.229  0.00  0.00    +0.000 A 
ATOM      3  C   UNL     1      45.142   4.783  13.340  0.00  0.00    +0.000 A 
ATOM      4  C   UNL     1      46.250   5.612  13.184  0.00  0.00    +0.000 A 
ATOM      5  N   UNL     1      46.552   6.197  11.995  0.00  0.00    +0.000 NA
ATOM      6  C   UNL     1      45.768   5.910  10.937  0.00  0.00    +0.000 A 
ENDROOT
BRANCH   4   7
ATOM      7  C   UNL     1      47.158   5.907  14.369  0.00  0.00    +0.000 C 
ATOM      8  C   UNL     1      47.506   4.626  15.134  0.00  0.00    +0.000 C 
BRANCH   7   9
ATOM      9  N   UNL     1      48.387   6.550  13.935  0.00  0.00    +0.000 N 
ATOM     10  C   UNL     1      48.618   7.891  14.076  0.00  0.00    +0.000 C 
ATOM     11  O   UNL     1      47.803   8.642  14.608  0.00  0.00    +0.000 OA
ATOM     12  H   UNL     1      48.942   6.015  13.272  0.00  0.00    +0.000 HD
BRANCH  10  13
ATOM     13  C   UNL     1      49.927   8.381  13.626  0.00  0.00    +0.000 A 
ATOM     14  C   UNL     1      51.078   7.970  14.287  0.00  0.00    +0.000 A 
ATOM     15  S   UNL     1      52.514   8.601  13.621  0.00  0.00    +0.000 S 
ATOM     16  C   UNL     1      51.649   9.481  12.450  0.00  0.00    +0.000 A 
ATOM     17  N   UNL     1      52.295  10.278  11.557  0.00  0.00    +0.000 NA
ATOM     18  C   UNL     1      51.515  10.908  10.743  0.00  0.00    +0.000 A 
ATOM     19  N   UNL     1      50.148  10.803  10.734  0.00  0.00    +0.000 N 
ATOM     20  C   UNL     1      49.457   9.970  11.580  0.00  0.00    +0.000 A 
ATOM     21  O   UNL     1      48.245   9.832  11.484  0.00  0.00    +0.000 OA
ATOM     22  C   UNL     1      50.284   9.269  12.545  0.00  0.00    +0.000 A 
ATOM     23  H   UNL     1      49.594  11.305  10.056  0.00  0.00    +0.000 HD
ENDBRANCH  10  13
ENDBRANCH   7   9
ENDBRANCH   4   7
BRANCH   1  24
ATOM     24  C   UNL     1      43.897   4.732   9.744  0.00  0.00    +0.000 C 
BRANCH  24  25
ATOM     25  N   UNL     1      44.784   4.317   8.660  0.00  0.00    +0.000 NA
ATOM     26  H   UNL     1      45.525   5.014   8.565  0.00  0.00    +0.000 HD
BRANCH  25  28
ATOM     27  C   UNL     1      44.428   1.913   9.285  0.00  0.00    +0.000 C 
ATOM     28  C   UNL     1      45.432   3.015   8.919  0.00  0.00    +0.000 C 
BRANCH  28  29
ATOM     29  C   UNL     1      46.251   2.566   7.709  0.00  0.00    +0.000 A 
ATOM     30  C   UNL     1      46.395   3.399   6.597  0.00  0.00    +0.000 A 
ATOM     31  C   UNL     1      47.112   2.945   5.496  0.00  0.00    +0.000 A 
ATOM     32  C   UNL     1      47.676   1.677   5.530  0.00  0.00    +0.000 A 
ATOM     33  C   UNL     1      47.501   0.915   6.675  0.00  0.00    +0.000 A 
ATOM     34  N   UNL     1      46.805   1.328   7.758  0.00  0.00    +0.000 NA
ENDBRANCH  28  29
ENDBRANCH  25  28
ENDBRANCH  24  25
ENDBRANCH   1  24
TORSDOF 7
ENDMDL
MODEL 9
REMARK VINA RESULT:    -6.772      3.332      9.730
REMARK INTER + INTRA:         -10.491
REMARK INTER:                  -8.886
REMARK INTRA:                  -1.605
REMARK UNBOUND:                -0.948
REMARK  Name = 
REMARK  9 active torsions:
REMARK  status: ('A' for Active; 'I' for Inactive)
REMARK    1  A    between atoms: C_1  and  C_2
REMARK    2  A    between atoms: C_2  and  N_3
REMARK    3  A    between atoms: C_2  and  C_26
REMARK    4  A    between atoms: N_3  and  C_4
REMARK    5  A    between atoms: C_4  and  C_5
REMARK    6  A    between atoms: C_8  and  C_9
REMARK    7  A    between atoms: C_9  and  C_10
REMARK    8  A    between atoms: C_9  and  N_11
REMARK    9  A    between atoms: C_12  and  C_14
REMARK                            x       y       z     vdW  Elec       q    Type
REMARK                         _______ _______ _______ _____ _____    ______ ____
ROOT
ATOM      1  C   UNL     1      47.909   7.397  19.479  0.00  0.00    +0.000 A 
ATOM      2  C   UNL     1      47.233   6.178  19.574  0.00  0.00    +0.000 A 
ATOM      3  C   UNL     1      47.309   5.259  18.530  0.00  0.00    +0.000 A 
ATOM      4  C   UNL     1      48.053   5.589  17.399  0.00  0.00    +0.000 A 
ATOM      5  N   UNL     1      48.744   6.755  17.304  0.00  0.00    +0.000 NA
ATOM      6  C   UNL     1      48.650   7.625  18.330  0.00  0.00    +0.000 A 
ENDROOT
BRANCH   4   7
ATOM      7  C   UNL     1      48.128   4.623  16.225  0.00  0.00    +0.000 C 
ATOM      8  C   UNL     1      47.888   3.179  16.677  0.00  0.00    +0.000 C 
BRANCH   7   9
ATOM      9  N   UNL     1      47.154   4.970  15.204  0.00  0.00    +0.000 N 
ATOM     10  C   UNL     1      47.469   5.700  14.090  0.00  0.00    +0.000 C 
ATOM     11  O   UNL     1      48.613   6.091  13.866  0.00  0.00    +0.000 OA
ATOM     12  H   UNL     1      46.182   4.892  15.491  0.00  0.00    +0.000 HD
BRANCH  10  13
ATOM     13  C   UNL     1      46.381   5.930  13.130  0.00  0.00    +0.000 A 
ATOM     14  C   UNL     1      46.078   7.227  12.735  0.00  0.00    +0.000 A 
ATOM     15  S   UNL     1      44.814   7.318  11.594  0.00  0.00    +0.000 S 
ATOM     16  C   UNL     1      44.597   5.631  11.618  0.00  0.00    +0.000 A 
ATOM     17  N   UNL     1      43.627   5.041  10.868  0.00  0.00    +0.000 NA
ATOM     18  C   UNL     1      43.556   3.758  11.003  0.00  0.00    +0.000 A 
ATOM     19  N   UNL     1      44.375   3.012  11.810  0.00  0.00    +0.000 N 
ATOM     20  C   UNL     1      45.401   3.558  12.544  0.00  0.00    +0.000 A 
ATOM     21  O   UNL     1      46.170   2.852  13.182  0.00  0.00    +0.000 OA
ATOM     22  C   UNL     1      45.499   5.003  12.460  0.00  0.00    +0.000 A 
ATOM     23  H   UNL     1      44.284   2.008  11.855  0.00  0.00    +0.000 HD
ENDBRANCH  10  13
ENDBRANCH   7   9
ENDBRANCH   4   7
BRANCH   1  24
ATOM     24  C   UNL     1      47.784   8.458  20.536  0.00  0.00    +0.000 C 
BRANCH  24  25
ATOM     25  N   UNL     1      46.966   9.579  20.081  0.00  0.00    +0.000 NA
ATOM     26  H   UNL     1      46.120   9.614  20.652  0.00  0.00    +0.000 HD
BRANCH  25  28
ATOM     27  C   UNL     1      48.467  10.982  21.521  0.00  0.00    +0.000 C 
ATOM     28  C   UNL     1      47.651  10.881  20.225  0.00  0.00    +0.000 C 
BRANCH  28  29
ATOM     29  C   UNL     1      48.568  11.147  19.032  0.00  0.00    +0.000 A 
ATOM     30  C   UNL     1      48.037  11.367  17.759  0.00  0.00    +0.000 A 
ATOM     31  C   UNL     1      48.900  11.566  16.688  0.00  0.00    +0.000 A 
ATOM     32  C   UNL     1      50.270  11.549  16.908  0.00  0.00    +0.000 A 
ATOM     33  C   UNL     1      50.720  11.337  18.201  0.00  0.00    +0.000 A 
ATOM     34  N   UNL     1      49.907  11.137  19.262  0.00  0.00    +0.000 NA
ENDBRANCH  28  29
ENDBRANCH  25  28
ENDBRANCH  24  25
ENDBRANCH   1  24
TORSDOF 7
ENDMDL
