MODEL 1
REMARK VINA RESULT:    -8.138      0.000      0.000
REMARK INTER + INTRA:         -12.859
REMARK INTER:                 -11.706
REMARK INTRA:                  -1.153
REMARK UNBOUND:                -1.153
REMARK  Name = 
REMARK  9 active torsions:
REMARK  status: ('A' for Active; 'I' for Inactive)
REMARK    1  A    between atoms: C_1  and  C_2
REMARK    2  A    between atoms: C_5  and  C_6
REMARK    3  A    between atoms: C_6  and  N_7
REMARK    4  A    between atoms: N_7  and  C_8
REMARK    5  A    between atoms: C_8  and  C_9
REMARK    6  A    between atoms: C_12  and  C_13
REMARK    7  A    between atoms: C_13  and  N_14
REMARK    8  A    between atoms: C_15  and  C_17
REMARK    9  A    between atoms: C_24  and  O_25
REMARK                            x       y       z     vdW  Elec       q    Type
REMARK                         _______ _______ _______ _____ _____    ______ ____
ROOT
ATOM      1  C   UNL     1      44.581   5.703  11.782  0.00  0.00    +0.000 A 
ATOM      2  C   UNL     1      44.940   4.968  12.921  0.00  0.00    +0.000 A 
ATOM      3  C   UNL     1      46.109   5.269  13.628  0.00  0.00    +0.000 A 
ATOM      4  C   UNL     1      46.936   6.332  13.226  0.00  0.00    +0.000 A 
ATOM      5  C   UNL     1      46.565   7.071  12.094  0.00  0.00    +0.000 A 
ATOM      6  C   UNL     1      45.401   6.764  11.381  0.00  0.00    +0.000 A 
ENDROOT
BRANCH   1   7
ATOM      7  C   UNL     1      43.317   5.374  11.019  0.00  0.00    +0.000 C 
BRANCH   7   8
ATOM      8  N   UNL     1      43.571   4.696   9.746  0.00  0.00    +0.000 NA
ATOM      9  H   UNL     1      42.699   4.641   9.221  0.00  0.00    +0.000 HD
BRANCH   8  10
ATOM     10  C   UNL     1      44.087   3.336   9.918  0.00  0.00    +0.000 C 
BRANCH  10  15
ATOM     11  C   UNL     1      47.999   1.988   5.801  0.00  0.00    +0.000 C 
ATOM     12  C   UNL     1      47.009   2.353   6.867  0.00  0.00    +0.000 A 
ATOM     13  C   UNL     1      46.531   3.662   6.984  0.00  0.00    +0.000 A 
ATOM     14  C   UNL     1      45.599   3.990   7.975  0.00  0.00    +0.000 A 
ATOM     15  C   UNL     1      45.115   3.010   8.857  0.00  0.00    +0.000 A 
ATOM     16  C   UNL     1      45.614   1.706   8.745  0.00  0.00    +0.000 A 
ATOM     17  C   UNL     1      46.550   1.381   7.762  0.00  0.00    +0.000 A 
ENDBRANCH  10  15
ENDBRANCH   8  10
ENDBRANCH   7   8
ENDBRANCH   1   7
BRANCH   4  18
ATOM     18  C   UNL     1      48.187   6.703  13.996  0.00  0.00    +0.000 C 
BRANCH  18  19
ATOM     19  N   UNL     1      48.096   6.390  15.396  0.00  0.00    +0.000 N 
ATOM     20  C   UNL     1      49.192   6.267  16.203  0.00  0.00    +0.000 C 
ATOM     21  O   UNL     1      50.352   6.345  15.783  0.00  0.00    +0.000 OA
ATOM     22  H   UNL     1      47.215   6.620  15.839  0.00  0.00    +0.000 HD
BRANCH  20  23
ATOM     23  C   UNL     1      48.899   6.018  17.616  0.00  0.00    +0.000 A 
ATOM     24  C   UNL     1      49.180   4.804  18.225  0.00  0.00    +0.000 A 
ATOM     25  S   UNL     1      48.748   4.773  19.880  0.00  0.00    +0.000 S 
ATOM     26  C   UNL     1      48.187   6.376  19.819  0.00  0.00    +0.000 A 
ATOM     27  N   UNL     1      47.696   6.980  20.917  0.00  0.00    +0.000 NA
ATOM     28  C   UNL     1      47.288   8.233  20.675  0.00  0.00    +0.000 A 
ATOM     29  N   UNL     1      47.311   8.896  19.514  0.00  0.00    +0.000 NA
ATOM     30  C   UNL     1      47.808   8.242  18.473  0.00  0.00    +0.000 A 
ATOM     31  C   UNL     1      48.292   6.937  18.557  0.00  0.00    +0.000 A 
BRANCH  30  32
ATOM     32  O   UNL     1      47.769   8.950  17.310  0.00  0.00    +0.000 OA
ATOM     33  H   UNL     1      47.290   9.759  17.577  0.00  0.00    +0.000 HD
ENDBRANCH  30  32
ENDBRANCH  20  23
ENDBRANCH  18  19
ENDBRANCH   4  18
TORSDOF 8
ENDMDL
MODEL 2
REMARK VINA RESULT:    -8.102      1.315      2.129
REMARK INTER + INTRA:         -12.807
REMARK INTER:                 -11.689
REMARK INTRA:                  -1.118
REMARK UNBOUND:                -1.153
REMARK  Name = 
REMARK  9 active torsions:
REMARK  status: ('A' for Active; 'I' for Inactive)
REMARK    1  A    between atoms: C_1  and  C_2
REMARK    2  A    between atoms: C_5  and  C_6
REMARK    3  A    between atoms: C_6  and  N_7
REMARK    4  A    between atoms: N_7  and  C_8
REMARK    5  A    between atoms: C_8  and  C_9
REMARK    6  A    between atoms: C_12  and  C_13
REMARK    7  A    between atoms: C_13  and  N_14
REMARK    8  A    between atoms: C_15  and  C_17
REMARK    9  A    between atoms: C_24  and  O_25
REMARK                            x       y       z     vdW  Elec       q    Type
REMARK                         _______ _______ _______ _____ _____    ______ ____
ROOT
ATOM      1  C   UNL     1      44.683   5.593  11.857  0.00  0.00    +0.000 A 
ATOM      2  C   UNL     1      44.921   4.864  13.031  0.00  0.00    +0.000 A 
ATOM      3  C   UNL     1      46.106   5.036  13.753  0.00  0.00    +0.000 A 
ATOM      4  C   UNL     1      47.075   5.962  13.331  0.00  0.00    +0.000 A 
ATOM      5  C   UNL     1      46.826   6.698  12.163  0.00  0.00    +0.000 A 
ATOM      6  C   UNL     1      45.644   6.518  11.435  0.00  0.00    +0.000 A 
ENDROOT
BRANCH   1   7
ATOM      7  C   UNL     1      43.401   5.404  11.077  0.00  0.00    +0.000 C 
BRANCH   7   8
ATOM      8  N   UNL     1      43.600   4.732   9.792  0.00  0.00    +0.000 NA
ATOM      9  H   UNL     1      42.719   4.729   9.280  0.00  0.00    +0.000 HD
BRANCH   8  10
ATOM     10  C   UNL     1      44.049   3.345   9.937  0.00  0.00    +0.000 C 
BRANCH  10  15
ATOM     11  C   UNL     1      48.080   2.100   5.903  0.00  0.00    +0.000 C 
ATOM     12  C   UNL     1      47.030   2.401   6.931  0.00  0.00    +0.000 A 
ATOM     13  C   UNL     1      46.546   1.399   7.778  0.00  0.00    +0.000 A 
ATOM     14  C   UNL     1      45.574   1.693   8.741  0.00  0.00    +0.000 A 
ATOM     15  C   UNL     1      45.080   2.999   8.886  0.00  0.00    +0.000 A 
ATOM     16  C   UNL     1      45.555   3.992   8.019  0.00  0.00    +0.000 A 
ATOM     17  C   UNL     1      46.518   3.697   7.053  0.00  0.00    +0.000 A 
ENDBRANCH  10  15
ENDBRANCH   8  10
ENDBRANCH   7   8
ENDBRANCH   1   7
BRANCH   4  18
ATOM     18  C   UNL     1      48.349   6.195  14.115  0.00  0.00    +0.000 C 
BRANCH  18  19
ATOM     19  N   UNL     1      48.106   6.568  15.482  0.00  0.00    +0.000 N 
ATOM     20  C   UNL     1      48.914   6.180  16.513  0.00  0.00    +0.000 C 
ATOM     21  O   UNL     1      49.878   5.421  16.367  0.00  0.00    +0.000 OA
ATOM     22  H   UNL     1      47.550   7.403  15.614  0.00  0.00    +0.000 HD
BRANCH  20  23
ATOM     23  C   UNL     1      48.548   6.718  17.826  0.00  0.00    +0.000 A 
ATOM     24  C   UNL     1      48.180   8.044  18.004  0.00  0.00    +0.000 A 
ATOM     25  S   UNL     1      47.795   8.415  19.629  0.00  0.00    +0.000 S 
ATOM     26  C   UNL     1      48.102   6.819  20.123  0.00  0.00    +0.000 A 
ATOM     27  N   UNL     1      47.944   6.449  21.408  0.00  0.00    +0.000 NA
ATOM     28  C   UNL     1      48.247   5.161  21.613  0.00  0.00    +0.000 A 
ATOM     29  N   UNL     1      48.678   4.264  20.719  0.00  0.00    +0.000 NA
ATOM     30  C   UNL     1      48.812   4.695  19.472  0.00  0.00    +0.000 A 
ATOM     31  C   UNL     1      48.522   6.003  19.086  0.00  0.00    +0.000 A 
BRANCH  30  32
ATOM     32  O   UNL     1      49.290   3.753  18.614  0.00  0.00    +0.000 OA
ATOM     33  H   UNL     1      48.636   3.033  18.711  0.00  0.00    +0.000 HD
ENDBRANCH  30  32
ENDBRANCH  20  23
ENDBRANCH  18  19
ENDBRANCH   4  18
TORSDOF 8
ENDMDL
MODEL 3
REMARK VINA RESULT:    -8.084      2.233      2.816
REMARK INTER + INTRA:         -12.781
REMARK INTER:                 -11.716
REMARK INTRA:                  -1.065
REMARK UNBOUND:                -1.153
REMARK  Name = 
REMARK  9 active torsions:
REMARK  status: ('A' for Active; 'I' for Inactive)
REMARK    1  A    between atoms: C_1  and  C_2
REMARK    2  A    between atoms: C_5  and  C_6
REMARK    3  A    between atoms: C_6  and  N_7
REMARK    4  A    between atoms: N_7  and  C_8
REMARK    5  A    between atoms: C_8  and  C_9
REMARK    6  A    between atoms: C_12  and  C_13
REMARK    7  A    between atoms: C_13  and  N_14
REMARK    8  A    between atoms: C_15  and  C_17
REMARK    9  A    between atoms: C_24  and  O_25
REMARK                            x       y       z     vdW  Elec       q    Type
REMARK                         _______ _______ _______ _____ _____    ______ ____
ROOT
ATOM      1  C   UNL     1      44.551   6.098  11.492  0.00  0.00    +0.000 A 
ATOM      2  C   UNL     1      44.740   7.487  11.494  0.00  0.00    +0.000 A 
ATOM      3  C   UNL     1      45.911   8.050  12.011  0.00  0.00    +0.000 A 
ATOM      4  C   UNL     1      46.936   7.233  12.518  0.00  0.00    +0.000 A 
ATOM      5  C   UNL     1      46.747   5.844  12.502  0.00  0.00    +0.000 A 
ATOM      6  C   UNL     1      45.571   5.281  11.993  0.00  0.00    +0.000 A 
ENDROOT
BRANCH   1   7
ATOM      7  C   UNL     1      43.283   5.492  10.933  0.00  0.00    +0.000 C 
BRANCH   7   8
ATOM      8  N   UNL     1      43.493   4.765   9.680  0.00  0.00    +0.000 NA
ATOM      9  H   UNL     1      42.617   4.738   9.162  0.00  0.00    +0.000 HD
BRANCH   8  10
ATOM     10  C   UNL     1      43.941   3.386   9.889  0.00  0.00    +0.000 C 
BRANCH  10  15
ATOM     11  C   UNL     1      48.074   1.994   6.010  0.00  0.00    +0.000 C 
ATOM     12  C   UNL     1      46.998   2.333   6.997  0.00  0.00    +0.000 A 
ATOM     13  C   UNL     1      46.445   1.349   7.823  0.00  0.00    +0.000 A 
ATOM     14  C   UNL     1      45.449   1.679   8.749  0.00  0.00    +0.000 A 
ATOM     15  C   UNL     1      44.998   3.002   8.878  0.00  0.00    +0.000 A 
ATOM     16  C   UNL     1      45.543   3.978   8.033  0.00  0.00    +0.000 A 
ATOM     17  C   UNL     1      46.530   3.647   7.103  0.00  0.00    +0.000 A 
ENDBRANCH  10  15
ENDBRANCH   8  10
ENDBRANCH   7   8
ENDBRANCH   1   7
BRANCH   4  18
ATOM     18  C   UNL     1      48.229   7.815  13.049  0.00  0.00    +0.000 C 
BRANCH  18  19
ATOM     19  N   UNL     1      48.828   7.006  14.075  0.00  0.00    +0.000 N 
ATOM     20  C   UNL     1      48.907   7.400  15.381  0.00  0.00    +0.000 C 
ATOM     21  O   UNL     1      48.532   8.510  15.776  0.00  0.00    +0.000 OA
ATOM     22  H   UNL     1      48.860   6.013  13.885  0.00  0.00    +0.000 HD
BRANCH  20  23
ATOM     23  C   UNL     1      49.486   6.412  16.295  0.00  0.00    +0.000 A 
ATOM     24  C   UNL     1      50.735   6.584  16.872  0.00  0.00    +0.000 A 
ATOM     25  S   UNL     1      51.176   5.291  17.902  0.00  0.00    +0.000 S 
ATOM     26  C   UNL     1      49.710   4.485  17.607  0.00  0.00    +0.000 A 
ATOM     27  N   UNL     1      49.434   3.309  18.202  0.00  0.00    +0.000 NA
ATOM     28  C   UNL     1      48.244   2.816  17.837  0.00  0.00    +0.000 A 
ATOM     29  N   UNL     1      47.362   3.341  16.980  0.00  0.00    +0.000 NA
ATOM     30  C   UNL     1      47.697   4.501  16.430  0.00  0.00    +0.000 A 
ATOM     31  C   UNL     1      48.893   5.159  16.715  0.00  0.00    +0.000 A 
BRANCH  30  32
ATOM     32  O   UNL     1      46.782   4.969  15.537  0.00  0.00    +0.000 OA
ATOM     33  H   UNL     1      46.866   5.937  15.644  0.00  0.00    +0.000 HD
ENDBRANCH  30  32
ENDBRANCH  20  23
ENDBRANCH  18  19
ENDBRANCH   4  18
TORSDOF 8
ENDMDL
MODEL 4
REMARK VINA RESULT:    -7.560      2.466      3.010
REMARK INTER + INTRA:         -12.028
REMARK INTER:                 -10.835
REMARK INTRA:                  -1.193
REMARK UNBOUND:                -1.153
REMARK  Name = 
REMARK  9 active torsions:
REMARK  status: ('A' for Active; 'I' for Inactive)
REMARK    1  A    between atoms: C_1  and  C_2
REMARK    2  A    between atoms: C_5  and  C_6
REMARK    3  A    between atoms: C_6  and  N_7
REMARK    4  A    between atoms: N_7  and  C_8
REMARK    5  A    between atoms: C_8  and  C_9
REMARK    6  A    between atoms: C_12  and  C_13
REMARK    7  A    between atoms: C_13  and  N_14
REMARK    8  A    between atoms: C_15  and  C_17
REMARK    9  A    between atoms: C_24  and  O_25
REMARK                            x       y       z     vdW  Elec       q    Type
REMARK                         _______ _______ _______ _____ _____    ______ ____
ROOT
ATOM      1  C   UNL     1      45.618   5.052  12.445  0.00  0.00    +0.000 A 
ATOM      2  C   UNL     1      46.409   5.054  13.603  0.00  0.00    +0.000 A 
ATOM      3  C   UNL     1      47.509   5.912  13.717  0.00  0.00    +0.000 A 
ATOM      4  C   UNL     1      47.829   6.808  12.683  0.00  0.00    +0.000 A 
ATOM      5  C   UNL     1      47.027   6.810  11.533  0.00  0.00    +0.000 A 
ATOM      6  C   UNL     1      45.933   5.945  11.415  0.00  0.00    +0.000 A 
ENDROOT
BRANCH   1   7
ATOM      7  C   UNL     1      44.431   4.122  12.324  0.00  0.00    +0.000 C 
BRANCH   7   8
ATOM      8  N   UNL     1      44.713   2.926  11.529  0.00  0.00    +0.000 NA
ATOM      9  H   UNL     1      45.717   2.864  11.369  0.00  0.00    +0.000 HD
BRANCH   8  10
ATOM     10  C   UNL     1      44.043   2.937  10.226  0.00  0.00    +0.000 C 
BRANCH  10  15
ATOM     11  C   UNL     1      47.874   2.426   5.852  0.00  0.00    +0.000 C 
ATOM     12  C   UNL     1      46.904   2.575   6.986  0.00  0.00    +0.000 A 
ATOM     13  C   UNL     1      46.383   3.828   7.325  0.00  0.00    +0.000 A 
ATOM     14  C   UNL     1      45.470   3.954   8.378  0.00  0.00    +0.000 A 
ATOM     15  C   UNL     1      45.049   2.828   9.101  0.00  0.00    +0.000 A 
ATOM     16  C   UNL     1      45.591   1.580   8.768  0.00  0.00    +0.000 A 
ATOM     17  C   UNL     1      46.508   1.455   7.723  0.00  0.00    +0.000 A 
ENDBRANCH  10  15
ENDBRANCH   8  10
ENDBRANCH   7   8
ENDBRANCH   1   7
BRANCH   4  18
ATOM     18  C   UNL     1      48.991   7.772  12.797  0.00  0.00    +0.000 C 
BRANCH  18  19
ATOM     19  N   UNL     1      50.018   7.309  13.690  0.00  0.00    +0.000 N 
ATOM     20  C   UNL     1      50.061   7.648  15.013  0.00  0.00    +0.000 C 
ATOM     21  O   UNL     1      49.262   8.433  15.536  0.00  0.00    +0.000 OA
ATOM     22  H   UNL     1      50.487   6.457  13.412  0.00  0.00    +0.000 HD
BRANCH  20  23
ATOM     23  C   UNL     1      51.140   7.022  15.781  0.00  0.00    +0.000 A 
ATOM     24  C   UNL     1      52.475   7.331  15.564  0.00  0.00    +0.000 A 
ATOM     25  S   UNL     1      53.533   6.468  16.595  0.00  0.00    +0.000 S 
ATOM     26  C   UNL     1      52.235   5.676  17.353  0.00  0.00    +0.000 A 
ATOM     27  N   UNL     1      52.448   4.801  18.354  0.00  0.00    +0.000 NA
ATOM     28  C   UNL     1      51.312   4.264  18.817  0.00  0.00    +0.000 A 
ATOM     29  N   UNL     1      50.063   4.492  18.397  0.00  0.00    +0.000 NA
ATOM     30  C   UNL     1      49.925   5.365  17.408  0.00  0.00    +0.000 A 
ATOM     31  C   UNL     1      51.005   6.027  16.825  0.00  0.00    +0.000 A 
BRANCH  30  32
ATOM     32  O   UNL     1      48.638   5.528  16.995  0.00  0.00    +0.000 OA
ATOM     33  H   UNL     1      48.153   5.569  17.843  0.00  0.00    +0.000 HD
ENDBRANCH  30  32
ENDBRANCH  20  23
ENDBRANCH  18  19
ENDBRANCH   4  18
TORSDOF 8
ENDMDL
MODEL 5
REMARK VINA RESULT:    -7.266      3.425      8.582
REMARK INTER + INTRA:         -11.605
REMARK INTER:                  -9.856
REMARK INTRA:                  -1.748
REMARK UNBOUND:                -1.153
REMARK  Name = 
REMARK  9 active torsions:
REMARK  status: ('A' for Active; 'I' for Inactive)
REMARK    1  A    between atoms: C_1  and  C_2
REMARK    2  A    between atoms: C_5  and  C_6
REMARK    3  A    between atoms: C_6  and  N_7
REMARK    4  A    between atoms: N_7  and  C_8
REMARK    5  A    between atoms: C_8  and  C_9
REMARK    6  A    between atoms: C_12  and  C_13
REMARK    7  A    between atoms: C_13  and  N_14
REMARK    8  A    between atoms: C_15  and  C_17
REMARK    9  A    between atoms: C_24  and  O_25
REMARK                            x       y       z     vdW  Elec       q    Type
REMARK                         _______ _______ _______ _____ _____    ______ ____
ROOT
ATOM      1  C   UNL     1      48.658   8.029  16.245  0.00  0.00    +0.000 A 
ATOM      2  C   UNL     1      48.181   9.153  15.557  0.00  0.00    +0.000 A 
ATOM      3  C   UNL     1      48.123   9.167  14.160  0.00  0.00    +0.000 A 
ATOM      4  C   UNL     1      48.518   8.043  13.415  0.00  0.00    +0.000 A 
ATOM      5  C   UNL     1      48.982   6.916  14.108  0.00  0.00    +0.000 A 
ATOM      6  C   UNL     1      49.050   6.906  15.506  0.00  0.00    +0.000 A 
ENDROOT
BRANCH   1   7
ATOM      7  C   UNL     1      48.721   8.017  17.756  0.00  0.00    +0.000 C 
BRANCH   7   8
ATOM      8  N   UNL     1      47.426   7.757  18.387  0.00  0.00    +0.000 NA
ATOM      9  H   UNL     1      47.141   8.583  18.910  0.00  0.00    +0.000 HD
BRANCH   8  10
ATOM     10  C   UNL     1      47.459   6.621  19.311  0.00  0.00    +0.000 C 
BRANCH  10  15
ATOM     11  C   UNL     1      49.479   1.878  16.574  0.00  0.00    +0.000 C 
ATOM     12  C   UNL     1      48.968   3.086  17.299  0.00  0.00    +0.000 A 
ATOM     13  C   UNL     1      49.785   3.789  18.190  0.00  0.00    +0.000 A 
ATOM     14  C   UNL     1      49.301   4.922  18.853  0.00  0.00    +0.000 A 
ATOM     15  C   UNL     1      47.995   5.384  18.626  0.00  0.00    +0.000 A 
ATOM     16  C   UNL     1      47.176   4.662  17.747  0.00  0.00    +0.000 A 
ATOM     17  C   UNL     1      47.656   3.527  17.092  0.00  0.00    +0.000 A 
ENDBRANCH  10  15
ENDBRANCH   8  10
ENDBRANCH   7   8
ENDBRANCH   1   7
BRANCH   4  18
ATOM     18  C   UNL     1      48.430   8.018  11.903  0.00  0.00    +0.000 C 
BRANCH  18  19
ATOM     19  N   UNL     1      47.652   6.916  11.406  0.00  0.00    +0.000 N 
ATOM     20  C   UNL     1      46.286   6.925  11.371  0.00  0.00    +0.000 C 
ATOM     21  O   UNL     1      45.606   7.851  11.826  0.00  0.00    +0.000 OA
ATOM     22  H   UNL     1      48.131   6.300  10.761  0.00  0.00    +0.000 HD
BRANCH  20  23
ATOM     23  C   UNL     1      45.672   5.743  10.763  0.00  0.00    +0.000 A 
ATOM     24  C   UNL     1      45.815   5.447   9.415  0.00  0.00    +0.000 A 
ATOM     25  S   UNL     1      45.005   4.011   8.959  0.00  0.00    +0.000 S 
ATOM     26  C   UNL     1      44.458   3.752  10.547  0.00  0.00    +0.000 A 
ATOM     27  N   UNL     1      43.715   2.672  10.855  0.00  0.00    +0.000 NA
ATOM     28  C   UNL     1      43.362   2.644  12.147  0.00  0.00    +0.000 A 
ATOM     29  N   UNL     1      43.650   3.537  13.099  0.00  0.00    +0.000 NA
ATOM     30  C   UNL     1      44.386   4.577  12.726  0.00  0.00    +0.000 A 
ATOM     31  C   UNL     1      44.850   4.749  11.423  0.00  0.00    +0.000 A 
BRANCH  30  32
ATOM     32  O   UNL     1      44.615   5.473  13.725  0.00  0.00    +0.000 OA
ATOM     33  H   UNL     1      44.039   6.221  13.468  0.00  0.00    +0.000 HD
ENDBRANCH  30  32
ENDBRANCH  20  23
ENDBRANCH  18  19
ENDBRANCH   4  18
TORSDOF 8
ENDMDL
MODEL 6
REMARK VINA RESULT:    -7.216      4.569      6.601
REMARK INTER + INTRA:         -11.532
REMARK INTER:                 -10.182
REMARK INTRA:                  -1.350
REMARK UNBOUND:                -1.153
REMARK  Name = 
REMARK  9 active torsions:
REMARK  status: ('A' for Active; 'I' for Inactive)
REMARK    1  A    between atoms: C_1  and  C_2
REMARK    2  A    between atoms: C_5  and  C_6
REMARK    3  A    between atoms: C_6  and  N_7
REMARK    4  A    between atoms: N_7  and  C_8
REMARK    5  A    between atoms: C_8  and  C_9
REMARK    6  A    between atoms: C_12  and  C_13
REMARK    7  A    between atoms: C_13  and  N_14
REMARK    8  A    between atoms: C_15  and  C_17
REMARK    9  A    between atoms: C_24  and  O_25
REMARK                            x       y       z     vdW  Elec       q    Type
REMARK                         _______ _______ _______ _____ _____    ______ ____
ROOT
ATOM      1  C   UNL     1      45.246   5.435  12.224  0.00  0.00    +0.000 A 
ATOM      2  C   UNL     1      45.885   6.381  11.410  0.00  0.00    +0.000 A 
ATOM      3  C   UNL     1      47.142   6.888  11.754  0.00  0.00    +0.000 A 
ATOM      4  C   UNL     1      47.804   6.441  12.910  0.00  0.00    +0.000 A 
ATOM      5  C   UNL     1      47.166   5.486  13.713  0.00  0.00    +0.000 A 
ATOM      6  C   UNL     1      45.903   4.986  13.375  0.00  0.00    +0.000 A 
ENDROOT
BRANCH   1   7
ATOM      7  C   UNL     1      43.885   4.889  11.850  0.00  0.00    +0.000 C 
BRANCH   7   8
ATOM      8  N   UNL     1      43.776   4.528  10.436  0.00  0.00    +0.000 NA
ATOM      9  H   UNL     1      42.833   4.740  10.112  0.00  0.00    +0.000 HD
BRANCH   8  10
ATOM     10  C   UNL     1      44.034   3.108  10.189  0.00  0.00    +0.000 C 
BRANCH  10  15
ATOM     11  C   UNL     1      47.902   2.327   5.888  0.00  0.00    +0.000 C 
ATOM     12  C   UNL     1      46.924   2.545   7.002  0.00  0.00    +0.000 A 
ATOM     13  C   UNL     1      46.446   3.826   7.298  0.00  0.00    +0.000 A 
ATOM     14  C   UNL     1      45.524   4.017   8.334  0.00  0.00    +0.000 A 
ATOM     15  C   UNL     1      45.050   2.928   9.082  0.00  0.00    +0.000 A 
ATOM     16  C   UNL     1      45.549   1.652   8.793  0.00  0.00    +0.000 A 
ATOM     17  C   UNL     1      46.475   1.462   7.766  0.00  0.00    +0.000 A 
ENDBRANCH  10  15
ENDBRANCH   8  10
ENDBRANCH   7   8
ENDBRANCH   1   7
BRANCH   4  18
ATOM     18  C   UNL     1      49.182   6.946  13.285  0.00  0.00    +0.000 C 
BRANCH  18  19
ATOM     19  N   UNL     1      49.748   7.818  12.292  0.00  0.00    +0.000 N 
ATOM     20  C   UNL     1      50.728   8.728  12.574  0.00  0.00    +0.000 C 
ATOM     21  O   UNL     1      51.159   8.925  13.716  0.00  0.00    +0.000 OA
ATOM     22  H   UNL     1      49.669   7.500  11.335  0.00  0.00    +0.000 HD
BRANCH  20  23
ATOM     23  C   UNL     1      51.231   9.477  11.421  0.00  0.00    +0.000 A 
ATOM     24  C   UNL     1      50.996  10.836  11.263  0.00  0.00    +0.000 A 
ATOM     25  S   UNL     1      51.695  11.471   9.837  0.00  0.00    +0.000 S 
ATOM     26  C   UNL     1      52.331   9.955   9.409  0.00  0.00    +0.000 A 
ATOM     27  N   UNL     1      53.064   9.802   8.290  0.00  0.00    +0.000 NA
ATOM     28  C   UNL     1      53.466   8.538   8.107  0.00  0.00    +0.000 A 
ATOM     29  N   UNL     1      53.213   7.474   8.877  0.00  0.00    +0.000 NA
ATOM     30  C   UNL     1      52.485   7.695   9.964  0.00  0.00    +0.000 A 
ATOM     31  C   UNL     1      52.002   8.957  10.310  0.00  0.00    +0.000 A 
BRANCH  30  32
ATOM     32  O   UNL     1      52.225   6.572  10.689  0.00  0.00    +0.000 OA
ATOM     33  H   UNL     1      52.522   5.863  10.084  0.00  0.00    +0.000 HD
ENDBRANCH  30  32
ENDBRANCH  20  23
ENDBRANCH  18  19
ENDBRANCH   4  18
TORSDOF 8
ENDMDL
MODEL 7
REMARK VINA RESULT:    -7.013      2.364      3.214
REMARK INTER + INTRA:         -11.241
REMARK INTER:                  -9.825
REMARK INTRA:                  -1.416
REMARK UNBOUND:                -1.153
REMARK  Name = 
REMARK  9 active torsions:
REMARK  status: ('A' for Active; 'I' for Inactive)
REMARK    1  A    between atoms: C_1  and  C_2
REMARK    2  A    between atoms: C_5  and  C_6
REMARK    3  A    between atoms: C_6  and  N_7
REMARK    4  A    between atoms: N_7  and  C_8
REMARK    5  A    between atoms: C_8  and  C_9
REMARK    6  A    between atoms: C_12  and  C_13
REMARK    7  A    between atoms: C_13  and  N_14
REMARK    8  A    between atoms: C_15  and  C_17
REMARK    9  A    between atoms: C_24  and  O_25
REMARK                            x       y       z     vdW  Elec       q    Type
REMARK                         _______ _______ _______ _____ _____    ______ ____
ROOT
ATOM      1  C   UNL     1      44.738   5.159  11.766  0.00  0.00    +0.000 A 
ATOM      2  C   UNL     1      45.793   5.403  10.876  0.00  0.00    +0.000 A 
ATOM      3  C   UNL     1      46.608   6.531  11.024  0.00  0.00    +0.000 A 
ATOM      4  C   UNL     1      46.401   7.430  12.084  0.00  0.00    +0.000 A 
ATOM      5  C   UNL     1      45.352   7.173  12.978  0.00  0.00    +0.000 A 
ATOM      6  C   UNL     1      44.531   6.050  12.824  0.00  0.00    +0.000 A 
ENDROOT
BRANCH   1   7
ATOM      7  C   UNL     1      43.857   3.939  11.602  0.00  0.00    +0.000 C 
BRANCH   7   8
ATOM      8  N   UNL     1      44.573   2.776  11.073  0.00  0.00    +0.000 NA
ATOM      9  H   UNL     1      45.545   3.033  10.908  0.00  0.00    +0.000 HD
BRANCH   8  10
ATOM     10  C   UNL     1      44.010   2.284   9.814  0.00  0.00    +0.000 C 
BRANCH  10  15
ATOM     11  C   UNL     1      48.064   2.398   5.616  0.00  0.00    +0.000 C 
ATOM     12  C   UNL     1      47.014   2.348   6.685  0.00  0.00    +0.000 A 
ATOM     13  C   UNL     1      46.843   1.203   7.470  0.00  0.00    +0.000 A 
ATOM     14  C   UNL     1      45.867   1.170   8.472  0.00  0.00    +0.000 A 
ATOM     15  C   UNL     1      45.054   2.288   8.718  0.00  0.00    +0.000 A 
ATOM     16  C   UNL     1      45.218   3.423   7.914  0.00  0.00    +0.000 A 
ATOM     17  C   UNL     1      46.186   3.452   6.909  0.00  0.00    +0.000 A 
ENDBRANCH  10  15
ENDBRANCH   8  10
ENDBRANCH   7   8
ENDBRANCH   1   7
BRANCH   4  18
ATOM     18  C   UNL     1      47.292   8.637  12.290  0.00  0.00    +0.000 C 
BRANCH  18  19
ATOM     19  N   UNL     1      48.267   8.444  13.328  0.00  0.00    +0.000 N 
ATOM     20  C   UNL     1      49.494   7.887  13.101  0.00  0.00    +0.000 C 
ATOM     21  O   UNL     1      49.841   7.442  12.001  0.00  0.00    +0.000 OA
ATOM     22  H   UNL     1      48.171   9.047  14.135  0.00  0.00    +0.000 HD
BRANCH  20  23
ATOM     23  C   UNL     1      50.380   7.839  14.266  0.00  0.00    +0.000 A 
ATOM     24  C   UNL     1      51.637   8.426  14.263  0.00  0.00    +0.000 A 
ATOM     25  S   UNL     1      52.466   8.232  15.747  0.00  0.00    +0.000 S 
ATOM     26  C   UNL     1      51.166   7.371  16.423  0.00  0.00    +0.000 A 
ATOM     27  N   UNL     1      51.217   6.923  17.691  0.00  0.00    +0.000 NA
ATOM     28  C   UNL     1      50.112   6.255  18.044  0.00  0.00    +0.000 A 
ATOM     29  N   UNL     1      49.033   5.995  17.298  0.00  0.00    +0.000 NA
ATOM     30  C   UNL     1      49.049   6.465  16.058  0.00  0.00    +0.000 A 
ATOM     31  C   UNL     1      50.115   7.197  15.538  0.00  0.00    +0.000 A 
BRANCH  30  32
ATOM     32  O   UNL     1      47.944   6.137  15.333  0.00  0.00    +0.000 OA
ATOM     33  H   UNL     1      48.105   6.604  14.489  0.00  0.00    +0.000 HD
ENDBRANCH  30  32
ENDBRANCH  20  23
ENDBRANCH  18  19
ENDBRANCH   4  18
TORSDOF 8
ENDMDL
MODEL 8
REMARK VINA RESULT:    -6.975      2.277      2.836
REMARK INTER + INTRA:         -11.186
REMARK INTER:                 -10.053
REMARK INTRA:                  -1.133
REMARK UNBOUND:                -1.153
REMARK  Name = 
REMARK  9 active torsions:
REMARK  status: ('A' for Active; 'I' for Inactive)
REMARK    1  A    between atoms: C_1  and  C_2
REMARK    2  A    between atoms: C_5  and  C_6
REMARK    3  A    between atoms: C_6  and  N_7
REMARK    4  A    between atoms: N_7  and  C_8
REMARK    5  A    between atoms: C_8  and  C_9
REMARK    6  A    between atoms: C_12  and  C_13
REMARK    7  A    between atoms: C_13  and  N_14
REMARK    8  A    between atoms: C_15  and  C_17
REMARK    9  A    between atoms: C_24  and  O_25
REMARK                            x       y       z     vdW  Elec       q    Type
REMARK                         _______ _______ _______ _____ _____    ______ ____
ROOT
ATOM      1  C   UNL     1      44.907   5.225  12.409  0.00  0.00    +0.000 A 
ATOM      2  C   UNL     1      46.155   5.319  13.042  0.00  0.00    +0.000 A 
ATOM      3  C   UNL     1      46.862   6.525  13.055  0.00  0.00    +0.000 A 
ATOM      4  C   UNL     1      46.326   7.677  12.454  0.00  0.00    +0.000 A 
ATOM      5  C   UNL     1      45.072   7.581  11.834  0.00  0.00    +0.000 A 
ATOM      6  C   UNL     1      44.369   6.371  11.812  0.00  0.00    +0.000 A 
ENDROOT
BRANCH   1   7
ATOM      7  C   UNL     1      44.145   3.918  12.395  0.00  0.00    +0.000 C 
BRANCH   7   8
ATOM      8  N   UNL     1      44.729   2.918  11.500  0.00  0.00    +0.000 NA
ATOM      9  H   UNL     1      45.709   3.147  11.343  0.00  0.00    +0.000 HD
BRANCH   8  10
ATOM     10  C   UNL     1      44.060   2.857  10.198  0.00  0.00    +0.000 C 
BRANCH  10  15
ATOM     11  C   UNL     1      47.906   2.384   5.834  0.00  0.00    +0.000 C 
ATOM     12  C   UNL     1      46.933   2.524   6.965  0.00  0.00    +0.000 A 
ATOM     13  C   UNL     1      46.413   3.774   7.316  0.00  0.00    +0.000 A 
ATOM     14  C   UNL     1      45.497   3.891   8.367  0.00  0.00    +0.000 A 
ATOM     15  C   UNL     1      45.070   2.758   9.077  0.00  0.00    +0.000 A 
ATOM     16  C   UNL     1      45.611   1.512   8.732  0.00  0.00    +0.000 A 
ATOM     17  C   UNL     1      46.531   1.397   7.690  0.00  0.00    +0.000 A 
ENDBRANCH  10  15
ENDBRANCH   8  10
ENDBRANCH   7   8
ENDBRANCH   1   7
BRANCH   4  18
ATOM     18  C   UNL     1      47.054   9.005  12.487  0.00  0.00    +0.000 C 
BRANCH  18  19
ATOM     19  N   UNL     1      47.407   9.418  13.818  0.00  0.00    +0.000 N 
ATOM     20  C   UNL     1      48.686   9.372  14.296  0.00  0.00    +0.000 C 
ATOM     21  O   UNL     1      49.632   8.908  13.649  0.00  0.00    +0.000 OA
ATOM     22  H   UNL     1      46.769  10.068  14.258  0.00  0.00    +0.000 HD
BRANCH  20  23
ATOM     23  C   UNL     1      48.864   9.901  15.650  0.00  0.00    +0.000 A 
ATOM     24  C   UNL     1      49.164  11.235  15.887  0.00  0.00    +0.000 A 
ATOM     25  S   UNL     1      49.314  11.597  17.553  0.00  0.00    +0.000 S 
ATOM     26  C   UNL     1      48.973   9.990  17.988  0.00  0.00    +0.000 A 
ATOM     27  N   UNL     1      48.925   9.618  19.281  0.00  0.00    +0.000 NA
ATOM     28  C   UNL     1      48.660   8.314  19.431  0.00  0.00    +0.000 A 
ATOM     29  N   UNL     1      48.463   7.399  18.476  0.00  0.00    +0.000 NA
ATOM     30  C   UNL     1      48.525   7.833  17.224  0.00  0.00    +0.000 A 
ATOM     31  C   UNL     1      48.774   9.165  16.894  0.00  0.00    +0.000 A 
BRANCH  30  32
ATOM     32  O   UNL     1      48.356   6.853  16.294  0.00  0.00    +0.000 OA
ATOM     33  H   UNL     1      47.537   7.136  15.842  0.00  0.00    +0.000 HD
ENDBRANCH  30  32
ENDBRANCH  20  23
ENDBRANCH  18  19
ENDBRANCH   4  18
TORSDOF 8
ENDMDL
MODEL 9
REMARK VINA RESULT:    -6.969      3.055      9.072
REMARK INTER + INTRA:         -11.177
REMARK INTER:                  -9.308
REMARK INTRA:                  -1.869
REMARK UNBOUND:                -1.153
REMARK  Name = 
REMARK  9 active torsions:
REMARK  status: ('A' for Active; 'I' for Inactive)
REMARK    1  A    between atoms: C_1  and  C_2
REMARK    2  A    between atoms: C_5  and  C_6
REMARK    3  A    between atoms: C_6  and  N_7
REMARK    4  A    between atoms: N_7  and  C_8
REMARK    5  A    between atoms: C_8  and  C_9
REMARK    6  A    between atoms: C_12  and  C_13
REMARK    7  A    between atoms: C_13  and  N_14
REMARK    8  A    between atoms: C_15  and  C_17
REMARK    9  A    between atoms: C_24  and  O_25
REMARK                            x       y       z     vdW  Elec       q    Type
REMARK                         _______ _______ _______ _____ _____    ______ ____
ROOT
ATOM      1  C   UNL     1      49.103   8.388  16.129  0.00  0.00    +0.000 A 
ATOM      2  C   UNL     1      49.634   7.345  15.358  0.00  0.00    +0.000 A 
ATOM      3  C   UNL     1      49.169   7.104  14.061  0.00  0.00    +0.000 A 
ATOM      4  C   UNL     1      48.174   7.919  13.494  0.00  0.00    +0.000 A 
ATOM      5  C   UNL     1      47.654   8.968  14.265  0.00  0.00    +0.000 A 
ATOM      6  C   UNL     1      48.114   9.203  15.566  0.00  0.00    +0.000 A 
ENDROOT
BRANCH   1   7
ATOM      7  C   UNL     1      49.607   8.645  17.532  0.00  0.00    +0.000 C 
BRANCH   7   8
ATOM      8  N   UNL     1      48.654   8.251  18.570  0.00  0.00    +0.000 NA
ATOM      9  H   UNL     1      48.482   9.048  19.182  0.00  0.00    +0.000 HD
BRANCH   8  10
ATOM     10  C   UNL     1      49.135   7.139  19.394  0.00  0.00    +0.000 C 
BRANCH  10  15
ATOM     11  C   UNL     1      48.977   2.065  16.515  0.00  0.00    +0.000 C 
ATOM     12  C   UNL     1      49.007   3.380  17.234  0.00  0.00    +0.000 A 
ATOM     13  C   UNL     1      47.847   4.148  17.374  0.00  0.00    +0.000 A 
ATOM     14  C   UNL     1      47.884   5.369  18.057  0.00  0.00    +0.000 A 
ATOM     15  C   UNL     1      49.078   5.836  18.628  0.00  0.00    +0.000 A 
ATOM     16  C   UNL     1      50.239   5.069  18.467  0.00  0.00    +0.000 A 
ATOM     17  C   UNL     1      50.205   3.856  17.778  0.00  0.00    +0.000 A 
ENDBRANCH  10  15
ENDBRANCH   8  10
ENDBRANCH   7   8
ENDBRANCH   1   7
BRANCH   4  18
ATOM     18  C   UNL     1      47.679   7.702  12.079  0.00  0.00    +0.000 C 
BRANCH  18  19
ATOM     19  N   UNL     1      46.911   6.496  11.932  0.00  0.00    +0.000 N 
ATOM     20  C   UNL     1      45.545   6.478  11.945  0.00  0.00    +0.000 C 
ATOM     21  O   UNL     1      44.858   7.484  12.154  0.00  0.00    +0.000 OA
ATOM     22  H   UNL     1      47.382   5.732  11.464  0.00  0.00    +0.000 HD
BRANCH  20  23
ATOM     23  C   UNL     1      44.938   5.167  11.708  0.00  0.00    +0.000 A 
ATOM     24  C   UNL     1      44.278   4.467  12.708  0.00  0.00    +0.000 A 
ATOM     25  S   UNL     1      43.656   2.966  12.172  0.00  0.00    +0.000 S 
ATOM     26  C   UNL     1      44.244   3.224  10.599  0.00  0.00    +0.000 A 
ATOM     27  N   UNL     1      44.035   2.318   9.624  0.00  0.00    +0.000 NA
ATOM     28  C   UNL     1      44.584   2.683   8.459  0.00  0.00    +0.000 A 
ATOM     29  N   UNL     1      45.287   3.788   8.189  0.00  0.00    +0.000 NA
ATOM     30  C   UNL     1      45.455   4.637   9.194  0.00  0.00    +0.000 A 
ATOM     31  C   UNL     1      44.934   4.417  10.468  0.00  0.00    +0.000 A 
BRANCH  30  32
ATOM     32  O   UNL     1      46.211   5.723   8.874  0.00  0.00    +0.000 OA
ATOM     33  H   UNL     1      45.532   6.389   8.649  0.00  0.00    +0.000 HD
ENDBRANCH  30  32
ENDBRANCH  20  23
ENDBRANCH  18  19
ENDBRANCH   4  18
TORSDOF 8
ENDMDL
