MODEL 1
REMARK VINA RESULT:    -7.555      0.000      0.000
REMARK INTER + INTRA:         -11.979
REMARK INTER:                 -10.646
REMARK INTRA:                  -1.333
REMARK UNBOUND:                -1.333
REMARK  Name = 
REMARK  9 active torsions:
REMARK  status: ('A' for Active; 'I' for Inactive)
REMARK    1  A    between atoms: C_1  and  C_2
REMARK    2  A    between atoms: C_2  and  N_3
REMARK    3  A    between atoms: C_2  and  C_11
REMARK    4  A    between atoms: N_3  and  C_4
REMARK    5  A    between atoms: C_4  and  C_5
REMARK    6  A    between atoms: C_14  and  C_15
REMARK    7  A    between atoms: C_15  and  N_16
REMARK    8  A    between atoms: N_16  and  C_17
REMARK    9  A    between atoms: C_18  and  C_20
REMARK                            x       y       z     vdW  Elec       q    Type
REMARK                         _______ _______ _______ _____ _____    ______ ____
ROOT
ATOM      1  C   UNL     1      45.516   4.673  12.174  0.00  0.00    +0.000 A 
ATOM      2  C   UNL     1      45.890   5.822  11.455  0.00  0.00    +0.000 A 
ATOM      3  C   UNL     1      46.922   6.646  11.897  0.00  0.00    +0.000 A 
ATOM      4  C   UNL     1      47.664   6.306  13.033  0.00  0.00    +0.000 A 
ATOM      5  C   UNL     1      47.293   5.167  13.760  0.00  0.00    +0.000 A 
ATOM      6  C   UNL     1      46.221   4.368  13.345  0.00  0.00    +0.000 A 
ENDROOT
BRANCH   1   8
ATOM      7  C   UNL     1      43.261   4.752  10.977  0.00  0.00    +0.000 C 
ATOM      8  C   UNL     1      44.298   3.887  11.707  0.00  0.00    +0.000 C 
BRANCH   8   9
ATOM      9  N   UNL     1      44.665   2.766  10.825  0.00  0.00    +0.000 NA
ATOM     10  H   UNL     1      44.168   1.931  11.126  0.00  0.00    +0.000 HD
BRANCH   9  11
ATOM     11  C   UNL     1      44.336   3.017   9.420  0.00  0.00    +0.000 C 
BRANCH  11  12
ATOM     12  C   UNL     1      45.478   2.651   8.511  0.00  0.00    +0.000 A 
ATOM     13  C   UNL     1      45.907   1.324   8.411  0.00  0.00    +0.000 A 
ATOM     14  C   UNL     1      46.959   1.033   7.554  0.00  0.00    +0.000 A 
ATOM     15  N   UNL     1      47.593   1.960   6.806  0.00  0.00    +0.000 NA
ATOM     16  C   UNL     1      47.158   3.233   6.918  0.00  0.00    +0.000 A 
ATOM     17  C   UNL     1      46.116   3.625   7.743  0.00  0.00    +0.000 A 
ENDBRANCH  11  12
ENDBRANCH   9  11
ENDBRANCH   8   9
ENDBRANCH   1   8
BRANCH   4  18
ATOM     18  C   UNL     1      48.861   7.141  13.419  0.00  0.00    +0.000 C 
BRANCH  18  19
ATOM     19  N   UNL     1      48.758   7.749  14.743  0.00  0.00    +0.000 N 
ATOM     20  C   UNL     1      47.731   8.765  14.907  0.00  0.00    +0.000 C 
ATOM     21  C   UNL     1      49.566   7.227  15.763  0.00  0.00    +0.000 C 
ATOM     22  O   UNL     1      50.410   6.364  15.532  0.00  0.00    +0.000 OA
BRANCH  21  23
ATOM     23  C   UNL     1      49.351   7.665  17.149  0.00  0.00    +0.000 A 
ATOM     24  C   UNL     1      49.719   8.907  17.645  0.00  0.00    +0.000 A 
ATOM     25  S   UNL     1      49.263   9.156  19.272  0.00  0.00    +0.000 S 
ATOM     26  C   UNL     1      48.442   7.666  19.324  0.00  0.00    +0.000 A 
ATOM     27  N   UNL     1      47.736   7.293  20.426  0.00  0.00    +0.000 NA
ATOM     28  C   UNL     1      47.110   6.170  20.295  0.00  0.00    +0.000 A 
ATOM     29  N   UNL     1      47.154   5.374  19.180  0.00  0.00    +0.000 N 
ATOM     30  C   UNL     1      47.960   5.647  18.095  0.00  0.00    +0.000 A 
ATOM     31  O   UNL     1      48.150   4.805  17.225  0.00  0.00    +0.000 OA
ATOM     32  C   UNL     1      48.590   6.954  18.149  0.00  0.00    +0.000 A 
ATOM     33  H   UNL     1      46.691   4.476  19.168  0.00  0.00    +0.000 HD
ENDBRANCH  21  23
ENDBRANCH  18  19
ENDBRANCH   4  18
TORSDOF 7
ENDMDL
MODEL 2
REMARK VINA RESULT:    -6.955      1.466      2.496
REMARK INTER + INTRA:         -11.133
REMARK INTER:                  -9.748
REMARK INTRA:                  -1.385
REMARK UNBOUND:                -1.333
REMARK  Name = 
REMARK  9 active torsions:
REMARK  status: ('A' for Active; 'I' for Inactive)
REMARK    1  A    between atoms: C_1  and  C_2
REMARK    2  A    between atoms: C_2  and  N_3
REMARK    3  A    between atoms: C_2  and  C_11
REMARK    4  A    between atoms: N_3  and  C_4
REMARK    5  A    between atoms: C_4  and  C_5
REMARK    6  A    between atoms: C_14  and  C_15
REMARK    7  A    between atoms: C_15  and  N_16
REMARK    8  A    between atoms: N_16  and  C_17
REMARK    9  A    between atoms: C_18  and  C_20
REMARK                            x       y       z     vdW  Elec       q    Type
REMARK                         _______ _______ _______ _____ _____    ______ ____
ROOT
ATOM      1  C   UNL     1      45.505   4.625  12.144  0.00  0.00    +0.000 A 
ATOM      2  C   UNL     1      45.917   5.772  11.442  0.00  0.00    +0.000 A 
ATOM      3  C   UNL     1      46.965   6.564  11.904  0.00  0.00    +0.000 A 
ATOM      4  C   UNL     1      47.684   6.192  13.045  0.00  0.00    +0.000 A 
ATOM      5  C   UNL     1      47.276   5.055  13.755  0.00  0.00    +0.000 A 
ATOM      6  C   UNL     1      46.188   4.289  13.319  0.00  0.00    +0.000 A 
ENDROOT
BRANCH   1   8
ATOM      7  C   UNL     1      43.248   4.784  10.958  0.00  0.00    +0.000 C 
ATOM      8  C   UNL     1      44.272   3.877  11.655  0.00  0.00    +0.000 C 
BRANCH   8   9
ATOM      9  N   UNL     1      44.617   2.779  10.735  0.00  0.00    +0.000 NA
ATOM     10  H   UNL     1      44.072   1.956  10.981  0.00  0.00    +0.000 HD
BRANCH   9  11
ATOM     11  C   UNL     1      44.347   3.107   9.333  0.00  0.00    +0.000 C 
BRANCH  11  12
ATOM     12  C   UNL     1      45.499   2.723   8.444  0.00  0.00    +0.000 A 
ATOM     13  C   UNL     1      46.174   3.694   7.699  0.00  0.00    +0.000 A 
ATOM     14  C   UNL     1      47.235   3.292   6.899  0.00  0.00    +0.000 A 
ATOM     15  N   UNL     1      47.656   2.014   6.800  0.00  0.00    +0.000 NA
ATOM     16  C   UNL     1      46.989   1.096   7.531  0.00  0.00    +0.000 A 
ATOM     17  C   UNL     1      45.920   1.395   8.360  0.00  0.00    +0.000 A 
ENDBRANCH  11  12
ENDBRANCH   9  11
ENDBRANCH   8   9
ENDBRANCH   1   8
BRANCH   4  18
ATOM     18  C   UNL     1      48.899   6.991  13.454  0.00  0.00    +0.000 C 
BRANCH  18  19
ATOM     19  N   UNL     1      48.736   7.715  14.711  0.00  0.00    +0.000 N 
ATOM     20  C   UNL     1      47.854   8.871  14.679  0.00  0.00    +0.000 C 
ATOM     21  C   UNL     1      49.341   7.177  15.855  0.00  0.00    +0.000 C 
ATOM     22  O   UNL     1      50.073   6.191  15.788  0.00  0.00    +0.000 OA
BRANCH  21  23
ATOM     23  C   UNL     1      49.037   7.754  17.172  0.00  0.00    +0.000 A 
ATOM     24  C   UNL     1      48.188   7.176  18.104  0.00  0.00    +0.000 A 
ATOM     25  S   UNL     1      48.100   8.039  19.575  0.00  0.00    +0.000 S 
ATOM     26  C   UNL     1      49.296   9.136  19.064  0.00  0.00    +0.000 A 
ATOM     27  N   UNL     1      49.767  10.101  19.900  0.00  0.00    +0.000 NA
ATOM     28  C   UNL     1      50.719  10.814  19.398  0.00  0.00    +0.000 A 
ATOM     29  N   UNL     1      51.218  10.675  18.129  0.00  0.00    +0.000 N 
ATOM     30  C   UNL     1      50.683   9.803  17.205  0.00  0.00    +0.000 A 
ATOM     31  O   UNL     1      50.997   9.867  16.022  0.00  0.00    +0.000 OA
ATOM     32  C   UNL     1      49.690   8.901  17.760  0.00  0.00    +0.000 A 
ATOM     33  H   UNL     1      51.922  11.309  17.777  0.00  0.00    +0.000 HD
ENDBRANCH  21  23
ENDBRANCH  18  19
ENDBRANCH   4  18
TORSDOF 7
ENDMDL
MODEL 3
REMARK VINA RESULT:    -6.813      3.986      6.059
REMARK INTER + INTRA:         -10.933
REMARK INTER:                  -9.806
REMARK INTRA:                  -1.127
REMARK UNBOUND:                -1.333
REMARK  Name = 
REMARK  9 active torsions:
REMARK  status: ('A' for Active; 'I' for Inactive)
REMARK    1  A    between atoms: C_1  and  C_2
REMARK    2  A    between atoms: C_2  and  N_3
REMARK    3  A    between atoms: C_2  and  C_11
REMARK    4  A    between atoms: N_3  and  C_4
REMARK    5  A    between atoms: C_4  and  C_5
REMARK    6  A    between atoms: C_14  and  C_15
REMARK    7  A    between atoms: C_15  and  N_16
REMARK    8  A    between atoms: N_16  and  C_17
REMARK    9  A    between atoms: C_18  and  C_20
REMARK                            x       y       z     vdW  Elec       q    Type
REMARK                         _______ _______ _______ _____ _____    ______ ____
ROOT
ATOM      1  C   UNL     1      45.229   4.852  12.585  0.00  0.00    +0.000 A 
ATOM      2  C   UNL     1      46.388   4.483  13.290  0.00  0.00    +0.000 A 
ATOM      3  C   UNL     1      47.377   5.416  13.593  0.00  0.00    +0.000 A 
ATOM      4  C   UNL     1      47.203   6.765  13.265  0.00  0.00    +0.000 A 
ATOM      5  C   UNL     1      46.054   7.140  12.555  0.00  0.00    +0.000 A 
ATOM      6  C   UNL     1      45.085   6.192  12.205  0.00  0.00    +0.000 A 
ENDROOT
BRANCH   1   8
ATOM      7  C   UNL     1      43.002   4.301  11.463  0.00  0.00    +0.000 C 
ATOM      8  C   UNL     1      44.250   3.760  12.175  0.00  0.00    +0.000 C 
BRANCH   8   9
ATOM      9  N   UNL     1      44.877   2.751  11.303  0.00  0.00    +0.000 NA
ATOM     10  H   UNL     1      44.792   1.837  11.741  0.00  0.00    +0.000 HD
BRANCH   9  11
ATOM     11  C   UNL     1      44.259   2.685   9.976  0.00  0.00    +0.000 C 
BRANCH  11  12
ATOM     12  C   UNL     1      45.294   2.712   8.884  0.00  0.00    +0.000 A 
ATOM     13  C   UNL     1      45.650   3.919   8.274  0.00  0.00    +0.000 A 
ATOM     14  C   UNL     1      46.615   3.895   7.276  0.00  0.00    +0.000 A 
ATOM     15  N   UNL     1      47.233   2.771   6.861  0.00  0.00    +0.000 NA
ATOM     16  C   UNL     1      46.875   1.619   7.467  0.00  0.00    +0.000 A 
ATOM     17  C   UNL     1      45.925   1.538   8.472  0.00  0.00    +0.000 A 
ENDBRANCH  11  12
ENDBRANCH   9  11
ENDBRANCH   8   9
ENDBRANCH   1   8
BRANCH   4  18
ATOM     18  C   UNL     1      48.225   7.780  13.718  0.00  0.00    +0.000 C 
BRANCH  18  19
ATOM     19  N   UNL     1      48.820   8.549  12.629  0.00  0.00    +0.000 N 
ATOM     20  C   UNL     1      49.189   7.800  11.438  0.00  0.00    +0.000 C 
ATOM     21  C   UNL     1      48.876   9.943  12.771  0.00  0.00    +0.000 C 
ATOM     22  O   UNL     1      48.539  10.493  13.818  0.00  0.00    +0.000 OA
BRANCH  21  23
ATOM     23  C   UNL     1      49.275  10.771  11.624  0.00  0.00    +0.000 A 
ATOM     24  C   UNL     1      50.578  10.904  11.169  0.00  0.00    +0.000 A 
ATOM     25  S   UNL     1      50.717  11.867   9.766  0.00  0.00    +0.000 S 
ATOM     26  C   UNL     1      49.027  12.025   9.643  0.00  0.00    +0.000 A 
ATOM     27  N   UNL     1      48.457  12.670   8.590  0.00  0.00    +0.000 NA
ATOM     28  C   UNL     1      47.165  12.651   8.597  0.00  0.00    +0.000 A 
ATOM     29  N   UNL     1      46.395  12.079   9.575  0.00  0.00    +0.000 N 
ATOM     30  C   UNL     1      46.926  11.533  10.724  0.00  0.00    +0.000 A 
ATOM     31  O   UNL     1      46.208  11.243  11.674  0.00  0.00    +0.000 OA
ATOM     32  C   UNL     1      48.374  11.428  10.705  0.00  0.00    +0.000 A 
ATOM     33  H   UNL     1      45.388  12.155   9.551  0.00  0.00    +0.000 HD
ENDBRANCH  21  23
ENDBRANCH  18  19
ENDBRANCH   4  18
TORSDOF 7
ENDMDL
MODEL 4
REMARK VINA RESULT:    -6.796      1.806      2.395
REMARK INTER + INTRA:         -10.910
REMARK INTER:                  -9.618
REMARK INTRA:                  -1.292
REMARK UNBOUND:                -1.333
REMARK  Name = 
REMARK  9 active torsions:
REMARK  status: ('A' for Active; 'I' for Inactive)
REMARK    1  A    between atoms: C_1  and  C_2
REMARK    2  A    between atoms: C_2  and  N_3
REMARK    3  A    between atoms: C_2  and  C_11
REMARK    4  A    between atoms: N_3  and  C_4
REMARK    5  A    between atoms: C_4  and  C_5
REMARK    6  A    between atoms: C_14  and  C_15
REMARK    7  A    between atoms: C_15  and  N_16
REMARK    8  A    between atoms: N_16  and  C_17
REMARK    9  A    between atoms: C_18  and  C_20
REMARK                            x       y       z     vdW  Elec       q    Type
REMARK                         _______ _______ _______ _____ _____    ______ ____
ROOT
ATOM      1  C   UNL     1      44.513   4.423  12.504  0.00  0.00    +0.000 A 
ATOM      2  C   UNL     1      45.429   3.382  12.734  0.00  0.00    +0.000 A 
ATOM      3  C   UNL     1      46.664   3.625  13.330  0.00  0.00    +0.000 A 
ATOM      4  C   UNL     1      46.991   4.907  13.784  0.00  0.00    +0.000 A 
ATOM      5  C   UNL     1      46.087   5.953  13.552  0.00  0.00    +0.000 A 
ATOM      6  C   UNL     1      44.869   5.718  12.905  0.00  0.00    +0.000 A 
ENDROOT
BRANCH   1   8
ATOM      7  C   UNL     1      42.391   5.358  11.431  0.00  0.00    +0.000 C 
ATOM      8  C   UNL     1      43.237   4.113  11.733  0.00  0.00    +0.000 C 
BRANCH   8   9
ATOM      9  N   UNL     1      43.512   3.423  10.460  0.00  0.00    +0.000 NA
ATOM     10  H   UNL     1      42.628   3.172  10.022  0.00  0.00    +0.000 HD
BRANCH   9  11
ATOM     11  C   UNL     1      44.273   4.249   9.520  0.00  0.00    +0.000 C 
BRANCH  11  12
ATOM     12  C   UNL     1      45.228   3.420   8.704  0.00  0.00    +0.000 A 
ATOM     13  C   UNL     1      46.020   4.015   7.718  0.00  0.00    +0.000 A 
ATOM     14  C   UNL     1      46.891   3.211   6.996  0.00  0.00    +0.000 A 
ATOM     15  N   UNL     1      47.020   1.883   7.193  0.00  0.00    +0.000 NA
ATOM     16  C   UNL     1      46.246   1.332   8.152  0.00  0.00    +0.000 A 
ATOM     17  C   UNL     1      45.348   2.048   8.927  0.00  0.00    +0.000 A 
ENDBRANCH  11  12
ENDBRANCH   9  11
ENDBRANCH   8   9
ENDBRANCH   1   8
BRANCH   4  18
ATOM     18  C   UNL     1      48.278   5.122  14.545  0.00  0.00    +0.000 C 
BRANCH  18  19
ATOM     19  N   UNL     1      48.089   5.372  15.971  0.00  0.00    +0.000 N 
ATOM     20  C   UNL     1      47.373   4.349  16.715  0.00  0.00    +0.000 C 
ATOM     21  C   UNL     1      48.707   6.504  16.520  0.00  0.00    +0.000 C 
ATOM     22  O   UNL     1      49.296   7.319  15.812  0.00  0.00    +0.000 OA
BRANCH  21  23
ATOM     23  C   UNL     1      48.717   6.685  17.979  0.00  0.00    +0.000 A 
ATOM     24  C   UNL     1      47.797   7.450  18.680  0.00  0.00    +0.000 A 
ATOM     25  S   UNL     1      48.016   7.402  20.373  0.00  0.00    +0.000 S 
ATOM     26  C   UNL     1      49.262   6.251  20.231  0.00  0.00    +0.000 A 
ATOM     27  N   UNL     1      49.840   5.703  21.334  0.00  0.00    +0.000 NA
ATOM     28  C   UNL     1      50.721   4.796  21.071  0.00  0.00    +0.000 A 
ATOM     29  N   UNL     1      51.101   4.414  19.811  0.00  0.00    +0.000 N 
ATOM     30  C   UNL     1      50.641   5.034  18.669  0.00  0.00    +0.000 A 
ATOM     31  O   UNL     1      51.170   4.827  17.583  0.00  0.00    +0.000 OA
ATOM     32  C   UNL     1      49.564   5.977  18.910  0.00  0.00    +0.000 A 
ATOM     33  H   UNL     1      51.843   3.742  19.677  0.00  0.00    +0.000 HD
ENDBRANCH  21  23
ENDBRANCH  18  19
ENDBRANCH   4  18
TORSDOF 7
ENDMDL
MODEL 5
REMARK VINA RESULT:    -6.794      3.535      5.109
REMARK INTER + INTRA:         -10.907
REMARK INTER:                  -9.629
REMARK INTRA:                  -1.278
REMARK UNBOUND:                -1.333
REMARK  Name = 
REMARK  9 active torsions:
REMARK  status: ('A' for Active; 'I' for Inactive)
REMARK    1  A    between atoms: C_1  and  C_2
REMARK    2  A    between atoms: C_2  and  N_3
REMARK    3  A    between atoms: C_2  and  C_11
REMARK    4  A    between atoms: N_3  and  C_4
REMARK    5  A    between atoms: C_4  and  C_5
REMARK    6  A    between atoms: C_14  and  C_15
REMARK    7  A    between atoms: C_15  and  N_16
REMARK    8  A    between atoms: N_16  and  C_17
REMARK    9  A    between atoms: C_18  and  C_20
REMARK                            x       y       z     vdW  Elec       q    Type
REMARK                         _______ _______ _______ _____ _____    ______ ____
ROOT
ATOM      1  C   UNL     1      45.633   5.698  11.349  0.00  0.00    +0.000 A 
ATOM      2  C   UNL     1      45.093   6.990  11.227  0.00  0.00    +0.000 A 
ATOM      3  C   UNL     1      45.452   8.009  12.106  0.00  0.00    +0.000 A 
ATOM      4  C   UNL     1      46.421   7.787  13.090  0.00  0.00    +0.000 A 
ATOM      5  C   UNL     1      46.958   6.500  13.224  0.00  0.00    +0.000 A 
ATOM      6  C   UNL     1      46.557   5.462  12.375  0.00  0.00    +0.000 A 
ENDROOT
BRANCH   1   8
ATOM      7  C   UNL     1      43.652   4.202  10.747  0.00  0.00    +0.000 C 
ATOM      8  C   UNL     1      45.102   4.599  10.438  0.00  0.00    +0.000 C 
BRANCH   8   9
ATOM      9  N   UNL     1      45.185   4.969   9.015  0.00  0.00    +0.000 NA
ATOM     10  H   UNL     1      46.155   5.170   8.780  0.00  0.00    +0.000 HD
BRANCH   9  11
ATOM     11  C   UNL     1      44.706   3.910   8.123  0.00  0.00    +0.000 C 
BRANCH  11  12
ATOM     12  C   UNL     1      45.823   2.993   7.704  0.00  0.00    +0.000 A 
ATOM     13  C   UNL     1      45.889   1.686   8.195  0.00  0.00    +0.000 A 
ATOM     14  C   UNL     1      46.934   0.874   7.774  0.00  0.00    +0.000 A 
ATOM     15  N   UNL     1      47.892   1.275   6.913  0.00  0.00    +0.000 NA
ATOM     16  C   UNL     1      47.805   2.541   6.452  0.00  0.00    +0.000 A 
ATOM     17  C   UNL     1      46.802   3.427   6.810  0.00  0.00    +0.000 A 
ENDBRANCH  11  12
ENDBRANCH   9  11
ENDBRANCH   8   9
ENDBRANCH   1   8
BRANCH   4  18
ATOM     18  C   UNL     1      46.891   8.939  13.946  0.00  0.00    +0.000 C 
BRANCH  18  19
ATOM     19  N   UNL     1      48.289   9.302  13.735  0.00  0.00    +0.000 N 
ATOM     20  C   UNL     1      49.249   8.740  14.671  0.00  0.00    +0.000 C 
ATOM     21  C   UNL     1      48.600  10.056  12.595  0.00  0.00    +0.000 C 
ATOM     22  O   UNL     1      47.719  10.491  11.855  0.00  0.00    +0.000 OA
BRANCH  21  23
ATOM     23  C   UNL     1      50.008  10.270  12.233  0.00  0.00    +0.000 A 
ATOM     24  C   UNL     1      50.723  11.425  12.514  0.00  0.00    +0.000 A 
ATOM     25  S   UNL     1      52.363  11.345  12.043  0.00  0.00    +0.000 S 
ATOM     26  C   UNL     1      52.203   9.717  11.573  0.00  0.00    +0.000 A 
ATOM     27  N   UNL     1      53.279   9.000  11.150  0.00  0.00    +0.000 NA
ATOM     28  C   UNL     1      53.019   7.762  10.892  0.00  0.00    +0.000 A 
ATOM     29  N   UNL     1      51.779   7.186  10.985  0.00  0.00    +0.000 N 
ATOM     30  C   UNL     1      50.639   7.904  11.280  0.00  0.00    +0.000 A 
ATOM     31  O   UNL     1      49.527   7.411  11.128  0.00  0.00    +0.000 OA
ATOM     32  C   UNL     1      50.900   9.272  11.690  0.00  0.00    +0.000 A 
ATOM     33  H   UNL     1      51.632   6.226  10.707  0.00  0.00    +0.000 HD
ENDBRANCH  21  23
ENDBRANCH  18  19
ENDBRANCH   4  18
TORSDOF 7
ENDMDL
MODEL 6
REMARK VINA RESULT:    -6.486      1.665      1.975
REMARK INTER + INTRA:         -10.473
REMARK INTER:                  -9.216
REMARK INTRA:                  -1.257
REMARK UNBOUND:                -1.333
REMARK  Name = 
REMARK  9 active torsions:
REMARK  status: ('A' for Active; 'I' for Inactive)
REMARK    1  A    between atoms: C_1  and  C_2
REMARK    2  A    between atoms: C_2  and  N_3
REMARK    3  A    between atoms: C_2  and  C_11
REMARK    4  A    between atoms: N_3  and  C_4
REMARK    5  A    between atoms: C_4  and  C_5
REMARK    6  A    between atoms: C_14  and  C_15
REMARK    7  A    between atoms: C_15  and  N_16
REMARK    8  A    between atoms: N_16  and  C_17
REMARK    9  A    between atoms: C_18  and  C_20
REMARK                            x       y       z     vdW  Elec       q    Type
REMARK                         _______ _______ _______ _____ _____    ______ ____
ROOT
ATOM      1  C   UNL     1      45.147   5.688  12.608  0.00  0.00    +0.000 A 
ATOM      2  C   UNL     1      46.461   5.308  12.933  0.00  0.00    +0.000 A 
ATOM      3  C   UNL     1      47.477   6.253  13.054  0.00  0.00    +0.000 A 
ATOM      4  C   UNL     1      47.194   7.617  12.927  0.00  0.00    +0.000 A 
ATOM      5  C   UNL     1      45.888   8.004  12.596  0.00  0.00    +0.000 A 
ATOM      6  C   UNL     1      44.879   7.050  12.422  0.00  0.00    +0.000 A 
ENDROOT
BRANCH   1   8
ATOM      7  C   UNL     1      42.783   5.131  11.816  0.00  0.00    +0.000 C 
ATOM      8  C   UNL     1      44.113   4.596  12.365  0.00  0.00    +0.000 C 
BRANCH   8   9
ATOM      9  N   UNL     1      44.608   3.558  11.443  0.00  0.00    +0.000 NA
ATOM     10  H   UNL     1      44.322   2.645  11.788  0.00  0.00    +0.000 HD
BRANCH   9  11
ATOM     11  C   UNL     1      44.095   3.718  10.080  0.00  0.00    +0.000 C 
BRANCH  11  12
ATOM     12  C   UNL     1      45.103   3.272   9.055  0.00  0.00    +0.000 A 
ATOM     13  C   UNL     1      45.432   1.919   8.926  0.00  0.00    +0.000 A 
ATOM     14  C   UNL     1      46.361   1.555   7.962  0.00  0.00    +0.000 A 
ATOM     15  N   UNL     1      46.966   2.433   7.136  0.00  0.00    +0.000 NA
ATOM     16  C   UNL     1      46.630   3.733   7.278  0.00  0.00    +0.000 A 
ATOM     17  C   UNL     1      45.714   4.197   8.209  0.00  0.00    +0.000 A 
ENDBRANCH  11  12
ENDBRANCH   9  11
ENDBRANCH   8   9
ENDBRANCH   1   8
BRANCH   4  18
ATOM     18  C   UNL     1      48.281   8.631  13.192  0.00  0.00    +0.000 C 
BRANCH  18  19
ATOM     19  N   UNL     1      49.165   8.279  14.300  0.00  0.00    +0.000 N 
ATOM     20  C   UNL     1      50.488   7.795  13.940  0.00  0.00    +0.000 C 
ATOM     21  C   UNL     1      48.714   8.543  15.600  0.00  0.00    +0.000 C 
ATOM     22  O   UNL     1      47.575   8.955  15.812  0.00  0.00    +0.000 OA
BRANCH  21  23
ATOM     23  C   UNL     1      49.643   8.397  16.730  0.00  0.00    +0.000 A 
ATOM     24  C   UNL     1      50.285   9.454  17.358  0.00  0.00    +0.000 A 
ATOM     25  S   UNL     1      51.237   8.978  18.694  0.00  0.00    +0.000 S 
ATOM     26  C   UNL     1      50.715   7.364  18.558  0.00  0.00    +0.000 A 
ATOM     27  N   UNL     1      51.092   6.425  19.468  0.00  0.00    +0.000 NA
ATOM     28  C   UNL     1      50.563   5.262  19.275  0.00  0.00    +0.000 A 
ATOM     29  N   UNL     1      49.724   4.945  18.239  0.00  0.00    +0.000 N 
ATOM     30  C   UNL     1      49.423   5.825  17.222  0.00  0.00    +0.000 A 
ATOM     31  O   UNL     1      48.864   5.441  16.201  0.00  0.00    +0.000 OA
ATOM     32  C   UNL     1      49.899   7.176  17.458  0.00  0.00    +0.000 A 
ATOM     33  H   UNL     1      49.396   3.998  18.111  0.00  0.00    +0.000 HD
ENDBRANCH  21  23
ENDBRANCH  18  19
ENDBRANCH   4  18
TORSDOF 7
ENDMDL
MODEL 7
REMARK VINA RESULT:    -6.434      3.686      5.222
REMARK INTER + INTRA:         -10.399
REMARK INTER:                  -9.178
REMARK INTRA:                  -1.222
REMARK UNBOUND:                -1.333
REMARK  Name = 
REMARK  9 active torsions:
REMARK  status: ('A' for Active; 'I' for Inactive)
REMARK    1  A    between atoms: C_1  and  C_2
REMARK    2  A    between atoms: C_2  and  N_3
REMARK    3  A    between atoms: C_2  and  C_11
REMARK    4  A    between atoms: N_3  and  C_4
REMARK    5  A    between atoms: C_4  and  C_5
REMARK    6  A    between atoms: C_14  and  C_15
REMARK    7  A    between atoms: C_15  and  N_16
REMARK    8  A    between atoms: N_16  and  C_17
REMARK    9  A    between atoms: C_18  and  C_20
REMARK                            x       y       z     vdW  Elec       q    Type
REMARK                         _______ _______ _______ _____ _____    ______ ____
ROOT
ATOM      1  C   UNL     1      45.145   4.811  12.433  0.00  0.00    +0.000 A 
ATOM      2  C   UNL     1      44.810   6.122  12.054  0.00  0.00    +0.000 A 
ATOM      3  C   UNL     1      45.553   7.214  12.496  0.00  0.00    +0.000 A 
ATOM      4  C   UNL     1      46.701   7.023  13.272  0.00  0.00    +0.000 A 
ATOM      5  C   UNL     1      47.037   5.719  13.662  0.00  0.00    +0.000 A 
ATOM      6  C   UNL     1      46.259   4.627  13.261  0.00  0.00    +0.000 A 
ENDROOT
BRANCH   1   8
ATOM      7  C   UNL     1      42.898   4.161  11.407  0.00  0.00    +0.000 C 
ATOM      8  C   UNL     1      44.217   3.675  12.022  0.00  0.00    +0.000 C 
BRANCH   8   9
ATOM      9  N   UNL     1      44.858   2.754  11.067  0.00  0.00    +0.000 NA
ATOM     10  H   UNL     1      44.695   1.796  11.370  0.00  0.00    +0.000 HD
BRANCH   9  11
ATOM     11  C   UNL     1      44.342   2.900   9.704  0.00  0.00    +0.000 C 
BRANCH  11  12
ATOM     12  C   UNL     1      45.437   2.758   8.681  0.00  0.00    +0.000 A 
ATOM     13  C   UNL     1      45.997   1.506   8.410  0.00  0.00    +0.000 A 
ATOM     14  C   UNL     1      46.999   1.424   7.453  0.00  0.00    +0.000 A 
ATOM     15  N   UNL     1      47.464   2.486   6.764  0.00  0.00    +0.000 NA
ATOM     16  C   UNL     1      46.906   3.684   7.042  0.00  0.00    +0.000 A 
ATOM     17  C   UNL     1      45.901   3.870   7.977  0.00  0.00    +0.000 A 
ENDBRANCH  11  12
ENDBRANCH   9  11
ENDBRANCH   8   9
ENDBRANCH   1   8
BRANCH   4  18
ATOM     18  C   UNL     1      47.565   8.208  13.630  0.00  0.00    +0.000 C 
BRANCH  18  19
ATOM     19  N   UNL     1      48.619   8.488  12.661  0.00  0.00    +0.000 N 
ATOM     20  C   UNL     1      48.287   9.424  11.599  0.00  0.00    +0.000 C 
ATOM     21  C   UNL     1      49.884   7.931  12.896  0.00  0.00    +0.000 C 
ATOM     22  O   UNL     1      50.075   7.147  13.824  0.00  0.00    +0.000 OA
BRANCH  21  23
ATOM     23  C   UNL     1      51.023   8.348  12.066  0.00  0.00    +0.000 A 
ATOM     24  C   UNL     1      51.408   7.720  10.891  0.00  0.00    +0.000 A 
ATOM     25  S   UNL     1      52.717   8.484  10.105  0.00  0.00    +0.000 S 
ATOM     26  C   UNL     1      52.723   9.755  11.237  0.00  0.00    +0.000 A 
ATOM     27  N   UNL     1      53.561  10.818  11.094  0.00  0.00    +0.000 NA
ATOM     28  C   UNL     1      53.405  11.735  11.990  0.00  0.00    +0.000 A 
ATOM     29  N   UNL     1      52.517  11.670  13.032  0.00  0.00    +0.000 N 
ATOM     30  C   UNL     1      51.746  10.558  13.291  0.00  0.00    +0.000 A 
ATOM     31  O   UNL     1      51.141  10.443  14.351  0.00  0.00    +0.000 OA
ATOM     32  C   UNL     1      51.802   9.551  12.246  0.00  0.00    +0.000 A 
ATOM     33  H   UNL     1      52.491  12.396  13.734  0.00  0.00    +0.000 HD
ENDBRANCH  21  23
ENDBRANCH  18  19
ENDBRANCH   4  18
TORSDOF 7
ENDMDL
MODEL 8
REMARK VINA RESULT:    -6.370      3.441      7.709
REMARK INTER + INTRA:         -10.309
REMARK INTER:                  -8.525
REMARK INTRA:                  -1.784
REMARK UNBOUND:                -1.333
REMARK  Name = 
REMARK  9 active torsions:
REMARK  status: ('A' for Active; 'I' for Inactive)
REMARK    1  A    between atoms: C_1  and  C_2
REMARK    2  A    between atoms: C_2  and  N_3
REMARK    3  A    between atoms: C_2  and  C_11
REMARK    4  A    between atoms: N_3  and  C_4
REMARK    5  A    between atoms: C_4  and  C_5
REMARK    6  A    between atoms: C_14  and  C_15
REMARK    7  A    between atoms: C_15  and  N_16
REMARK    8  A    between atoms: N_16  and  C_17
REMARK    9  A    between atoms: C_18  and  C_20
REMARK                            x       y       z     vdW  Elec       q    Type
REMARK                         _______ _______ _______ _____ _____    ______ ____
ROOT
ATOM      1  C   UNL     1      50.190   7.490  17.624  0.00  0.00    +0.000 A 
ATOM      2  C   UNL     1      49.385   8.620  17.396  0.00  0.00    +0.000 A 
ATOM      3  C   UNL     1      49.210   9.134  16.113  0.00  0.00    +0.000 A 
ATOM      4  C   UNL     1      49.775   8.489  15.008  0.00  0.00    +0.000 A 
ATOM      5  C   UNL     1      50.585   7.367  15.227  0.00  0.00    +0.000 A 
ATOM      6  C   UNL     1      50.804   6.882  16.522  0.00  0.00    +0.000 A 
ENDROOT
BRANCH   1   8
ATOM      7  C   UNL     1      49.335   7.490  20.031  0.00  0.00    +0.000 C 
ATOM      8  C   UNL     1      50.443   7.057  19.062  0.00  0.00    +0.000 C 
BRANCH   8   9
ATOM      9  N   UNL     1      50.615   5.598  19.180  0.00  0.00    +0.000 NA
ATOM     10  H   UNL     1      51.045   5.387  20.078  0.00  0.00    +0.000 HD
BRANCH   9  11
ATOM     11  C   UNL     1      49.348   4.869  19.093  0.00  0.00    +0.000 C 
BRANCH  11  12
ATOM     12  C   UNL     1      49.427   3.741  18.100  0.00  0.00    +0.000 A 
ATOM     13  C   UNL     1      48.281   3.307  17.426  0.00  0.00    +0.000 A 
ATOM     14  C   UNL     1      48.405   2.269  16.514  0.00  0.00    +0.000 A 
ATOM     15  N   UNL     1      49.572   1.653  16.236  0.00  0.00    +0.000 NA
ATOM     16  C   UNL     1      50.665   2.091  16.897  0.00  0.00    +0.000 A 
ATOM     17  C   UNL     1      50.646   3.121  17.824  0.00  0.00    +0.000 A 
ENDBRANCH  11  12
ENDBRANCH   9  11
ENDBRANCH   8   9
ENDBRANCH   1   8
BRANCH   4  18
ATOM     18  C   UNL     1      49.465   8.986  13.616  0.00  0.00    +0.000 C 
BRANCH  18  19
ATOM     19  N   UNL     1      48.542   8.133  12.874  0.00  0.00    +0.000 N 
ATOM     20  C   UNL     1      49.139   7.228  11.905  0.00  0.00    +0.000 C 
ATOM     21  C   UNL     1      47.188   8.171  13.234  0.00  0.00    +0.000 C 
ATOM     22  O   UNL     1      46.770   8.972  14.069  0.00  0.00    +0.000 OA
BRANCH  21  23
ATOM     23  C   UNL     1      46.259   7.187  12.659  0.00  0.00    +0.000 A 
ATOM     24  C   UNL     1      45.364   7.459  11.635  0.00  0.00    +0.000 A 
ATOM     25  S   UNL     1      44.477   6.093  11.123  0.00  0.00    +0.000 S 
ATOM     26  C   UNL     1      45.355   5.068  12.159  0.00  0.00    +0.000 A 
ATOM     27  N   UNL     1      45.154   3.723  12.152  0.00  0.00    +0.000 NA
ATOM     28  C   UNL     1      45.939   3.068  12.941  0.00  0.00    +0.000 A 
ATOM     29  N   UNL     1      46.880   3.637  13.759  0.00  0.00    +0.000 N 
ATOM     30  C   UNL     1      47.027   5.001  13.897  0.00  0.00    +0.000 A 
ATOM     31  O   UNL     1      47.710   5.472  14.800  0.00  0.00    +0.000 OA
ATOM     32  C   UNL     1      46.248   5.772  12.946  0.00  0.00    +0.000 A 
ATOM     33  H   UNL     1      47.420   3.071  14.399  0.00  0.00    +0.000 HD
ENDBRANCH  21  23
ENDBRANCH  18  19
ENDBRANCH   4  18
TORSDOF 7
ENDMDL
MODEL 9
REMARK VINA RESULT:    -6.355      3.676      5.806
REMARK INTER + INTRA:         -10.288
REMARK INTER:                  -9.344
REMARK INTRA:                  -0.944
REMARK UNBOUND:                -1.333
REMARK  Name = 
REMARK  9 active torsions:
REMARK  status: ('A' for Active; 'I' for Inactive)
REMARK    1  A    between atoms: C_1  and  C_2
REMARK    2  A    between atoms: C_2  and  N_3
REMARK    3  A    between atoms: C_2  and  C_11
REMARK    4  A    between atoms: N_3  and  C_4
REMARK    5  A    between atoms: C_4  and  C_5
REMARK    6  A    between atoms: C_14  and  C_15
REMARK    7  A    between atoms: C_15  and  N_16
REMARK    8  A    between atoms: N_16  and  C_17
REMARK    9  A    between atoms: C_18  and  C_20
REMARK                            x       y       z     vdW  Elec       q    Type
REMARK                         _______ _______ _______ _____ _____    ______ ____
ROOT
ATOM      1  C   UNL     1      45.241   4.786  12.667  0.00  0.00    +0.000 A 
ATOM      2  C   UNL     1      45.028   6.156  12.435  0.00  0.00    +0.000 A 
ATOM      3  C   UNL     1      45.946   7.112  12.862  0.00  0.00    +0.000 A 
ATOM      4  C   UNL     1      47.145   6.723  13.468  0.00  0.00    +0.000 A 
ATOM      5  C   UNL     1      47.362   5.359  13.711  0.00  0.00    +0.000 A 
ATOM      6  C   UNL     1      46.414   4.403  13.329  0.00  0.00    +0.000 A 
ENDROOT
BRANCH   1   8
ATOM      7  C   UNL     1      42.901   4.483  11.688  0.00  0.00    +0.000 C 
ATOM      8  C   UNL     1      44.139   3.805  12.290  0.00  0.00    +0.000 C 
BRANCH   8   9
ATOM      9  N   UNL     1      44.610   2.779  11.343  0.00  0.00    +0.000 NA
ATOM     10  H   UNL     1      44.322   1.862  11.677  0.00  0.00    +0.000 HD
BRANCH   9  11
ATOM     11  C   UNL     1      44.074   2.966   9.992  0.00  0.00    +0.000 C 
BRANCH  11  12
ATOM     12  C   UNL     1      45.159   2.890   8.952  0.00  0.00    +0.000 A 
ATOM     13  C   UNL     1      45.611   4.049   8.313  0.00  0.00    +0.000 A 
ATOM     14  C   UNL     1      46.620   3.930   7.367  0.00  0.00    +0.000 A 
ATOM     15  N   UNL     1      47.193   2.758   7.028  0.00  0.00    +0.000 NA
ATOM     16  C   UNL     1      46.742   1.654   7.661  0.00  0.00    +0.000 A 
ATOM     17  C   UNL     1      45.742   1.667   8.620  0.00  0.00    +0.000 A 
ENDBRANCH  11  12
ENDBRANCH   9  11
ENDBRANCH   8   9
ENDBRANCH   1   8
BRANCH   4  18
ATOM     18  C   UNL     1      48.184   7.765  13.804  0.00  0.00    +0.000 C 
BRANCH  18  19
ATOM     19  N   UNL     1      49.169   7.982  12.748  0.00  0.00    +0.000 N 
ATOM     20  C   UNL     1      48.784   7.559  11.412  0.00  0.00    +0.000 C 
ATOM     21  C   UNL     1      50.339   8.678  13.083  0.00  0.00    +0.000 C 
ATOM     22  O   UNL     1      50.582   9.000  14.245  0.00  0.00    +0.000 OA
BRANCH  21  23
ATOM     23  C   UNL     1      51.260   9.098  12.017  0.00  0.00    +0.000 A 
ATOM     24  C   UNL     1      52.418   8.419  11.670  0.00  0.00    +0.000 A 
ATOM     25  S   UNL     1      53.237   9.104  10.337  0.00  0.00    +0.000 S 
ATOM     26  C   UNL     1      52.000  10.247  10.097  0.00  0.00    +0.000 A 
ATOM     27  N   UNL     1      52.032  11.105   9.041  0.00  0.00    +0.000 NA
ATOM     28  C   UNL     1      50.994  11.867   8.950  0.00  0.00    +0.000 A 
ATOM     29  N   UNL     1      49.947  11.875   9.834  0.00  0.00    +0.000 N 
ATOM     30  C   UNL     1      49.935  11.120  10.987  0.00  0.00    +0.000 A 
ATOM     31  O   UNL     1      49.101  11.322  11.863  0.00  0.00    +0.000 OA
ATOM     32  C   UNL     1      51.024  10.164  11.072  0.00  0.00    +0.000 A 
ATOM     33  H   UNL     1      49.195  12.542   9.739  0.00  0.00    +0.000 HD
ENDBRANCH  21  23
ENDBRANCH  18  19
ENDBRANCH   4  18
TORSDOF 7
ENDMDL
