MODEL 1
REMARK VINA RESULT:    -9.144      0.000      0.000
REMARK INTER + INTRA:         -12.520
REMARK INTER:                 -12.886
REMARK INTRA:                   0.366
REMARK UNBOUND:                 0.366
REMARK  Name = 
REMARK  8 active torsions:
REMARK  status: ('A' for Active; 'I' for Inactive)
REMARK    1  A    between atoms: C_1  and  S_2
REMARK    2  A    between atoms: S_2  and  N_5
REMARK    3  A    between atoms: N_5  and  C_6
REMARK    4  A    between atoms: C_10  and  O_11
REMARK    5  A    between atoms: O_11  and  C_12
REMARK    6  A    between atoms: C_15  and  C_16
REMARK    7  A    between atoms: C_16  and  N_17
REMARK    8  A    between atoms: C_18  and  C_20
REMARK                            x       y       z     vdW  Elec       q    Type
REMARK                         _______ _______ _______ _____ _____    ______ ____
ROOT
ATOM      1  C   UNL     1      45.347   4.384   8.816  0.00  0.00    +0.000 A 
ATOM      2  C   UNL     1      44.400   3.516   9.325  0.00  0.00    +0.000 A 
ATOM      3  C   UNL     1      43.992   3.685  10.646  0.00  0.00    +0.000 A 
ATOM      4  C   UNL     1      44.560   4.704  11.398  0.00  0.00    +0.000 A 
ATOM      5  N   UNL     1      45.469   5.549  10.857  0.00  0.00    +0.000 NA
ATOM      6  N   UNL     1      45.851   5.399   9.551  0.00  0.00    +0.000 NA
ENDROOT
BRANCH   1   7
ATOM      7  O   UNL     1      45.745   4.203   7.494  0.00  0.00    +0.000 OA
BRANCH   7  12
ATOM      8  C   UNL     1      47.102   1.558   5.368  0.00  0.00    +0.000 A 
ATOM      9  C   UNL     1      47.306   0.524   6.282  0.00  0.00    +0.000 A 
ATOM     10  C   UNL     1      46.946   0.702   7.620  0.00  0.00    +0.000 A 
ATOM     11  C   UNL     1      46.396   1.914   8.040  0.00  0.00    +0.000 A 
ATOM     12  C   UNL     1      46.252   2.971   7.137  0.00  0.00    +0.000 A 
ATOM     13  C   UNL     1      46.569   2.778   5.789  0.00  0.00    +0.000 A 
BRANCH   8  14
ATOM     14  N   UNL     1      47.432   1.390   3.990  0.00  0.00    +0.000 N 
ATOM     15  H   UNL     1      48.411   1.545   3.746  0.00  0.00    +0.000 HD
BRANCH  14  17
ATOM     16  C   UNL     1      45.347   0.637   2.480  0.00  0.00    +0.000 C 
ATOM     17  S   UNL     1      46.854   0.013   3.194  0.00  0.00    +0.000 S 
ATOM     18  O   UNL     1      46.531  -1.027   4.147  0.00  0.00    +0.000 OA
ATOM     19  O   UNL     1      47.781  -0.226   2.111  0.00  0.00    +0.000 OA
ENDBRANCH  14  17
ENDBRANCH   8  14
ENDBRANCH   7  12
ENDBRANCH   1   7
BRANCH   4  20
ATOM     20  C   UNL     1      44.167   4.949  12.830  0.00  0.00    +0.000 C 
BRANCH  20  21
ATOM     21  N   UNL     1      45.276   5.423  13.623  0.00  0.00    +0.000 N 
ATOM     22  C   UNL     1      46.308   4.622  14.029  0.00  0.00    +0.000 C 
ATOM     23  O   UNL     1      46.364   3.431  13.736  0.00  0.00    +0.000 OA
ATOM     24  H   UNL     1      45.131   6.319  14.080  0.00  0.00    +0.000 HD
BRANCH  22  25
ATOM     25  C   UNL     1      47.384   5.289  14.777  0.00  0.00    +0.000 A 
ATOM     26  C   UNL     1      48.102   6.321  14.188  0.00  0.00    +0.000 A 
ATOM     27  S   UNL     1      49.268   7.018  15.221  0.00  0.00    +0.000 S 
ATOM     28  C   UNL     1      48.887   5.931  16.476  0.00  0.00    +0.000 A 
ATOM     29  N   UNL     1      49.550   5.971  17.664  0.00  0.00    +0.000 NA
ATOM     30  C   UNL     1      49.181   5.070  18.509  0.00  0.00    +0.000 A 
ATOM     31  N   UNL     1      48.202   4.138  18.282  0.00  0.00    +0.000 N 
ATOM     32  C   UNL     1      47.470   4.094  17.119  0.00  0.00    +0.000 A 
ATOM     33  O   UNL     1      46.545   3.304  16.981  0.00  0.00    +0.000 OA
ATOM     34  C   UNL     1      47.868   5.068  16.119  0.00  0.00    +0.000 A 
ATOM     35  H   UNL     1      47.943   3.469  18.993  0.00  0.00    +0.000 HD
ENDBRANCH  22  25
ENDBRANCH  20  21
ENDBRANCH   4  20
TORSDOF 7
ENDMDL
MODEL 2
REMARK VINA RESULT:    -8.360      3.830     10.209
REMARK INTER + INTRA:         -11.415
REMARK INTER:                 -10.664
REMARK INTRA:                  -0.752
REMARK UNBOUND:                 0.366
REMARK  Name = 
REMARK  8 active torsions:
REMARK  status: ('A' for Active; 'I' for Inactive)
REMARK    1  A    between atoms: C_1  and  S_2
REMARK    2  A    between atoms: S_2  and  N_5
REMARK    3  A    between atoms: N_5  and  C_6
REMARK    4  A    between atoms: C_10  and  O_11
REMARK    5  A    between atoms: O_11  and  C_12
REMARK    6  A    between atoms: C_15  and  C_16
REMARK    7  A    between atoms: C_16  and  N_17
REMARK    8  A    between atoms: C_18  and  C_20
REMARK                            x       y       z     vdW  Elec       q    Type
REMARK                         _______ _______ _______ _____ _____    ______ ____
ROOT
ATOM      1  C   UNL     1      49.562   8.093  15.632  0.00  0.00    +0.000 A 
ATOM      2  C   UNL     1      48.658   9.064  15.246  0.00  0.00    +0.000 A 
ATOM      3  C   UNL     1      48.084   8.966  13.980  0.00  0.00    +0.000 A 
ATOM      4  C   UNL     1      48.454   7.912  13.156  0.00  0.00    +0.000 A 
ATOM      5  N   UNL     1      49.328   6.968  13.578  0.00  0.00    +0.000 NA
ATOM      6  N   UNL     1      49.871   7.050  14.831  0.00  0.00    +0.000 NA
ENDROOT
BRANCH   1   7
ATOM      7  O   UNL     1      50.127   8.204  16.899  0.00  0.00    +0.000 OA
BRANCH   7  12
ATOM      8  C   UNL     1      48.002   5.727  18.545  0.00  0.00    +0.000 A 
ATOM      9  C   UNL     1      48.516   5.718  19.842  0.00  0.00    +0.000 A 
ATOM     10  C   UNL     1      49.560   6.582  20.179  0.00  0.00    +0.000 A 
ATOM     11  C   UNL     1      50.093   7.441  19.218  0.00  0.00    +0.000 A 
ATOM     12  C   UNL     1      49.622   7.404  17.902  0.00  0.00    +0.000 A 
ATOM     13  C   UNL     1      48.547   6.572  17.576  0.00  0.00    +0.000 A 
BRANCH   8  14
ATOM     14  N   UNL     1      46.915   4.877  18.184  0.00  0.00    +0.000 N 
ATOM     15  H   UNL     1      46.055   5.351  17.903  0.00  0.00    +0.000 HD
BRANCH  14  17
ATOM     16  C   UNL     1      48.962   3.318  17.426  0.00  0.00    +0.000 C 
ATOM     17  S   UNL     1      47.227   3.586  17.134  0.00  0.00    +0.000 S 
ATOM     18  O   UNL     1      47.035   3.993  15.759  0.00  0.00    +0.000 OA
ATOM     19  O   UNL     1      46.514   2.457  17.688  0.00  0.00    +0.000 OA
ENDBRANCH  14  17
ENDBRANCH   8  14
ENDBRANCH   7  12
ENDBRANCH   1   7
BRANCH   4  20
ATOM     20  C   UNL     1      47.875   7.741  11.777  0.00  0.00    +0.000 C 
BRANCH  20  21
ATOM     21  N   UNL     1      47.086   6.537  11.666  0.00  0.00    +0.000 N 
ATOM     22  C   UNL     1      45.726   6.512  11.809  0.00  0.00    +0.000 C 
ATOM     23  O   UNL     1      45.075   7.528  12.038  0.00  0.00    +0.000 OA
ATOM     24  H   UNL     1      47.609   5.668  11.727  0.00  0.00    +0.000 HD
BRANCH  22  25
ATOM     25  C   UNL     1      45.081   5.208  11.600  0.00  0.00    +0.000 A 
ATOM     26  C   UNL     1      44.397   4.597  12.643  0.00  0.00    +0.000 A 
ATOM     27  S   UNL     1      43.662   3.121  12.205  0.00  0.00    +0.000 S 
ATOM     28  C   UNL     1      44.274   3.222  10.619  0.00  0.00    +0.000 A 
ATOM     29  N   UNL     1      44.026   2.242   9.708  0.00  0.00    +0.000 NA
ATOM     30  C   UNL     1      44.579   2.433   8.558  0.00  0.00    +0.000 A 
ATOM     31  N   UNL     1      45.348   3.519   8.230  0.00  0.00    +0.000 N 
ATOM     32  C   UNL     1      45.580   4.558   9.100  0.00  0.00    +0.000 A 
ATOM     33  O   UNL     1      46.199   5.554   8.749  0.00  0.00    +0.000 OA
ATOM     34  C   UNL     1      45.006   4.378  10.422  0.00  0.00    +0.000 A 
ATOM     35  H   UNL     1      45.737   3.622   7.304  0.00  0.00    +0.000 HD
ENDBRANCH  22  25
ENDBRANCH  20  21
ENDBRANCH   4  20
TORSDOF 7
ENDMDL
MODEL 3
REMARK VINA RESULT:    -7.932      1.614      2.475
REMARK INTER + INTRA:         -10.812
REMARK INTER:                 -11.402
REMARK INTRA:                   0.590
REMARK UNBOUND:                 0.366
REMARK  Name = 
REMARK  8 active torsions:
REMARK  status: ('A' for Active; 'I' for Inactive)
REMARK    1  A    between atoms: C_1  and  S_2
REMARK    2  A    between atoms: S_2  and  N_5
REMARK    3  A    between atoms: N_5  and  C_6
REMARK    4  A    between atoms: C_10  and  O_11
REMARK    5  A    between atoms: O_11  and  C_12
REMARK    6  A    between atoms: C_15  and  C_16
REMARK    7  A    between atoms: C_16  and  N_17
REMARK    8  A    between atoms: C_18  and  C_20
REMARK                            x       y       z     vdW  Elec       q    Type
REMARK                         _______ _______ _______ _____ _____    ______ ____
ROOT
ATOM      1  C   UNL     1      45.251   4.316   8.813  0.00  0.00    +0.000 A 
ATOM      2  C   UNL     1      44.358   3.443   9.406  0.00  0.00    +0.000 A 
ATOM      3  C   UNL     1      44.008   3.660  10.737  0.00  0.00    +0.000 A 
ATOM      4  C   UNL     1      44.579   4.728  11.415  0.00  0.00    +0.000 A 
ATOM      5  N   UNL     1      45.433   5.575  10.793  0.00  0.00    +0.000 NA
ATOM      6  N   UNL     1      45.756   5.377   9.478  0.00  0.00    +0.000 NA
ENDROOT
BRANCH   1   7
ATOM      7  O   UNL     1      45.591   4.086   7.483  0.00  0.00    +0.000 OA
BRANCH   7  12
ATOM      8  C   UNL     1      47.175   1.489   5.458  0.00  0.00    +0.000 A 
ATOM      9  C   UNL     1      47.358   0.465   6.388  0.00  0.00    +0.000 A 
ATOM     10  C   UNL     1      46.906   0.632   7.699  0.00  0.00    +0.000 A 
ATOM     11  C   UNL     1      46.288   1.824   8.078  0.00  0.00    +0.000 A 
ATOM     12  C   UNL     1      46.164   2.874   7.164  0.00  0.00    +0.000 A 
ATOM     13  C   UNL     1      46.573   2.690   5.839  0.00  0.00    +0.000 A 
BRANCH   8  14
ATOM     14  N   UNL     1      47.598   1.331   4.105  0.00  0.00    +0.000 N 
ATOM     15  H   UNL     1      48.606   1.253   3.961  0.00  0.00    +0.000 HD
BRANCH  14  17
ATOM     16  C   UNL     1      46.621  -1.160   4.289  0.00  0.00    +0.000 C 
ATOM     17  S   UNL     1      46.792   0.193   3.145  0.00  0.00    +0.000 S 
ATOM     18  O   UNL     1      47.629  -0.223   2.040  0.00  0.00    +0.000 OA
ATOM     19  O   UNL     1      45.474   0.741   2.920  0.00  0.00    +0.000 OA
ENDBRANCH  14  17
ENDBRANCH   8  14
ENDBRANCH   7  12
ENDBRANCH   1   7
BRANCH   4  20
ATOM     20  C   UNL     1      44.247   5.026  12.852  0.00  0.00    +0.000 C 
BRANCH  20  21
ATOM     21  N   UNL     1      45.389   5.526  13.580  0.00  0.00    +0.000 N 
ATOM     22  C   UNL     1      46.398   4.724  14.041  0.00  0.00    +0.000 C 
ATOM     23  O   UNL     1      46.402   3.510  13.858  0.00  0.00    +0.000 OA
ATOM     24  H   UNL     1      45.288   6.465  13.955  0.00  0.00    +0.000 HD
BRANCH  22  25
ATOM     25  C   UNL     1      47.512   5.413  14.706  0.00  0.00    +0.000 A 
ATOM     26  C   UNL     1      47.822   5.117  16.027  0.00  0.00    +0.000 A 
ATOM     27  S   UNL     1      49.180   5.965  16.617  0.00  0.00    +0.000 S 
ATOM     28  C   UNL     1      49.373   6.794  15.142  0.00  0.00    +0.000 A 
ATOM     29  N   UNL     1      50.365   7.712  14.977  0.00  0.00    +0.000 NA
ATOM     30  C   UNL     1      50.371   8.286  13.822  0.00  0.00    +0.000 A 
ATOM     31  N   UNL     1      49.484   8.020  12.811  0.00  0.00    +0.000 N 
ATOM     32  C   UNL     1      48.502   7.064  12.913  0.00  0.00    +0.000 A 
ATOM     33  O   UNL     1      47.781   6.791  11.962  0.00  0.00    +0.000 OA
ATOM     34  C   UNL     1      48.430   6.410  14.207  0.00  0.00    +0.000 A 
ATOM     35  H   UNL     1      49.555   8.489  11.919  0.00  0.00    +0.000 HD
ENDBRANCH  22  25
ENDBRANCH  20  21
ENDBRANCH   4  20
TORSDOF 7
ENDMDL
MODEL 4
REMARK VINA RESULT:    -7.872      2.848      4.059
REMARK INTER + INTRA:         -10.728
REMARK INTER:                 -10.567
REMARK INTRA:                  -0.161
REMARK UNBOUND:                 0.366
REMARK  Name = 
REMARK  8 active torsions:
REMARK  status: ('A' for Active; 'I' for Inactive)
REMARK    1  A    between atoms: C_1  and  S_2
REMARK    2  A    between atoms: S_2  and  N_5
REMARK    3  A    between atoms: N_5  and  C_6
REMARK    4  A    between atoms: C_10  and  O_11
REMARK    5  A    between atoms: O_11  and  C_12
REMARK    6  A    between atoms: C_15  and  C_16
REMARK    7  A    between atoms: C_16  and  N_17
REMARK    8  A    between atoms: C_18  and  C_20
REMARK                            x       y       z     vdW  Elec       q    Type
REMARK                         _______ _______ _______ _____ _____    ______ ____
ROOT
ATOM      1  C   UNL     1      45.240   6.133  11.518  0.00  0.00    +0.000 A 
ATOM      2  C   UNL     1      45.438   7.500  11.522  0.00  0.00    +0.000 A 
ATOM      3  C   UNL     1      46.412   8.024  12.370  0.00  0.00    +0.000 A 
ATOM      4  C   UNL     1      47.128   7.157  13.183  0.00  0.00    +0.000 A 
ATOM      5  N   UNL     1      46.920   5.820  13.135  0.00  0.00    +0.000 NA
ATOM      6  N   UNL     1      45.982   5.304  12.283  0.00  0.00    +0.000 NA
ENDROOT
BRANCH   1   7
ATOM      7  O   UNL     1      44.264   5.625  10.665  0.00  0.00    +0.000 OA
BRANCH   7  12
ATOM      8  C   UNL     1      45.584   3.274   8.198  0.00  0.00    +0.000 A 
ATOM      9  C   UNL     1      45.115   2.051   8.680  0.00  0.00    +0.000 A 
ATOM     10  C   UNL     1      44.311   2.020   9.822  0.00  0.00    +0.000 A 
ATOM     11  C   UNL     1      43.992   3.206  10.484  0.00  0.00    +0.000 A 
ATOM     12  C   UNL     1      44.516   4.423  10.039  0.00  0.00    +0.000 A 
ATOM     13  C   UNL     1      45.281   4.460   8.869  0.00  0.00    +0.000 A 
BRANCH   8  14
ATOM     14  N   UNL     1      46.380   3.336   7.016  0.00  0.00    +0.000 N 
ATOM     15  H   UNL     1      46.900   4.204   6.876  0.00  0.00    +0.000 HD
BRANCH  14  17
ATOM     16  C   UNL     1      46.999   1.779   4.922  0.00  0.00    +0.000 C 
ATOM     17  S   UNL     1      47.366   2.011   6.648  0.00  0.00    +0.000 S 
ATOM     18  O   UNL     1      46.939   0.840   7.385  0.00  0.00    +0.000 OA
ATOM     19  O   UNL     1      48.722   2.500   6.741  0.00  0.00    +0.000 OA
ENDBRANCH  14  17
ENDBRANCH   8  14
ENDBRANCH   7  12
ENDBRANCH   1   7
BRANCH   4  20
ATOM     20  C   UNL     1      48.197   7.649  14.123  0.00  0.00    +0.000 C 
BRANCH  20  21
ATOM     21  N   UNL     1      48.086   7.050  15.432  0.00  0.00    +0.000 N 
ATOM     22  C   UNL     1      49.143   6.493  16.097  0.00  0.00    +0.000 C 
ATOM     23  O   UNL     1      50.276   6.470  15.620  0.00  0.00    +0.000 OA
ATOM     24  H   UNL     1      47.139   6.835  15.732  0.00  0.00    +0.000 HD
BRANCH  22  25
ATOM     25  C   UNL     1      48.859   5.987  17.447  0.00  0.00    +0.000 A 
ATOM     26  C   UNL     1      49.093   4.652  17.752  0.00  0.00    +0.000 A 
ATOM     27  S   UNL     1      48.764   4.255  19.378  0.00  0.00    +0.000 S 
ATOM     28  C   UNL     1      48.251   5.843  19.720  0.00  0.00    +0.000 A 
ATOM     29  N   UNL     1      47.808   6.185  20.961  0.00  0.00    +0.000 NA
ATOM     30  C   UNL     1      47.420   7.410  21.068  0.00  0.00    +0.000 A 
ATOM     31  N   UNL     1      47.446   8.331  20.052  0.00  0.00    +0.000 N 
ATOM     32  C   UNL     1      47.935   8.045  18.800  0.00  0.00    +0.000 A 
ATOM     33  O   UNL     1      48.022   8.912  17.940  0.00  0.00    +0.000 OA
ATOM     34  C   UNL     1      48.354   6.667  18.616  0.00  0.00    +0.000 A 
ATOM     35  H   UNL     1      47.148   9.283  20.204  0.00  0.00    +0.000 HD
ENDBRANCH  22  25
ENDBRANCH  20  21
ENDBRANCH   4  20
TORSDOF 7
ENDMDL
MODEL 5
REMARK VINA RESULT:    -7.655      5.509      7.603
REMARK INTER + INTRA:         -10.422
REMARK INTER:                  -9.755
REMARK INTRA:                  -0.667
REMARK UNBOUND:                 0.366
REMARK  Name = 
REMARK  8 active torsions:
REMARK  status: ('A' for Active; 'I' for Inactive)
REMARK    1  A    between atoms: C_1  and  S_2
REMARK    2  A    between atoms: S_2  and  N_5
REMARK    3  A    between atoms: N_5  and  C_6
REMARK    4  A    between atoms: C_10  and  O_11
REMARK    5  A    between atoms: O_11  and  C_12
REMARK    6  A    between atoms: C_15  and  C_16
REMARK    7  A    between atoms: C_16  and  N_17
REMARK    8  A    between atoms: C_18  and  C_20
REMARK                            x       y       z     vdW  Elec       q    Type
REMARK                         _______ _______ _______ _____ _____    ______ ____
ROOT
ATOM      1  C   UNL     1      48.928   7.159  13.653  0.00  0.00    +0.000 A 
ATOM      2  C   UNL     1      49.615   8.294  14.038  0.00  0.00    +0.000 A 
ATOM      3  C   UNL     1      50.027   8.400  15.365  0.00  0.00    +0.000 A 
ATOM      4  C   UNL     1      49.717   7.372  16.245  0.00  0.00    +0.000 A 
ATOM      5  N   UNL     1      49.061   6.265  15.826  0.00  0.00    +0.000 NA
ATOM      6  N   UNL     1      48.680   6.150  14.516  0.00  0.00    +0.000 NA
ENDROOT
BRANCH   1   7
ATOM      7  O   UNL     1      48.523   7.068  12.324  0.00  0.00    +0.000 OA
BRANCH   7  12
ATOM      8  C   UNL     1      45.096   6.557  11.163  0.00  0.00    +0.000 A 
ATOM      9  C   UNL     1      44.519   7.806  11.399  0.00  0.00    +0.000 A 
ATOM     10  C   UNL     1      45.299   8.843  11.914  0.00  0.00    +0.000 A 
ATOM     11  C   UNL     1      46.647   8.625  12.204  0.00  0.00    +0.000 A 
ATOM     12  C   UNL     1      47.208   7.357  12.029  0.00  0.00    +0.000 A 
ATOM     13  C   UNL     1      46.440   6.332  11.469  0.00  0.00    +0.000 A 
BRANCH   8  14
ATOM     14  N   UNL     1      44.329   5.491  10.606  0.00  0.00    +0.000 N 
ATOM     15  H   UNL     1      44.848   4.818  10.040  0.00  0.00    +0.000 HD
BRANCH  14  17
ATOM     16  C   UNL     1      44.152   4.666  13.152  0.00  0.00    +0.000 C 
ATOM     17  S   UNL     1      43.247   4.674  11.620  0.00  0.00    +0.000 S 
ATOM     18  O   UNL     1      43.062   3.311  11.171  0.00  0.00    +0.000 OA
ATOM     19  O   UNL     1      42.122   5.567  11.785  0.00  0.00    +0.000 OA
ENDBRANCH  14  17
ENDBRANCH   8  14
ENDBRANCH   7  12
ENDBRANCH   1   7
BRANCH   4  20
ATOM     20  C   UNL     1      50.131   7.415  17.692  0.00  0.00    +0.000 C 
BRANCH  20  21
ATOM     21  N   UNL     1      51.095   6.389  18.011  0.00  0.00    +0.000 N 
ATOM     22  C   UNL     1      50.767   5.213  18.629  0.00  0.00    +0.000 C 
ATOM     23  O   UNL     1      49.613   4.945  18.952  0.00  0.00    +0.000 OA
ATOM     24  H   UNL     1      52.067   6.684  17.984  0.00  0.00    +0.000 HD
BRANCH  22  25
ATOM     25  C   UNL     1      51.867   4.258  18.818  0.00  0.00    +0.000 A 
ATOM     26  C   UNL     1      52.945   4.591  19.629  0.00  0.00    +0.000 A 
ATOM     27  S   UNL     1      54.097   3.342  19.782  0.00  0.00    +0.000 S 
ATOM     28  C   UNL     1      53.220   2.329  18.730  0.00  0.00    +0.000 A 
ATOM     29  N   UNL     1      53.677   1.087  18.409  0.00  0.00    +0.000 NA
ATOM     30  C   UNL     1      52.930   0.445  17.578  0.00  0.00    +0.000 A 
ATOM     31  N   UNL     1      51.760   0.923  17.045  0.00  0.00    +0.000 N 
ATOM     32  C   UNL     1      51.234   2.147  17.381  0.00  0.00    +0.000 A 
ATOM     33  O   UNL     1      50.146   2.509  16.953  0.00  0.00    +0.000 OA
ATOM     34  C   UNL     1      52.054   2.927  18.291  0.00  0.00    +0.000 A 
ATOM     35  H   UNL     1      51.207   0.362  16.413  0.00  0.00    +0.000 HD
ENDBRANCH  22  25
ENDBRANCH  20  21
ENDBRANCH   4  20
TORSDOF 7
ENDMDL
MODEL 6
REMARK VINA RESULT:    -7.566      5.663     11.600
REMARK INTER + INTRA:         -10.297
REMARK INTER:                  -9.047
REMARK INTRA:                  -1.250
REMARK UNBOUND:                 0.366
REMARK  Name = 
REMARK  8 active torsions:
REMARK  status: ('A' for Active; 'I' for Inactive)
REMARK    1  A    between atoms: C_1  and  S_2
REMARK    2  A    between atoms: S_2  and  N_5
REMARK    3  A    between atoms: N_5  and  C_6
REMARK    4  A    between atoms: C_10  and  O_11
REMARK    5  A    between atoms: O_11  and  C_12
REMARK    6  A    between atoms: C_15  and  C_16
REMARK    7  A    between atoms: C_16  and  N_17
REMARK    8  A    between atoms: C_18  and  C_20
REMARK                            x       y       z     vdW  Elec       q    Type
REMARK                         _______ _______ _______ _____ _____    ______ ____
ROOT
ATOM      1  C   UNL     1      48.347   5.090  19.359  0.00  0.00    +0.000 A 
ATOM      2  C   UNL     1      49.429   4.572  18.673  0.00  0.00    +0.000 A 
ATOM      3  C   UNL     1      49.210   4.024  17.411  0.00  0.00    +0.000 A 
ATOM      4  C   UNL     1      47.918   4.007  16.903  0.00  0.00    +0.000 A 
ATOM      5  N   UNL     1      46.887   4.545  17.597  0.00  0.00    +0.000 NA
ATOM      6  N   UNL     1      47.107   5.106  18.825  0.00  0.00    +0.000 NA
ENDROOT
BRANCH   1   7
ATOM      7  O   UNL     1      48.582   5.634  20.619  0.00  0.00    +0.000 OA
BRANCH   7  12
ATOM      8  C   UNL     1      48.481   9.252  20.110  0.00  0.00    +0.000 A 
ATOM      9  C   UNL     1      47.618   9.665  21.126  0.00  0.00    +0.000 A 
ATOM     10  C   UNL     1      47.097   8.725  22.018  0.00  0.00    +0.000 A 
ATOM     11  C   UNL     1      47.429   7.376  21.883  0.00  0.00    +0.000 A 
ATOM     12  C   UNL     1      48.241   6.954  20.826  0.00  0.00    +0.000 A 
ATOM     13  C   UNL     1      48.800   7.900  19.962  0.00  0.00    +0.000 A 
BRANCH   8  14
ATOM     14  N   UNL     1      49.051  10.197  19.207  0.00  0.00    +0.000 N 
ATOM     15  H   UNL     1      49.988   9.976  18.867  0.00  0.00    +0.000 HD
BRANCH  14  17
ATOM     16  C   UNL     1      49.286  11.680  16.985  0.00  0.00    +0.000 C 
ATOM     17  S   UNL     1      48.094  10.755  17.928  0.00  0.00    +0.000 S 
ATOM     18  O   UNL     1      47.072  11.657  18.414  0.00  0.00    +0.000 OA
ATOM     19  O   UNL     1      47.750   9.580  17.160  0.00  0.00    +0.000 OA
ENDBRANCH  14  17
ENDBRANCH   8  14
ENDBRANCH   7  12
ENDBRANCH   1   7
BRANCH   4  20
ATOM     20  C   UNL     1      47.605   3.435  15.547  0.00  0.00    +0.000 C 
BRANCH  20  21
ATOM     21  N   UNL     1      46.710   4.282  14.794  0.00  0.00    +0.000 N 
ATOM     22  C   UNL     1      47.132   5.142  13.817  0.00  0.00    +0.000 C 
ATOM     23  O   UNL     1      48.316   5.249  13.508  0.00  0.00    +0.000 OA
ATOM     24  H   UNL     1      45.783   4.395  15.192  0.00  0.00    +0.000 HD
BRANCH  22  25
ATOM     25  C   UNL     1      46.076   5.880  13.111  0.00  0.00    +0.000 A 
ATOM     26  C   UNL     1      46.213   7.243  12.883  0.00  0.00    +0.000 A 
ATOM     27  S   UNL     1      44.922   7.922  11.999  0.00  0.00    +0.000 S 
ATOM     28  C   UNL     1      44.109   6.427  11.931  0.00  0.00    +0.000 A 
ATOM     29  N   UNL     1      42.900   6.313  11.316  0.00  0.00    +0.000 NA
ATOM     30  C   UNL     1      42.385   5.132  11.370  0.00  0.00    +0.000 A 
ATOM     31  N   UNL     1      42.973   4.049  11.972  0.00  0.00    +0.000 N 
ATOM     32  C   UNL     1      44.215   4.104  12.556  0.00  0.00    +0.000 A 
ATOM     33  O   UNL     1      44.749   3.100  13.009  0.00  0.00    +0.000 OA
ATOM     34  C   UNL     1      44.826   5.421  12.552  0.00  0.00    +0.000 A 
ATOM     35  H   UNL     1      42.528   3.142  11.962  0.00  0.00    +0.000 HD
ENDBRANCH  22  25
ENDBRANCH  20  21
ENDBRANCH   4  20
TORSDOF 7
ENDMDL
MODEL 7
REMARK VINA RESULT:    -7.292      3.535      5.715
REMARK INTER + INTRA:          -9.911
REMARK INTER:                  -9.157
REMARK INTRA:                  -0.753
REMARK UNBOUND:                 0.366
REMARK  Name = 
REMARK  8 active torsions:
REMARK  status: ('A' for Active; 'I' for Inactive)
REMARK    1  A    between atoms: C_1  and  S_2
REMARK    2  A    between atoms: S_2  and  N_5
REMARK    3  A    between atoms: N_5  and  C_6
REMARK    4  A    between atoms: C_10  and  O_11
REMARK    5  A    between atoms: O_11  and  C_12
REMARK    6  A    between atoms: C_15  and  C_16
REMARK    7  A    between atoms: C_16  and  N_17
REMARK    8  A    between atoms: C_18  and  C_20
REMARK                            x       y       z     vdW  Elec       q    Type
REMARK                         _______ _______ _______ _____ _____    ______ ____
ROOT
ATOM      1  C   UNL     1      46.437   7.322  13.011  0.00  0.00    +0.000 A 
ATOM      2  C   UNL     1      46.829   8.470  13.673  0.00  0.00    +0.000 A 
ATOM      3  C   UNL     1      48.049   8.460  14.346  0.00  0.00    +0.000 A 
ATOM      4  C   UNL     1      48.810   7.299  14.336  0.00  0.00    +0.000 A 
ATOM      5  N   UNL     1      48.402   6.201  13.657  0.00  0.00    +0.000 NA
ATOM      6  N   UNL     1      47.216   6.220  12.975  0.00  0.00    +0.000 NA
ENDROOT
BRANCH   1   7
ATOM      7  O   UNL     1      45.216   7.347  12.344  0.00  0.00    +0.000 OA
BRANCH   7  12
ATOM      8  C   UNL     1      43.967   4.610  10.269  0.00  0.00    +0.000 A 
ATOM      9  C   UNL     1      43.486   3.715  11.226  0.00  0.00    +0.000 A 
ATOM     10  C   UNL     1      43.544   4.052  12.580  0.00  0.00    +0.000 A 
ATOM     11  C   UNL     1      44.092   5.273  12.973  0.00  0.00    +0.000 A 
ATOM     12  C   UNL     1      44.633   6.141  12.019  0.00  0.00    +0.000 A 
ATOM     13  C   UNL     1      44.533   5.824  10.661  0.00  0.00    +0.000 A 
BRANCH   8  14
ATOM     14  N   UNL     1      43.890   4.303   8.878  0.00  0.00    +0.000 N 
ATOM     15  H   UNL     1      43.456   5.016   8.290  0.00  0.00    +0.000 HD
BRANCH  14  17
ATOM     16  C   UNL     1      45.697   2.347   9.199  0.00  0.00    +0.000 C 
ATOM     17  S   UNL     1      45.275   3.697   8.118  0.00  0.00    +0.000 S 
ATOM     18  O   UNL     1      46.340   4.677   8.146  0.00  0.00    +0.000 OA
ATOM     19  O   UNL     1      44.815   3.128   6.872  0.00  0.00    +0.000 OA
ENDBRANCH  14  17
ENDBRANCH   8  14
ENDBRANCH   7  12
ENDBRANCH   1   7
BRANCH   4  20
ATOM     20  C   UNL     1      50.139   7.215  15.038  0.00  0.00    +0.000 C 
BRANCH  20  21
ATOM     21  N   UNL     1      49.991   7.118  16.471  0.00  0.00    +0.000 N 
ATOM     22  C   UNL     1      50.646   6.192  17.235  0.00  0.00    +0.000 C 
ATOM     23  O   UNL     1      51.421   5.372  16.746  0.00  0.00    +0.000 OA
ATOM     24  H   UNL     1      49.187   7.605  16.858  0.00  0.00    +0.000 HD
BRANCH  22  25
ATOM     25  C   UNL     1      50.424   6.281  18.685  0.00  0.00    +0.000 A 
ATOM     26  C   UNL     1      51.483   6.578  19.533  0.00  0.00    +0.000 A 
ATOM     27  S   UNL     1      51.030   6.700  21.173  0.00  0.00    +0.000 S 
ATOM     28  C   UNL     1      49.412   6.312  20.814  0.00  0.00    +0.000 A 
ATOM     29  N   UNL     1      48.475   6.224  21.798  0.00  0.00    +0.000 NA
ATOM     30  C   UNL     1      47.300   5.890  21.386  0.00  0.00    +0.000 A 
ATOM     31  N   UNL     1      46.970   5.645  20.078  0.00  0.00    +0.000 N 
ATOM     32  C   UNL     1      47.867   5.774  19.046  0.00  0.00    +0.000 A 
ATOM     33  O   UNL     1      47.520   5.631  17.881  0.00  0.00    +0.000 OA
ATOM     34  C   UNL     1      49.216   6.117  19.459  0.00  0.00    +0.000 A 
ATOM     35  H   UNL     1      46.024   5.407  19.815  0.00  0.00    +0.000 HD
ENDBRANCH  22  25
ENDBRANCH  20  21
ENDBRANCH   4  20
TORSDOF 7
ENDMDL
MODEL 8
REMARK VINA RESULT:    -7.243      6.229      8.376
REMARK INTER + INTRA:          -9.842
REMARK INTER:                  -8.824
REMARK INTRA:                  -1.017
REMARK UNBOUND:                 0.366
REMARK  Name = 
REMARK  8 active torsions:
REMARK  status: ('A' for Active; 'I' for Inactive)
REMARK    1  A    between atoms: C_1  and  S_2
REMARK    2  A    between atoms: S_2  and  N_5
REMARK    3  A    between atoms: N_5  and  C_6
REMARK    4  A    between atoms: C_10  and  O_11
REMARK    5  A    between atoms: O_11  and  C_12
REMARK    6  A    between atoms: C_15  and  C_16
REMARK    7  A    between atoms: C_16  and  N_17
REMARK    8  A    between atoms: C_18  and  C_20
REMARK                            x       y       z     vdW  Elec       q    Type
REMARK                         _______ _______ _______ _____ _____    ______ ____
ROOT
ATOM      1  C   UNL     1      48.941   7.049  13.159  0.00  0.00    +0.000 A 
ATOM      2  C   UNL     1      49.845   8.076  13.358  0.00  0.00    +0.000 A 
ATOM      3  C   UNL     1      50.416   8.219  14.621  0.00  0.00    +0.000 A 
ATOM      4  C   UNL     1      50.043   7.339  15.627  0.00  0.00    +0.000 A 
ATOM      5  N   UNL     1      49.171   6.331  15.388  0.00  0.00    +0.000 NA
ATOM      6  N   UNL     1      48.631   6.175  14.141  0.00  0.00    +0.000 NA
ENDROOT
BRANCH   1   7
ATOM      7  O   UNL     1      48.380   6.920  11.892  0.00  0.00    +0.000 OA
BRANCH   7  12
ATOM      8  C   UNL     1      45.058   8.426  12.116  0.00  0.00    +0.000 A 
ATOM      9  C   UNL     1      44.246   7.423  11.585  0.00  0.00    +0.000 A 
ATOM     10  C   UNL     1      44.815   6.211  11.186  0.00  0.00    +0.000 A 
ATOM     11  C   UNL     1      46.191   6.012  11.306  0.00  0.00    +0.000 A 
ATOM     12  C   UNL     1      47.011   7.041  11.777  0.00  0.00    +0.000 A 
ATOM     13  C   UNL     1      46.437   8.236  12.220  0.00  0.00    +0.000 A 
BRANCH   8  14
ATOM     14  N   UNL     1      44.497   9.660  12.560  0.00  0.00    +0.000 N 
ATOM     15  H   UNL     1      44.901  10.049  13.414  0.00  0.00    +0.000 HD
BRANCH  14  17
ATOM     16  C   UNL     1      45.859  11.693  11.462  0.00  0.00    +0.000 C 
ATOM     17  S   UNL     1      44.271  10.890  11.420  0.00  0.00    +0.000 S 
ATOM     18  O   UNL     1      43.257  11.819  11.869  0.00  0.00    +0.000 OA
ATOM     19  O   UNL     1      44.158  10.219  10.145  0.00  0.00    +0.000 OA
ENDBRANCH  14  17
ENDBRANCH   8  14
ENDBRANCH   7  12
ENDBRANCH   1   7
BRANCH   4  20
ATOM     20  C   UNL     1      50.619   7.430  17.015  0.00  0.00    +0.000 C 
BRANCH  20  21
ATOM     21  N   UNL     1      51.424   6.278  17.345  0.00  0.00    +0.000 N 
ATOM     22  C   UNL     1      51.627   5.843  18.627  0.00  0.00    +0.000 C 
ATOM     23  O   UNL     1      51.125   6.408  19.595  0.00  0.00    +0.000 OA
ATOM     24  H   UNL     1      52.039   5.952  16.605  0.00  0.00    +0.000 HD
BRANCH  22  25
ATOM     25  C   UNL     1      52.423   4.616  18.771  0.00  0.00    +0.000 A 
ATOM     26  C   UNL     1      53.611   4.640  19.489  0.00  0.00    +0.000 A 
ATOM     27  S   UNL     1      54.370   3.116  19.604  0.00  0.00    +0.000 S 
ATOM     28  C   UNL     1      53.161   2.381  18.656  0.00  0.00    +0.000 A 
ATOM     29  N   UNL     1      53.220   1.055  18.348  0.00  0.00    +0.000 NA
ATOM     30  C   UNL     1      52.258   0.641  17.596  0.00  0.00    +0.000 A 
ATOM     31  N   UNL     1      51.234   1.426  17.132  0.00  0.00    +0.000 N 
ATOM     32  C   UNL     1      51.104   2.754  17.461  0.00  0.00    +0.000 A 
ATOM     33  O   UNL     1      50.133   3.406  17.100  0.00  0.00    +0.000 OA
ATOM     34  C   UNL     1      52.182   3.280  18.280  0.00  0.00    +0.000 A 
ATOM     35  H   UNL     1      50.496   1.037  16.563  0.00  0.00    +0.000 HD
ENDBRANCH  22  25
ENDBRANCH  20  21
ENDBRANCH   4  20
TORSDOF 7
ENDMDL
MODEL 9
REMARK VINA RESULT:    -7.232      3.434      6.118
REMARK INTER + INTRA:          -9.826
REMARK INTER:                  -9.147
REMARK INTRA:                  -0.679
REMARK UNBOUND:                 0.366
REMARK  Name = 
REMARK  8 active torsions:
REMARK  status: ('A' for Active; 'I' for Inactive)
REMARK    1  A    between atoms: C_1  and  S_2
REMARK    2  A    between atoms: S_2  and  N_5
REMARK    3  A    between atoms: N_5  and  C_6
REMARK    4  A    between atoms: C_10  and  O_11
REMARK    5  A    between atoms: O_11  and  C_12
REMARK    6  A    between atoms: C_15  and  C_16
REMARK    7  A    between atoms: C_16  and  N_17
REMARK    8  A    between atoms: C_18  and  C_20
REMARK                            x       y       z     vdW  Elec       q    Type
REMARK                         _______ _______ _______ _____ _____    ______ ____
ROOT
ATOM      1  C   UNL     1      47.751   6.861  13.105  0.00  0.00    +0.000 A 
ATOM      2  C   UNL     1      48.041   8.117  13.603  0.00  0.00    +0.000 A 
ATOM      3  C   UNL     1      48.470   8.220  14.925  0.00  0.00    +0.000 A 
ATOM      4  C   UNL     1      48.573   7.065  15.688  0.00  0.00    +0.000 A 
ATOM      5  N   UNL     1      48.301   5.850  15.157  0.00  0.00    +0.000 NA
ATOM      6  N   UNL     1      47.904   5.747  13.851  0.00  0.00    +0.000 NA
ENDROOT
BRANCH   1   7
ATOM      7  O   UNL     1      47.323   6.775  11.783  0.00  0.00    +0.000 OA
BRANCH   7  12
ATOM      8  C   UNL     1      44.702   4.579  10.492  0.00  0.00    +0.000 A 
ATOM      9  C   UNL     1      43.547   5.174  11.001  0.00  0.00    +0.000 A 
ATOM     10  C   UNL     1      43.645   6.348  11.750  0.00  0.00    +0.000 A 
ATOM     11  C   UNL     1      44.896   6.915  11.999  0.00  0.00    +0.000 A 
ATOM     12  C   UNL     1      46.057   6.283  11.545  0.00  0.00    +0.000 A 
ATOM     13  C   UNL     1      45.956   5.134  10.756  0.00  0.00    +0.000 A 
BRANCH   8  14
ATOM     14  N   UNL     1      44.626   3.397   9.697  0.00  0.00    +0.000 N 
ATOM     15  H   UNL     1      43.711   2.944   9.663  0.00  0.00    +0.000 HD
BRANCH  14  17
ATOM     16  C   UNL     1      46.237   1.915   8.148  0.00  0.00    +0.000 C 
ATOM     17  S   UNL     1      45.307   3.433   8.148  0.00  0.00    +0.000 S 
ATOM     18  O   UNL     1      46.220   4.548   8.021  0.00  0.00    +0.000 OA
ATOM     19  O   UNL     1      44.200   3.264   7.235  0.00  0.00    +0.000 OA
ENDBRANCH  14  17
ENDBRANCH   8  14
ENDBRANCH   7  12
ENDBRANCH   1   7
BRANCH   4  20
ATOM     20  C   UNL     1      49.032   7.098  17.121  0.00  0.00    +0.000 C 
BRANCH  20  21
ATOM     21  N   UNL     1      50.083   6.142  17.376  0.00  0.00    +0.000 N 
ATOM     22  C   UNL     1      50.520   5.821  18.632  0.00  0.00    +0.000 C 
ATOM     23  O   UNL     1      50.035   6.327  19.641  0.00  0.00    +0.000 OA
ATOM     24  H   UNL     1      50.657   5.904  16.573  0.00  0.00    +0.000 HD
BRANCH  22  25
ATOM     25  C   UNL     1      51.555   4.780  18.706  0.00  0.00    +0.000 A 
ATOM     26  C   UNL     1      52.746   5.031  19.375  0.00  0.00    +0.000 A 
ATOM     27  S   UNL     1      53.803   3.693  19.413  0.00  0.00    +0.000 S 
ATOM     28  C   UNL     1      52.727   2.746  18.493  0.00  0.00    +0.000 A 
ATOM     29  N   UNL     1      53.040   1.468  18.143  0.00  0.00    +0.000 NA
ATOM     30  C   UNL     1      52.149   0.882  17.419  0.00  0.00    +0.000 A 
ATOM     31  N   UNL     1      50.966   1.450  17.021  0.00  0.00    +0.000 N 
ATOM     32  C   UNL     1      50.584   2.716  17.395  0.00  0.00    +0.000 A 
ATOM     33  O   UNL     1      49.485   3.162  17.094  0.00  0.00    +0.000 OA
ATOM     34  C   UNL     1      51.568   3.434  18.185  0.00  0.00    +0.000 A 
ATOM     35  H   UNL     1      50.297   0.930  16.471  0.00  0.00    +0.000 HD
ENDBRANCH  22  25
ENDBRANCH  20  21
ENDBRANCH   4  20
TORSDOF 7
ENDMDL
