MODEL 1
REMARK VINA RESULT:    -7.733      0.000      0.000
REMARK INTER + INTRA:         -12.866
REMARK INTER:                 -11.349
REMARK INTRA:                  -1.516
REMARK UNBOUND:                -1.516
REMARK  Name = 
REMARK  10 active torsions:
REMARK  status: ('A' for Active; 'I' for Inactive)
REMARK    1  A    between atoms: C_1  and  C_2
REMARK    2  A    between atoms: C_2  and  C_3
REMARK    3  A    between atoms: C_2  and  C_4
REMARK    4  A    between atoms: C_6  and  C_7
REMARK    5  A    between atoms: C_12  and  C_13
REMARK    6  A    between atoms: C_13  and  O_14
REMARK    7  A    between atoms: O_14  and  C_15
REMARK    8  A    between atoms: C_19  and  C_20
REMARK    9  A    between atoms: C_25  and  O_26
REMARK   10  A    between atoms: O_26  and  C_27
REMARK                            x       y       z     vdW  Elec       q    Type
REMARK                         _______ _______ _______ _____ _____    ______ ____
ROOT
ATOM      1  C   UNL     1      47.332   7.513  12.413  0.00  0.00    +0.000 A 
ATOM      2  C   UNL     1      46.410   8.477  12.797  0.00  0.00    +0.000 A 
ATOM      3  C   UNL     1      45.116   8.425  12.281  0.00  0.00    +0.000 A 
ATOM      4  C   UNL     1      44.736   7.401  11.398  0.00  0.00    +0.000 A 
ATOM      5  C   UNL     1      45.646   6.422  10.965  0.00  0.00    +0.000 A 
ATOM      6  C   UNL     1      46.961   6.540  11.475  0.00  0.00    +0.000 A 
ENDROOT
BRANCH   5   7
ATOM      7  C   UNL     1      45.242   5.246  10.122  0.00  0.00    +0.000 A 
ATOM      8  C   UNL     1      45.935   5.026   8.906  0.00  0.00    +0.000 A 
ATOM      9  C   UNL     1      45.690   3.927   8.083  0.00  0.00    +0.000 A 
ATOM     10  C   UNL     1      44.788   2.960   8.489  0.00  0.00    +0.000 A 
ATOM     11  C   UNL     1      44.099   3.123   9.687  0.00  0.00    +0.000 A 
ATOM     12  C   UNL     1      44.247   4.288  10.462  0.00  0.00    +0.000 A 
BRANCH  12  13
ATOM     13  O   UNL     1      43.462   4.526  11.558  0.00  0.00    +0.000 OA
BRANCH  13  14
ATOM     14  C   UNL     1      43.716   3.815  12.770  0.00  0.00    +0.000 C 
ATOM     15  F   UNL     1      43.559   2.476  12.679  0.00  0.00    +0.000 F 
ATOM     16  F   UNL     1      44.974   4.074  13.190  0.00  0.00    +0.000 F 
ATOM     17  F   UNL     1      42.858   4.255  13.719  0.00  0.00    +0.000 F 
ENDBRANCH  13  14
ENDBRANCH  12  13
ENDBRANCH   5   7
BRANCH   1  18
ATOM     18  O   UNL     1      48.617   7.402  12.876  0.00  0.00    +0.000 OA
BRANCH  18  19
ATOM     19  C   UNL     1      48.857   7.732  14.258  0.00  0.00    +0.000 C 
BRANCH  19  25
ATOM     20  C   UNL     1      48.820   6.724  16.625  0.00  0.00    +0.000 A 
ATOM     21  C   UNL     1      48.472   5.620  17.435  0.00  0.00    +0.000 A 
ATOM     22  C   UNL     1      47.872   4.482  16.904  0.00  0.00    +0.000 A 
ATOM     23  C   UNL     1      47.666   4.465  15.543  0.00  0.00    +0.000 A 
ATOM     24  N   UNL     1      48.008   5.483  14.716  0.00  0.00    +0.000 NA
ATOM     25  C   UNL     1      48.544   6.621  15.252  0.00  0.00    +0.000 A 
BRANCH  22  26
ATOM     26  C   UNL     1      47.482   3.382  17.821  0.00  0.00    +0.000 C 
ATOM     27  N   UNL     1      48.237   3.151  18.942  0.00  0.00    +0.000 N 
ATOM     28  O   UNL     1      46.506   2.684  17.597  0.00  0.00    +0.000 OA
ATOM     29  H   UNL     1      49.065   3.641  19.219  0.00  0.00    +0.000 HD
ATOM     30  H   UNL     1      47.933   2.369  19.528  0.00  0.00    +0.000 HD
ENDBRANCH  22  26
BRANCH  20  32
ATOM     31  C   UNL     1      48.489   8.606  18.273  0.00  0.00    +0.000 C 
ATOM     32  C   UNL     1      49.457   7.938  17.285  0.00  0.00    +0.000 C 
ATOM     33  C   UNL     1      50.807   7.581  17.922  0.00  0.00    +0.000 C 
ENDBRANCH  20  32
ENDBRANCH  19  25
ENDBRANCH  18  19
ENDBRANCH   1  18
TORSDOF 8
ENDMDL
MODEL 2
REMARK VINA RESULT:    -7.454      1.993      2.778
REMARK INTER + INTRA:         -12.457
REMARK INTER:                 -10.603
REMARK INTRA:                  -1.854
REMARK UNBOUND:                -1.516
REMARK  Name = 
REMARK  10 active torsions:
REMARK  status: ('A' for Active; 'I' for Inactive)
REMARK    1  A    between atoms: C_1  and  C_2
REMARK    2  A    between atoms: C_2  and  C_3
REMARK    3  A    between atoms: C_2  and  C_4
REMARK    4  A    between atoms: C_6  and  C_7
REMARK    5  A    between atoms: C_12  and  C_13
REMARK    6  A    between atoms: C_13  and  O_14
REMARK    7  A    between atoms: O_14  and  C_15
REMARK    8  A    between atoms: C_19  and  C_20
REMARK    9  A    between atoms: C_25  and  O_26
REMARK   10  A    between atoms: O_26  and  C_27
REMARK                            x       y       z     vdW  Elec       q    Type
REMARK                         _______ _______ _______ _____ _____    ______ ____
ROOT
ATOM      1  C   UNL     1      47.521   7.353  13.186  0.00  0.00    +0.000 A 
ATOM      2  C   UNL     1      46.753   8.506  13.278  0.00  0.00    +0.000 A 
ATOM      3  C   UNL     1      45.610   8.628  12.490  0.00  0.00    +0.000 A 
ATOM      4  C   UNL     1      45.221   7.592  11.624  0.00  0.00    +0.000 A 
ATOM      5  C   UNL     1      45.985   6.421  11.482  0.00  0.00    +0.000 A 
ATOM      6  C   UNL     1      47.162   6.359  12.265  0.00  0.00    +0.000 A 
ENDROOT
BRANCH   5   7
ATOM      7  C   UNL     1      45.535   5.246  10.662  0.00  0.00    +0.000 A 
ATOM      8  C   UNL     1      45.740   5.291   9.261  0.00  0.00    +0.000 A 
ATOM      9  C   UNL     1      45.425   4.228   8.415  0.00  0.00    +0.000 A 
ATOM     10  C   UNL     1      44.960   3.042   8.954  0.00  0.00    +0.000 A 
ATOM     11  C   UNL     1      44.762   2.945  10.328  0.00  0.00    +0.000 A 
ATOM     12  C   UNL     1      44.958   4.052  11.175  0.00  0.00    +0.000 A 
BRANCH  12  13
ATOM     13  O   UNL     1      44.619   4.010  12.502  0.00  0.00    +0.000 OA
BRANCH  13  14
ATOM     14  C   UNL     1      43.359   4.531  12.920  0.00  0.00    +0.000 C 
ATOM     15  F   UNL     1      43.406   5.786  13.417  0.00  0.00    +0.000 F 
ATOM     16  F   UNL     1      42.495   4.511  11.881  0.00  0.00    +0.000 F 
ATOM     17  F   UNL     1      42.861   3.734  13.893  0.00  0.00    +0.000 F 
ENDBRANCH  13  14
ENDBRANCH  12  13
ENDBRANCH   5   7
BRANCH   1  18
ATOM     18  O   UNL     1      48.633   7.068  13.934  0.00  0.00    +0.000 OA
BRANCH  18  19
ATOM     19  C   UNL     1      48.522   7.187  15.365  0.00  0.00    +0.000 C 
BRANCH  19  25
ATOM     20  C   UNL     1      48.846   4.995  16.675  0.00  0.00    +0.000 A 
ATOM     21  C   UNL     1      49.737   4.167  17.392  0.00  0.00    +0.000 A 
ATOM     22  C   UNL     1      51.071   4.517  17.580  0.00  0.00    +0.000 A 
ATOM     23  C   UNL     1      51.475   5.727  17.065  0.00  0.00    +0.000 A 
ATOM     24  N   UNL     1      50.655   6.573  16.394  0.00  0.00    +0.000 NA
ATOM     25  C   UNL     1      49.362   6.198  16.163  0.00  0.00    +0.000 A 
BRANCH  22  26
ATOM     26  C   UNL     1      51.967   3.574  18.297  0.00  0.00    +0.000 C 
ATOM     27  N   UNL     1      51.896   2.237  18.003  0.00  0.00    +0.000 N 
ATOM     28  O   UNL     1      52.761   3.967  19.136  0.00  0.00    +0.000 OA
ATOM     29  H   UNL     1      51.276   1.797  17.352  0.00  0.00    +0.000 HD
ATOM     30  H   UNL     1      52.522   1.631  18.539  0.00  0.00    +0.000 HD
ENDBRANCH  22  26
BRANCH  20  32
ATOM     31  C   UNL     1      47.132   4.106  15.049  0.00  0.00    +0.000 C 
ATOM     32  C   UNL     1      47.406   4.533  16.498  0.00  0.00    +0.000 C 
ATOM     33  C   UNL     1      47.042   3.447  17.520  0.00  0.00    +0.000 C 
ENDBRANCH  20  32
ENDBRANCH  19  25
ENDBRANCH  18  19
ENDBRANCH   1  18
TORSDOF 8
ENDMDL
MODEL 3
REMARK VINA RESULT:    -7.167      3.739      8.650
REMARK INTER + INTRA:         -12.036
REMARK INTER:                 -10.273
REMARK INTRA:                  -1.763
REMARK UNBOUND:                -1.516
REMARK  Name = 
REMARK  10 active torsions:
REMARK  status: ('A' for Active; 'I' for Inactive)
REMARK    1  A    between atoms: C_1  and  C_2
REMARK    2  A    between atoms: C_2  and  C_3
REMARK    3  A    between atoms: C_2  and  C_4
REMARK    4  A    between atoms: C_6  and  C_7
REMARK    5  A    between atoms: C_12  and  C_13
REMARK    6  A    between atoms: C_13  and  O_14
REMARK    7  A    between atoms: O_14  and  C_15
REMARK    8  A    between atoms: C_19  and  C_20
REMARK    9  A    between atoms: C_25  and  O_26
REMARK   10  A    between atoms: O_26  and  C_27
REMARK                            x       y       z     vdW  Elec       q    Type
REMARK                         _______ _______ _______ _____ _____    ______ ____
ROOT
ATOM      1  C   UNL     1      48.120   3.592  16.357  0.00  0.00    +0.000 A 
ATOM      2  C   UNL     1      48.787   2.388  16.540  0.00  0.00    +0.000 A 
ATOM      3  C   UNL     1      49.938   2.360  17.326  0.00  0.00    +0.000 A 
ATOM      4  C   UNL     1      50.413   3.528  17.946  0.00  0.00    +0.000 A 
ATOM      5  C   UNL     1      49.783   4.770  17.764  0.00  0.00    +0.000 A 
ATOM      6  C   UNL     1      48.646   4.763  16.920  0.00  0.00    +0.000 A 
ENDROOT
BRANCH   5   7
ATOM      7  C   UNL     1      50.189   6.010  18.508  0.00  0.00    +0.000 A 
ATOM      8  C   UNL     1      51.319   6.727  18.044  0.00  0.00    +0.000 A 
ATOM      9  C   UNL     1      51.742   7.928  18.615  0.00  0.00    +0.000 A 
ATOM     10  C   UNL     1      50.998   8.497  19.633  0.00  0.00    +0.000 A 
ATOM     11  C   UNL     1      49.868   7.838  20.107  0.00  0.00    +0.000 A 
ATOM     12  C   UNL     1      49.505   6.568  19.622  0.00  0.00    +0.000 A 
BRANCH  12  13
ATOM     13  O   UNL     1      48.487   5.847  20.189  0.00  0.00    +0.000 OA
BRANCH  13  14
ATOM     14  C   UNL     1      48.793   4.844  21.158  0.00  0.00    +0.000 C 
ATOM     15  F   UNL     1      50.093   4.792  21.521  0.00  0.00    +0.000 F 
ATOM     16  F   UNL     1      48.043   5.043  22.265  0.00  0.00    +0.000 F 
ATOM     17  F   UNL     1      48.472   3.634  20.646  0.00  0.00    +0.000 F 
ENDBRANCH  13  14
ENDBRANCH  12  13
ENDBRANCH   5   7
BRANCH   1  18
ATOM     18  O   UNL     1      46.953   3.765  15.661  0.00  0.00    +0.000 OA
BRANCH  18  19
ATOM     19  C   UNL     1      46.875   4.886  14.760  0.00  0.00    +0.000 C 
BRANCH  19  25
ATOM     20  C   UNL     1      45.993   5.583  12.445  0.00  0.00    +0.000 A 
ATOM     21  C   UNL     1      45.349   5.179  11.254  0.00  0.00    +0.000 A 
ATOM     22  C   UNL     1      44.936   3.865  11.054  0.00  0.00    +0.000 A 
ATOM     23  C   UNL     1      45.150   2.982  12.088  0.00  0.00    +0.000 A 
ATOM     24  N   UNL     1      45.735   3.322  13.262  0.00  0.00    +0.000 NA
ATOM     25  C   UNL     1      46.191   4.600  13.429  0.00  0.00    +0.000 A 
BRANCH  22  26
ATOM     26  C   UNL     1      44.315   3.497   9.757  0.00  0.00    +0.000 C 
ATOM     27  N   UNL     1      44.056   4.483   8.841  0.00  0.00    +0.000 N 
ATOM     28  O   UNL     1      44.036   2.339   9.492  0.00  0.00    +0.000 OA
ATOM     29  H   UNL     1      44.222   5.464   8.951  0.00  0.00    +0.000 HD
ATOM     30  H   UNL     1      43.611   4.176   7.972  0.00  0.00    +0.000 HD
ENDBRANCH  22  26
BRANCH  20  32
ATOM     31  C   UNL     1      47.682   7.319  11.736  0.00  0.00    +0.000 C 
ATOM     32  C   UNL     1      46.430   7.034  12.579  0.00  0.00    +0.000 C 
ATOM     33  C   UNL     1      45.273   7.994  12.272  0.00  0.00    +0.000 C 
ENDBRANCH  20  32
ENDBRANCH  19  25
ENDBRANCH  18  19
ENDBRANCH   1  18
TORSDOF 8
ENDMDL
MODEL 4
REMARK VINA RESULT:    -7.135      2.976      8.223
REMARK INTER + INTRA:         -11.989
REMARK INTER:                  -9.945
REMARK INTRA:                  -2.044
REMARK UNBOUND:                -1.516
REMARK  Name = 
REMARK  10 active torsions:
REMARK  status: ('A' for Active; 'I' for Inactive)
REMARK    1  A    between atoms: C_1  and  C_2
REMARK    2  A    between atoms: C_2  and  C_3
REMARK    3  A    between atoms: C_2  and  C_4
REMARK    4  A    between atoms: C_6  and  C_7
REMARK    5  A    between atoms: C_12  and  C_13
REMARK    6  A    between atoms: C_13  and  O_14
REMARK    7  A    between atoms: O_14  and  C_15
REMARK    8  A    between atoms: C_19  and  C_20
REMARK    9  A    between atoms: C_25  and  O_26
REMARK   10  A    between atoms: O_26  and  C_27
REMARK                            x       y       z     vdW  Elec       q    Type
REMARK                         _______ _______ _______ _____ _____    ______ ____
ROOT
ATOM      1  C   UNL     1      47.651   3.793  16.418  0.00  0.00    +0.000 A 
ATOM      2  C   UNL     1      48.118   2.800  17.269  0.00  0.00    +0.000 A 
ATOM      3  C   UNL     1      48.721   3.161  18.472  0.00  0.00    +0.000 A 
ATOM      4  C   UNL     1      48.842   4.513  18.836  0.00  0.00    +0.000 A 
ATOM      5  C   UNL     1      48.407   5.548  17.993  0.00  0.00    +0.000 A 
ATOM      6  C   UNL     1      47.844   5.139  16.761  0.00  0.00    +0.000 A 
ENDROOT
BRANCH   5   7
ATOM      7  C   UNL     1      48.408   6.993  18.404  0.00  0.00    +0.000 A 
ATOM      8  C   UNL     1      47.560   7.385  19.468  0.00  0.00    +0.000 A 
ATOM      9  C   UNL     1      47.533   8.685  19.977  0.00  0.00    +0.000 A 
ATOM     10  C   UNL     1      48.417   9.627  19.484  0.00  0.00    +0.000 A 
ATOM     11  C   UNL     1      49.283   9.281  18.451  0.00  0.00    +0.000 A 
ATOM     12  C   UNL     1      49.232   8.011  17.848  0.00  0.00    +0.000 A 
BRANCH  12  13
ATOM     13  O   UNL     1      49.972   7.713  16.735  0.00  0.00    +0.000 OA
BRANCH  13  14
ATOM     14  C   UNL     1      49.497   8.114  15.450  0.00  0.00    +0.000 C 
ATOM     15  F   UNL     1      48.155   8.235  15.359  0.00  0.00    +0.000 F 
ATOM     16  F   UNL     1      50.061   9.295  15.110  0.00  0.00    +0.000 F 
ATOM     17  F   UNL     1      49.878   7.190  14.539  0.00  0.00    +0.000 F 
ENDBRANCH  13  14
ENDBRANCH  12  13
ENDBRANCH   5   7
BRANCH   1  18
ATOM     18  O   UNL     1      46.990   3.592  15.235  0.00  0.00    +0.000 OA
BRANCH  18  19
ATOM     19  C   UNL     1      46.597   4.757  14.486  0.00  0.00    +0.000 C 
BRANCH  19  25
ATOM     20  C   UNL     1      45.858   5.465  12.124  0.00  0.00    +0.000 A 
ATOM     21  C   UNL     1      45.306   5.062  10.888  0.00  0.00    +0.000 A 
ATOM     22  C   UNL     1      44.936   3.743  10.646  0.00  0.00    +0.000 A 
ATOM     23  C   UNL     1      45.100   2.851  11.681  0.00  0.00    +0.000 A 
ATOM     24  N   UNL     1      45.596   3.189  12.897  0.00  0.00    +0.000 NA
ATOM     25  C   UNL     1      46.011   4.474  13.108  0.00  0.00    +0.000 A 
BRANCH  22  26
ATOM     26  C   UNL     1      44.413   3.378   9.305  0.00  0.00    +0.000 C 
ATOM     27  N   UNL     1      44.016   4.375   8.453  0.00  0.00    +0.000 N 
ATOM     28  O   UNL     1      44.333   2.213   8.950  0.00  0.00    +0.000 OA
ATOM     29  H   UNL     1      44.017   5.359   8.638  0.00  0.00    +0.000 HD
ATOM     30  H   UNL     1      43.647   4.066   7.550  0.00  0.00    +0.000 HD
ENDBRANCH  22  26
BRANCH  20  32
ATOM     31  C   UNL     1      47.673   7.184  11.781  0.00  0.00    +0.000 C 
ATOM     32  C   UNL     1      46.253   6.923  12.304  0.00  0.00    +0.000 C 
ATOM     33  C   UNL     1      45.208   7.862  11.686  0.00  0.00    +0.000 C 
ENDBRANCH  20  32
ENDBRANCH  19  25
ENDBRANCH  18  19
ENDBRANCH   1  18
TORSDOF 8
ENDMDL
MODEL 5
REMARK VINA RESULT:    -7.007      3.057      4.791
REMARK INTER + INTRA:         -11.801
REMARK INTER:                  -9.748
REMARK INTRA:                  -2.052
REMARK UNBOUND:                -1.516
REMARK  Name = 
REMARK  10 active torsions:
REMARK  status: ('A' for Active; 'I' for Inactive)
REMARK    1  A    between atoms: C_1  and  C_2
REMARK    2  A    between atoms: C_2  and  C_3
REMARK    3  A    between atoms: C_2  and  C_4
REMARK    4  A    between atoms: C_6  and  C_7
REMARK    5  A    between atoms: C_12  and  C_13
REMARK    6  A    between atoms: C_13  and  O_14
REMARK    7  A    between atoms: O_14  and  C_15
REMARK    8  A    between atoms: C_19  and  C_20
REMARK    9  A    between atoms: C_25  and  O_26
REMARK   10  A    between atoms: O_26  and  C_27
REMARK                            x       y       z     vdW  Elec       q    Type
REMARK                         _______ _______ _______ _____ _____    ______ ____
ROOT
ATOM      1  C   UNL     1      46.487   4.285  13.559  0.00  0.00    +0.000 A 
ATOM      2  C   UNL     1      45.559   3.874  12.612  0.00  0.00    +0.000 A 
ATOM      3  C   UNL     1      45.274   4.706  11.530  0.00  0.00    +0.000 A 
ATOM      4  C   UNL     1      45.929   5.940  11.383  0.00  0.00    +0.000 A 
ATOM      5  C   UNL     1      46.854   6.405  12.333  0.00  0.00    +0.000 A 
ATOM      6  C   UNL     1      47.078   5.551  13.439  0.00  0.00    +0.000 A 
ENDROOT
BRANCH   5   7
ATOM      7  C   UNL     1      47.661   7.658  12.143  0.00  0.00    +0.000 A 
ATOM      8  C   UNL     1      49.027   7.526  11.792  0.00  0.00    +0.000 A 
ATOM      9  C   UNL     1      49.849   8.621  11.524  0.00  0.00    +0.000 A 
ATOM     10  C   UNL     1      49.310   9.894  11.524  0.00  0.00    +0.000 A 
ATOM     11  C   UNL     1      47.967  10.070  11.844  0.00  0.00    +0.000 A 
ATOM     12  C   UNL     1      47.161   8.986  12.237  0.00  0.00    +0.000 A 
BRANCH  12  13
ATOM     13  O   UNL     1      45.885   9.170  12.699  0.00  0.00    +0.000 OA
BRANCH  13  14
ATOM     14  C   UNL     1      44.861   9.571  11.790  0.00  0.00    +0.000 C 
ATOM     15  F   UNL     1      45.294  10.310  10.746  0.00  0.00    +0.000 F 
ATOM     16  F   UNL     1      44.229   8.476  11.311  0.00  0.00    +0.000 F 
ATOM     17  F   UNL     1      43.953  10.318  12.460  0.00  0.00    +0.000 F 
ENDBRANCH  13  14
ENDBRANCH  12  13
ENDBRANCH   5   7
BRANCH   1  18
ATOM     18  O   UNL     1      46.908   3.555  14.639  0.00  0.00    +0.000 OA
BRANCH  18  19
ATOM     19  C   UNL     1      47.061   4.250  15.892  0.00  0.00    +0.000 C 
BRANCH  19  25
ATOM     20  C   UNL     1      49.249   5.248  16.808  0.00  0.00    +0.000 A 
ATOM     21  C   UNL     1      50.502   4.998  17.409  0.00  0.00    +0.000 A 
ATOM     22  C   UNL     1      50.918   3.708  17.726  0.00  0.00    +0.000 A 
ATOM     23  C   UNL     1      50.066   2.680  17.392  0.00  0.00    +0.000 A 
ATOM     24  N   UNL     1      48.866   2.862  16.787  0.00  0.00    +0.000 NA
ATOM     25  C   UNL     1      48.439   4.134  16.532  0.00  0.00    +0.000 A 
BRANCH  22  26
ATOM     26  C   UNL     1      52.224   3.521  18.406  0.00  0.00    +0.000 C 
ATOM     27  N   UNL     1      52.340   3.865  19.728  0.00  0.00    +0.000 N 
ATOM     28  O   UNL     1      53.190   3.067  17.815  0.00  0.00    +0.000 OA
ATOM     29  H   UNL     1      51.628   4.263  20.310  0.00  0.00    +0.000 HD
ATOM     30  H   UNL     1      53.266   3.733  20.142  0.00  0.00    +0.000 HD
ENDBRANCH  22  26
BRANCH  20  32
ATOM     31  C   UNL     1      48.804   7.529  17.794  0.00  0.00    +0.000 C 
ATOM     32  C   UNL     1      48.860   6.689  16.509  0.00  0.00    +0.000 C 
ATOM     33  C   UNL     1      49.773   7.300  15.437  0.00  0.00    +0.000 C 
ENDBRANCH  20  32
ENDBRANCH  19  25
ENDBRANCH  18  19
ENDBRANCH   1  18
TORSDOF 8
ENDMDL
MODEL 6
REMARK VINA RESULT:    -6.916      2.956      7.143
REMARK INTER + INTRA:         -11.667
REMARK INTER:                 -10.149
REMARK INTRA:                  -1.519
REMARK UNBOUND:                -1.516
REMARK  Name = 
REMARK  10 active torsions:
REMARK  status: ('A' for Active; 'I' for Inactive)
REMARK    1  A    between atoms: C_1  and  C_2
REMARK    2  A    between atoms: C_2  and  C_3
REMARK    3  A    between atoms: C_2  and  C_4
REMARK    4  A    between atoms: C_6  and  C_7
REMARK    5  A    between atoms: C_12  and  C_13
REMARK    6  A    between atoms: C_13  and  O_14
REMARK    7  A    between atoms: O_14  and  C_15
REMARK    8  A    between atoms: C_19  and  C_20
REMARK    9  A    between atoms: C_25  and  O_26
REMARK   10  A    between atoms: O_26  and  C_27
REMARK                            x       y       z     vdW  Elec       q    Type
REMARK                         _______ _______ _______ _____ _____    ______ ____
ROOT
ATOM      1  C   UNL     1      49.353   7.444  16.810  0.00  0.00    +0.000 A 
ATOM      2  C   UNL     1      49.376   8.097  18.034  0.00  0.00    +0.000 A 
ATOM      3  C   UNL     1      49.845   7.420  19.159  0.00  0.00    +0.000 A 
ATOM      4  C   UNL     1      50.310   6.098  19.059  0.00  0.00    +0.000 A 
ATOM      5  C   UNL     1      50.279   5.393  17.845  0.00  0.00    +0.000 A 
ATOM      6  C   UNL     1      49.751   6.101  16.738  0.00  0.00    +0.000 A 
ENDROOT
BRANCH   5   7
ATOM      7  C   UNL     1      50.881   4.027  17.676  0.00  0.00    +0.000 A 
ATOM      8  C   UNL     1      52.252   3.858  17.987  0.00  0.00    +0.000 A 
ATOM      9  C   UNL     1      52.894   2.620  17.934  0.00  0.00    +0.000 A 
ATOM     10  C   UNL     1      52.161   1.485  17.639  0.00  0.00    +0.000 A 
ATOM     11  C   UNL     1      50.806   1.601  17.347  0.00  0.00    +0.000 A 
ATOM     12  C   UNL     1      50.177   2.857  17.276  0.00  0.00    +0.000 A 
BRANCH  12  13
ATOM     13  O   UNL     1      48.886   2.991  16.840  0.00  0.00    +0.000 OA
BRANCH  13  14
ATOM     14  C   UNL     1      47.834   3.124  17.796  0.00  0.00    +0.000 C 
ATOM     15  F   UNL     1      48.237   3.084  19.084  0.00  0.00    +0.000 F 
ATOM     16  F   UNL     1      47.177   4.287  17.585  0.00  0.00    +0.000 F 
ATOM     17  F   UNL     1      46.957   2.110  17.619  0.00  0.00    +0.000 F 
ENDBRANCH  13  14
ENDBRANCH  12  13
ENDBRANCH   5   7
BRANCH   1  18
ATOM     18  O   UNL     1      48.974   7.993  15.613  0.00  0.00    +0.000 OA
BRANCH  18  19
ATOM     19  C   UNL     1      49.115   7.180  14.433  0.00  0.00    +0.000 C 
BRANCH  19  25
ATOM     20  C   UNL     1      46.804   7.092  13.305  0.00  0.00    +0.000 A 
ATOM     21  C   UNL     1      45.690   6.299  12.950  0.00  0.00    +0.000 A 
ATOM     22  C   UNL     1      45.630   4.942  13.256  0.00  0.00    +0.000 A 
ATOM     23  C   UNL     1      46.692   4.415  13.955  0.00  0.00    +0.000 A 
ATOM     24  N   UNL     1      47.771   5.137  14.346  0.00  0.00    +0.000 NA
ATOM     25  C   UNL     1      47.850   6.454  13.992  0.00  0.00    +0.000 A 
BRANCH  22  26
ATOM     26  C   UNL     1      44.455   4.156  12.806  0.00  0.00    +0.000 C 
ATOM     27  N   UNL     1      44.631   2.845  12.443  0.00  0.00    +0.000 N 
ATOM     28  O   UNL     1      43.340   4.650  12.755  0.00  0.00    +0.000 OA
ATOM     29  H   UNL     1      45.495   2.338  12.425  0.00  0.00    +0.000 HD
ATOM     30  H   UNL     1      43.792   2.356  12.123  0.00  0.00    +0.000 HD
ENDBRANCH  22  26
BRANCH  20  32
ATOM     31  C   UNL     1      47.794   8.844  11.781  0.00  0.00    +0.000 C 
ATOM     32  C   UNL     1      46.800   8.564  12.918  0.00  0.00    +0.000 C 
ATOM     33  C   UNL     1      45.380   9.053  12.603  0.00  0.00    +0.000 C 
ENDBRANCH  20  32
ENDBRANCH  19  25
ENDBRANCH  18  19
ENDBRANCH   1  18
TORSDOF 8
ENDMDL
MODEL 7
REMARK VINA RESULT:    -6.885      3.281      8.558
REMARK INTER + INTRA:         -11.622
REMARK INTER:                  -9.548
REMARK INTRA:                  -2.073
REMARK UNBOUND:                -1.516
REMARK  Name = 
REMARK  10 active torsions:
REMARK  status: ('A' for Active; 'I' for Inactive)
REMARK    1  A    between atoms: C_1  and  C_2
REMARK    2  A    between atoms: C_2  and  C_3
REMARK    3  A    between atoms: C_2  and  C_4
REMARK    4  A    between atoms: C_6  and  C_7
REMARK    5  A    between atoms: C_12  and  C_13
REMARK    6  A    between atoms: C_13  and  O_14
REMARK    7  A    between atoms: O_14  and  C_15
REMARK    8  A    between atoms: C_19  and  C_20
REMARK    9  A    between atoms: C_25  and  O_26
REMARK   10  A    between atoms: O_26  and  C_27
REMARK                            x       y       z     vdW  Elec       q    Type
REMARK                         _______ _______ _______ _____ _____    ______ ____
ROOT
ATOM      1  C   UNL     1      47.601   3.778  16.386  0.00  0.00    +0.000 A 
ATOM      2  C   UNL     1      48.518   2.757  16.594  0.00  0.00    +0.000 A 
ATOM      3  C   UNL     1      49.415   2.852  17.656  0.00  0.00    +0.000 A 
ATOM      4  C   UNL     1      49.386   3.957  18.523  0.00  0.00    +0.000 A 
ATOM      5  C   UNL     1      48.492   5.023  18.333  0.00  0.00    +0.000 A 
ATOM      6  C   UNL     1      47.631   4.909  17.215  0.00  0.00    +0.000 A 
ENDROOT
BRANCH   5   7
ATOM      7  C   UNL     1      48.350   6.156  19.309  0.00  0.00    +0.000 A 
ATOM      8  C   UNL     1      47.476   5.983  20.410  0.00  0.00    +0.000 A 
ATOM      9  C   UNL     1      47.323   6.941  21.413  0.00  0.00    +0.000 A 
ATOM     10  C   UNL     1      48.101   8.084  21.389  0.00  0.00    +0.000 A 
ATOM     11  C   UNL     1      48.988   8.287  20.336  0.00  0.00    +0.000 A 
ATOM     12  C   UNL     1      49.060   7.387  19.256  0.00  0.00    +0.000 A 
BRANCH  12  13
ATOM     13  O   UNL     1      49.816   7.656  18.146  0.00  0.00    +0.000 OA
BRANCH  13  14
ATOM     14  C   UNL     1      49.273   8.474  17.110  0.00  0.00    +0.000 C 
ATOM     15  F   UNL     1      49.809   9.711  17.031  0.00  0.00    +0.000 F 
ATOM     16  F   UNL     1      49.434   7.857  15.918  0.00  0.00    +0.000 F 
ATOM     17  F   UNL     1      47.946   8.626  17.327  0.00  0.00    +0.000 F 
ENDBRANCH  13  14
ENDBRANCH  12  13
ENDBRANCH   5   7
BRANCH   1  18
ATOM     18  O   UNL     1      46.626   3.799  15.424  0.00  0.00    +0.000 OA
BRANCH  18  19
ATOM     19  C   UNL     1      47.029   4.103  14.075  0.00  0.00    +0.000 C 
BRANCH  19  25
ATOM     20  C   UNL     1      45.373   5.700  12.922  0.00  0.00    +0.000 A 
ATOM     21  C   UNL     1      45.100   7.021  12.504  0.00  0.00    +0.000 A 
ATOM     22  C   UNL     1      46.000   8.060  12.726  0.00  0.00    +0.000 A 
ATOM     23  C   UNL     1      47.188   7.733  13.340  0.00  0.00    +0.000 A 
ATOM     24  N   UNL     1      47.513   6.477  13.733  0.00  0.00    +0.000 NA
ATOM     25  C   UNL     1      46.601   5.473  13.565  0.00  0.00    +0.000 A 
BRANCH  22  26
ATOM     26  C   UNL     1      45.627   9.435  12.311  0.00  0.00    +0.000 C 
ATOM     27  N   UNL     1      44.353   9.880  12.554  0.00  0.00    +0.000 N 
ATOM     28  O   UNL     1      46.429  10.173  11.763  0.00  0.00    +0.000 OA
ATOM     29  H   UNL     1      43.607   9.363  12.977  0.00  0.00    +0.000 HD
ATOM     30  H   UNL     1      44.145  10.828  12.231  0.00  0.00    +0.000 HD
ENDBRANCH  22  26
BRANCH  20  32
ATOM     31  C   UNL     1      42.910   5.148  12.921  0.00  0.00    +0.000 C 
ATOM     32  C   UNL     1      44.330   4.624  12.658  0.00  0.00    +0.000 C 
ATOM     33  C   UNL     1      44.493   4.023  11.254  0.00  0.00    +0.000 C 
ENDBRANCH  20  32
ENDBRANCH  19  25
ENDBRANCH  18  19
ENDBRANCH   1  18
TORSDOF 8
ENDMDL
MODEL 8
REMARK VINA RESULT:    -6.825      1.938      2.737
REMARK INTER + INTRA:         -11.533
REMARK INTER:                 -10.065
REMARK INTRA:                  -1.468
REMARK UNBOUND:                -1.516
REMARK  Name = 
REMARK  10 active torsions:
REMARK  status: ('A' for Active; 'I' for Inactive)
REMARK    1  A    between atoms: C_1  and  C_2
REMARK    2  A    between atoms: C_2  and  C_3
REMARK    3  A    between atoms: C_2  and  C_4
REMARK    4  A    between atoms: C_6  and  C_7
REMARK    5  A    between atoms: C_12  and  C_13
REMARK    6  A    between atoms: C_13  and  O_14
REMARK    7  A    between atoms: O_14  and  C_15
REMARK    8  A    between atoms: C_19  and  C_20
REMARK    9  A    between atoms: C_25  and  O_26
REMARK   10  A    between atoms: O_26  and  C_27
REMARK                            x       y       z     vdW  Elec       q    Type
REMARK                         _______ _______ _______ _____ _____    ______ ____
ROOT
ATOM      1  C   UNL     1      47.635   6.727  13.634  0.00  0.00    +0.000 A 
ATOM      2  C   UNL     1      47.272   8.061  13.756  0.00  0.00    +0.000 A 
ATOM      3  C   UNL     1      46.401   8.618  12.820  0.00  0.00    +0.000 A 
ATOM      4  C   UNL     1      45.877   7.840  11.775  0.00  0.00    +0.000 A 
ATOM      5  C   UNL     1      46.240   6.494  11.601  0.00  0.00    +0.000 A 
ATOM      6  C   UNL     1      47.162   5.981  12.544  0.00  0.00    +0.000 A 
ENDROOT
BRANCH   5   7
ATOM      7  C   UNL     1      45.605   5.602  10.572  0.00  0.00    +0.000 A 
ATOM      8  C   UNL     1      46.261   5.448   9.327  0.00  0.00    +0.000 A 
ATOM      9  C   UNL     1      45.798   4.591   8.328  0.00  0.00    +0.000 A 
ATOM     10  C   UNL     1      44.694   3.794   8.571  0.00  0.00    +0.000 A 
ATOM     11  C   UNL     1      44.030   3.897   9.790  0.00  0.00    +0.000 A 
ATOM     12  C   UNL     1      44.414   4.847  10.754  0.00  0.00    +0.000 A 
BRANCH  12  13
ATOM     13  O   UNL     1      43.675   5.060  11.887  0.00  0.00    +0.000 OA
BRANCH  13  14
ATOM     14  C   UNL     1      43.812   4.166  12.992  0.00  0.00    +0.000 C 
ATOM     15  F   UNL     1      44.007   2.875  12.649  0.00  0.00    +0.000 F 
ATOM     16  F   UNL     1      44.841   4.567  13.771  0.00  0.00    +0.000 F 
ATOM     17  F   UNL     1      42.681   4.217  13.733  0.00  0.00    +0.000 F 
ENDBRANCH  13  14
ENDBRANCH  12  13
ENDBRANCH   5   7
BRANCH   1  18
ATOM     18  O   UNL     1      48.432   6.029  14.503  0.00  0.00    +0.000 OA
BRANCH  18  19
ATOM     19  C   UNL     1      49.219   6.789  15.440  0.00  0.00    +0.000 C 
BRANCH  19  25
ATOM     20  C   UNL     1      48.553   5.528  17.582  0.00  0.00    +0.000 A 
ATOM     21  C   UNL     1      48.106   5.622  18.920  0.00  0.00    +0.000 A 
ATOM     22  C   UNL     1      47.867   6.851  19.527  0.00  0.00    +0.000 A 
ATOM     23  C   UNL     1      48.050   7.974  18.753  0.00  0.00    +0.000 A 
ATOM     24  N   UNL     1      48.447   7.940  17.457  0.00  0.00    +0.000 NA
ATOM     25  C   UNL     1      48.737   6.733  16.885  0.00  0.00    +0.000 A 
BRANCH  22  26
ATOM     26  C   UNL     1      47.452   6.879  20.952  0.00  0.00    +0.000 C 
ATOM     27  N   UNL     1      47.415   8.081  21.610  0.00  0.00    +0.000 N 
ATOM     28  O   UNL     1      47.143   5.857  21.544  0.00  0.00    +0.000 OA
ATOM     29  H   UNL     1      47.662   8.977  21.238  0.00  0.00    +0.000 HD
ATOM     30  H   UNL     1      47.140   8.040  22.595  0.00  0.00    +0.000 HD
ENDBRANCH  22  26
BRANCH  20  32
ATOM     31  C   UNL     1      50.005   3.466  17.677  0.00  0.00    +0.000 C 
ATOM     32  C   UNL     1      48.809   4.148  16.996  0.00  0.00    +0.000 C 
ATOM     33  C   UNL     1      47.538   3.287  17.024  0.00  0.00    +0.000 C 
ENDBRANCH  20  32
ENDBRANCH  19  25
ENDBRANCH  18  19
ENDBRANCH   1  18
TORSDOF 8
ENDMDL
MODEL 9
REMARK VINA RESULT:    -6.617      2.255      2.892
REMARK INTER + INTRA:         -11.228
REMARK INTER:                 -10.112
REMARK INTRA:                  -1.116
REMARK UNBOUND:                -1.516
REMARK  Name = 
REMARK  10 active torsions:
REMARK  status: ('A' for Active; 'I' for Inactive)
REMARK    1  A    between atoms: C_1  and  C_2
REMARK    2  A    between atoms: C_2  and  C_3
REMARK    3  A    between atoms: C_2  and  C_4
REMARK    4  A    between atoms: C_6  and  C_7
REMARK    5  A    between atoms: C_12  and  C_13
REMARK    6  A    between atoms: C_13  and  O_14
REMARK    7  A    between atoms: O_14  and  C_15
REMARK    8  A    between atoms: C_19  and  C_20
REMARK    9  A    between atoms: C_25  and  O_26
REMARK   10  A    between atoms: O_26  and  C_27
REMARK                            x       y       z     vdW  Elec       q    Type
REMARK                         _______ _______ _______ _____ _____    ______ ____
ROOT
ATOM      1  C   UNL     1      48.093   6.969  13.053  0.00  0.00    +0.000 A 
ATOM      2  C   UNL     1      47.656   8.263  12.805  0.00  0.00    +0.000 A 
ATOM      3  C   UNL     1      46.430   8.458  12.171  0.00  0.00    +0.000 A 
ATOM      4  C   UNL     1      45.631   7.364  11.801  0.00  0.00    +0.000 A 
ATOM      5  C   UNL     1      46.049   6.039  12.010  0.00  0.00    +0.000 A 
ATOM      6  C   UNL     1      47.319   5.885  12.613  0.00  0.00    +0.000 A 
ENDROOT
BRANCH   5   7
ATOM      7  C   UNL     1      45.168   4.852  11.741  0.00  0.00    +0.000 A 
ATOM      8  C   UNL     1      44.554   4.212  12.845  0.00  0.00    +0.000 A 
ATOM      9  C   UNL     1      43.663   3.147  12.704  0.00  0.00    +0.000 A 
ATOM     10  C   UNL     1      43.295   2.730  11.439  0.00  0.00    +0.000 A 
ATOM     11  C   UNL     1      43.858   3.344  10.324  0.00  0.00    +0.000 A 
ATOM     12  C   UNL     1      44.849   4.333  10.456  0.00  0.00    +0.000 A 
BRANCH  12  13
ATOM     13  O   UNL     1      45.516   4.831   9.369  0.00  0.00    +0.000 OA
BRANCH  13  14
ATOM     14  C   UNL     1      45.787   3.975   8.259  0.00  0.00    +0.000 C 
ATOM     15  F   UNL     1      44.733   3.766   7.441  0.00  0.00    +0.000 F 
ATOM     16  F   UNL     1      46.804   4.488   7.532  0.00  0.00    +0.000 F 
ATOM     17  F   UNL     1      46.175   2.767   8.728  0.00  0.00    +0.000 F 
ENDBRANCH  13  14
ENDBRANCH  12  13
ENDBRANCH   5   7
BRANCH   1  18
ATOM     18  O   UNL     1      49.242   6.622  13.713  0.00  0.00    +0.000 OA
BRANCH  18  19
ATOM     19  C   UNL     1      49.599   7.392  14.878  0.00  0.00    +0.000 C 
BRANCH  19  25
ATOM     20  C   UNL     1      49.772   7.243  17.441  0.00  0.00    +0.000 A 
ATOM     21  C   UNL     1      49.514   6.480  18.601  0.00  0.00    +0.000 A 
ATOM     22  C   UNL     1      48.901   5.232  18.536  0.00  0.00    +0.000 A 
ATOM     23  C   UNL     1      48.589   4.757  17.282  0.00  0.00    +0.000 A 
ATOM     24  N   UNL     1      48.841   5.434  16.135  0.00  0.00    +0.000 NA
ATOM     25  C   UNL     1      49.390   6.683  16.210  0.00  0.00    +0.000 A 
BRANCH  22  26
ATOM     26  C   UNL     1      48.609   4.508  19.798  0.00  0.00    +0.000 C 
ATOM     27  N   UNL     1      48.478   3.143  19.767  0.00  0.00    +0.000 N 
ATOM     28  O   UNL     1      48.488   5.101  20.858  0.00  0.00    +0.000 OA
ATOM     29  H   UNL     1      48.537   2.553  18.960  0.00  0.00    +0.000 HD
ATOM     30  H   UNL     1      48.259   2.698  20.661  0.00  0.00    +0.000 HD
ENDBRANCH  22  26
BRANCH  20  32
ATOM     31  C   UNL     1      49.389   9.697  17.889  0.00  0.00    +0.000 C 
ATOM     32  C   UNL     1      50.430   8.606  17.598  0.00  0.00    +0.000 C 
ATOM     33  C   UNL     1      51.555   8.562  18.642  0.00  0.00    +0.000 C 
ENDBRANCH  20  32
ENDBRANCH  19  25
ENDBRANCH  18  19
ENDBRANCH   1  18
TORSDOF 8
ENDMDL
