MODEL 1
REMARK VINA RESULT:    -7.243      0.000      0.000
REMARK INTER + INTRA:         -11.162
REMARK INTER:                  -9.995
REMARK INTRA:                  -1.167
REMARK UNBOUND:                -1.167
REMARK  Name = 
REMARK  7 active torsions:
REMARK  status: ('A' for Active; 'I' for Inactive)
REMARK    1  A    between atoms: C_2  and  C_4
REMARK    2  A    between atoms: C_8  and  C_9
REMARK    3  A    between atoms: C_9  and  C_10
REMARK    4  A    between atoms: C_10  and  C_11
REMARK    5  A    between atoms: C_11  and  C_12
REMARK    6  A    between atoms: C_16  and  C_17
REMARK    7  A    between atoms: C_17  and  N_18
REMARK                            x       y       z     vdW  Elec       q    Type
REMARK                         _______ _______ _______ _____ _____    ______ ____
ROOT
ATOM      1  C   UNL     1      43.794   2.799  10.896  0.00  0.00    +0.000 C 
ENDROOT
BRANCH   1   6
ATOM      2  C   UNL     1      46.275   2.221   8.059  0.00  0.00    +0.000 A 
ATOM      3  C   UNL     1      46.445   3.514   7.563  0.00  0.00    +0.000 A 
ATOM      4  C   UNL     1      45.763   4.580   8.152  0.00  0.00    +0.000 A 
ATOM      5  C   UNL     1      44.916   4.354   9.237  0.00  0.00    +0.000 A 
ATOM      6  C   UNL     1      44.752   3.061   9.758  0.00  0.00    +0.000 A 
ATOM      7  C   UNL     1      45.445   1.998   9.165  0.00  0.00    +0.000 A 
BRANCH   2   9
ATOM      8  N   UNL     1      46.691  -0.130   7.761  0.00  0.00    +0.000 NA
ATOM      9  C   UNL     1      46.947   1.075   7.381  0.00  0.00    +0.000 C 
ATOM     10  N   UNL     1      47.858   1.307   6.390  0.00  0.00    +0.000 N 
ATOM     11  H   UNL     1      47.207  -0.791   7.177  0.00  0.00    +0.000 HD
ATOM     12  H   UNL     1      48.533   0.568   6.248  0.00  0.00    +0.000 HD
ATOM     13  H   UNL     1      48.313   2.215   6.430  0.00  0.00    +0.000 HD
ENDBRANCH   2   9
ENDBRANCH   1   6
BRANCH   1  14
ATOM     14  C   UNL     1      43.130   4.100  11.357  0.00  0.00    +0.000 C 
BRANCH  14  15
ATOM     15  C   UNL     1      43.480   4.430  12.807  0.00  0.00    +0.000 C 
BRANCH  15  16
ATOM     16  C   UNL     1      44.752   5.235  12.911  0.00  0.00    +0.000 A 
ATOM     17  C   UNL     1      45.952   4.631  13.309  0.00  0.00    +0.000 A 
ATOM     18  C   UNL     1      47.131   5.375  13.365  0.00  0.00    +0.000 A 
ATOM     19  C   UNL     1      47.127   6.727  13.018  0.00  0.00    +0.000 A 
ATOM     20  C   UNL     1      45.938   7.355  12.626  0.00  0.00    +0.000 A 
ATOM     21  C   UNL     1      44.752   6.602  12.602  0.00  0.00    +0.000 A 
BRANCH  20  22
ATOM     22  C   UNL     1      45.920   8.810  12.230  0.00  0.00    +0.000 C 
BRANCH  22  23
ATOM     23  N   UNL     1      44.785   9.508  12.826  0.00  0.00    +0.000 NA
ATOM     24  H   UNL     1      44.981   9.662  13.815  0.00  0.00    +0.000 HD
ATOM     25  H   UNL     1      43.961   8.915  12.780  0.00  0.00    +0.000 HD
ENDBRANCH  22  23
ENDBRANCH  20  22
ENDBRANCH  15  16
ENDBRANCH  14  15
ENDBRANCH   1  14
TORSDOF 7
ENDMDL
MODEL 2
REMARK VINA RESULT:    -7.203      1.915      2.394
REMARK INTER + INTRA:         -11.107
REMARK INTER:                 -10.004
REMARK INTRA:                  -1.103
REMARK UNBOUND:                -1.167
REMARK  Name = 
REMARK  7 active torsions:
REMARK  status: ('A' for Active; 'I' for Inactive)
REMARK    1  A    between atoms: C_2  and  C_4
REMARK    2  A    between atoms: C_8  and  C_9
REMARK    3  A    between atoms: C_9  and  C_10
REMARK    4  A    between atoms: C_10  and  C_11
REMARK    5  A    between atoms: C_11  and  C_12
REMARK    6  A    between atoms: C_16  and  C_17
REMARK    7  A    between atoms: C_17  and  N_18
REMARK                            x       y       z     vdW  Elec       q    Type
REMARK                         _______ _______ _______ _____ _____    ______ ____
ROOT
ATOM      1  C   UNL     1      43.973   3.210  10.323  0.00  0.00    +0.000 C 
ENDROOT
BRANCH   1   6
ATOM      2  C   UNL     1      46.494   2.051   7.708  0.00  0.00    +0.000 A 
ATOM      3  C   UNL     1      46.909   3.264   7.157  0.00  0.00    +0.000 A 
ATOM      4  C   UNL     1      46.380   4.464   7.637  0.00  0.00    +0.000 A 
ATOM      5  C   UNL     1      45.441   4.450   8.668  0.00  0.00    +0.000 A 
ATOM      6  C   UNL     1      45.030   3.238   9.245  0.00  0.00    +0.000 A 
ATOM      7  C   UNL     1      45.572   2.039   8.762  0.00  0.00    +0.000 A 
BRANCH   2   9
ATOM      8  N   UNL     1      46.809  -0.333   7.782  0.00  0.00    +0.000 NA
ATOM      9  C   UNL     1      47.006   0.770   7.143  0.00  0.00    +0.000 C 
ATOM     10  N   UNL     1      47.712   0.772   5.973  0.00  0.00    +0.000 N 
ATOM     11  H   UNL     1      47.194  -1.113   7.246  0.00  0.00    +0.000 HD
ATOM     12  H   UNL     1      48.336  -0.013   5.849  0.00  0.00    +0.000 HD
ATOM     13  H   UNL     1      48.179   1.648   5.757  0.00  0.00    +0.000 HD
ENDBRANCH   2   9
ENDBRANCH   1   6
BRANCH   1  14
ATOM     14  C   UNL     1      43.442   4.621  10.598  0.00  0.00    +0.000 C 
BRANCH  14  15
ATOM     15  C   UNL     1      43.547   4.985  12.078  0.00  0.00    +0.000 C 
BRANCH  15  16
ATOM     16  C   UNL     1      44.966   5.305  12.481  0.00  0.00    +0.000 A 
ATOM     17  C   UNL     1      45.735   6.210  11.739  0.00  0.00    +0.000 A 
ATOM     18  C   UNL     1      47.032   6.529  12.141  0.00  0.00    +0.000 A 
ATOM     19  C   UNL     1      47.573   5.953  13.292  0.00  0.00    +0.000 A 
ATOM     20  C   UNL     1      46.827   5.038  14.046  0.00  0.00    +0.000 A 
ATOM     21  C   UNL     1      45.532   4.703  13.613  0.00  0.00    +0.000 A 
BRANCH  20  22
ATOM     22  C   UNL     1      47.390   4.422  15.301  0.00  0.00    +0.000 C 
BRANCH  22  23
ATOM     23  N   UNL     1      47.741   3.019  15.093  0.00  0.00    +0.000 NA
ATOM     24  H   UNL     1      47.731   2.545  15.996  0.00  0.00    +0.000 HD
ATOM     25  H   UNL     1      48.692   2.958  14.740  0.00  0.00    +0.000 HD
ENDBRANCH  22  23
ENDBRANCH  20  22
ENDBRANCH  15  16
ENDBRANCH  14  15
ENDBRANCH   1  14
TORSDOF 7
ENDMDL
MODEL 3
REMARK VINA RESULT:    -7.064      2.338      6.564
REMARK INTER + INTRA:         -10.915
REMARK INTER:                  -9.843
REMARK INTRA:                  -1.072
REMARK UNBOUND:                -1.167
REMARK  Name = 
REMARK  7 active torsions:
REMARK  status: ('A' for Active; 'I' for Inactive)
REMARK    1  A    between atoms: C_2  and  C_4
REMARK    2  A    between atoms: C_8  and  C_9
REMARK    3  A    between atoms: C_9  and  C_10
REMARK    4  A    between atoms: C_10  and  C_11
REMARK    5  A    between atoms: C_11  and  C_12
REMARK    6  A    between atoms: C_16  and  C_17
REMARK    7  A    between atoms: C_17  and  N_18
REMARK                            x       y       z     vdW  Elec       q    Type
REMARK                         _______ _______ _______ _____ _____    ______ ____
ROOT
ATOM      1  C   UNL     1      43.385   4.369  11.776  0.00  0.00    +0.000 C 
ENDROOT
BRANCH   1   6
ATOM      2  C   UNL     1      46.544   4.935  13.836  0.00  0.00    +0.000 A 
ATOM      3  C   UNL     1      47.146   5.990  13.148  0.00  0.00    +0.000 A 
ATOM      4  C   UNL     1      46.526   6.528  12.020  0.00  0.00    +0.000 A 
ATOM      5  C   UNL     1      45.305   6.015  11.582  0.00  0.00    +0.000 A 
ATOM      6  C   UNL     1      44.678   4.968  12.275  0.00  0.00    +0.000 A 
ATOM      7  C   UNL     1      45.305   4.438  13.411  0.00  0.00    +0.000 A 
BRANCH   2   9
ATOM      8  N   UNL     1      47.677   3.102  14.907  0.00  0.00    +0.000 NA
ATOM      9  C   UNL     1      47.244   4.314  14.996  0.00  0.00    +0.000 C 
ATOM     10  N   UNL     1      47.392   5.015  16.160  0.00  0.00    +0.000 N 
ATOM     11  H   UNL     1      48.155   2.844  15.772  0.00  0.00    +0.000 HD
ATOM     12  H   UNL     1      47.510   4.448  16.988  0.00  0.00    +0.000 HD
ATOM     13  H   UNL     1      46.701   5.744  16.311  0.00  0.00    +0.000 HD
ENDBRANCH   2   9
ENDBRANCH   1   6
BRANCH   1  14
ATOM     14  C   UNL     1      43.505   3.974  10.301  0.00  0.00    +0.000 C 
BRANCH  14  15
ATOM     15  C   UNL     1      44.433   2.775  10.110  0.00  0.00    +0.000 C 
BRANCH  15  16
ATOM     16  C   UNL     1      45.377   2.972   8.949  0.00  0.00    +0.000 A 
ATOM     17  C   UNL     1      45.744   4.257   8.533  0.00  0.00    +0.000 A 
ATOM     18  C   UNL     1      46.647   4.429   7.483  0.00  0.00    +0.000 A 
ATOM     19  C   UNL     1      47.199   3.318   6.842  0.00  0.00    +0.000 A 
ATOM     20  C   UNL     1      46.840   2.022   7.235  0.00  0.00    +0.000 A 
ATOM     21  C   UNL     1      45.907   1.864   8.274  0.00  0.00    +0.000 A 
BRANCH  20  22
ATOM     22  C   UNL     1      47.441   0.812   6.565  0.00  0.00    +0.000 C 
BRANCH  22  23
ATOM     23  N   UNL     1      48.198   1.185   5.373  0.00  0.00    +0.000 NA
ATOM     24  H   UNL     1      47.634   0.969   4.551  0.00  0.00    +0.000 HD
ATOM     25  H   UNL     1      49.035   0.613   5.312  0.00  0.00    +0.000 HD
ENDBRANCH  22  23
ENDBRANCH  20  22
ENDBRANCH  15  16
ENDBRANCH  14  15
ENDBRANCH   1  14
TORSDOF 7
ENDMDL
MODEL 4
REMARK VINA RESULT:    -6.352      1.831      2.436
REMARK INTER + INTRA:          -9.933
REMARK INTER:                  -8.866
REMARK INTRA:                  -1.067
REMARK UNBOUND:                -1.167
REMARK  Name = 
REMARK  7 active torsions:
REMARK  status: ('A' for Active; 'I' for Inactive)
REMARK    1  A    between atoms: C_2  and  C_4
REMARK    2  A    between atoms: C_8  and  C_9
REMARK    3  A    between atoms: C_9  and  C_10
REMARK    4  A    between atoms: C_10  and  C_11
REMARK    5  A    between atoms: C_11  and  C_12
REMARK    6  A    between atoms: C_16  and  C_17
REMARK    7  A    between atoms: C_17  and  N_18
REMARK                            x       y       z     vdW  Elec       q    Type
REMARK                         _______ _______ _______ _____ _____    ______ ____
ROOT
ATOM      1  C   UNL     1      44.940   4.811   9.128  0.00  0.00    +0.000 C 
ENDROOT
BRANCH   1   6
ATOM      2  C   UNL     1      46.929   2.181   7.213  0.00  0.00    +0.000 A 
ATOM      3  C   UNL     1      46.390   0.996   7.715  0.00  0.00    +0.000 A 
ATOM      4  C   UNL     1      45.372   1.045   8.670  0.00  0.00    +0.000 A 
ATOM      5  C   UNL     1      44.893   2.276   9.119  0.00  0.00    +0.000 A 
ATOM      6  C   UNL     1      45.413   3.475   8.607  0.00  0.00    +0.000 A 
ATOM      7  C   UNL     1      46.429   3.417   7.644  0.00  0.00    +0.000 A 
BRANCH   2   9
ATOM      8  N   UNL     1      48.022   1.303   5.258  0.00  0.00    +0.000 NA
ATOM      9  C   UNL     1      48.066   2.126   6.250  0.00  0.00    +0.000 C 
ATOM     10  N   UNL     1      49.163   2.917   6.442  0.00  0.00    +0.000 N 
ATOM     11  H   UNL     1      48.859   1.414   4.682  0.00  0.00    +0.000 HD
ATOM     12  H   UNL     1      50.015   2.576   6.017  0.00  0.00    +0.000 HD
ATOM     13  H   UNL     1      49.323   3.202   7.404  0.00  0.00    +0.000 HD
ENDBRANCH   2   9
ENDBRANCH   1   6
BRANCH   1  14
ATOM     14  C   UNL     1      43.655   4.650   9.947  0.00  0.00    +0.000 C 
BRANCH  14  15
ATOM     15  C   UNL     1      43.681   5.504  11.213  0.00  0.00    +0.000 C 
BRANCH  15  16
ATOM     16  C   UNL     1      44.872   5.184  12.084  0.00  0.00    +0.000 A 
ATOM     17  C   UNL     1      45.093   3.881  12.547  0.00  0.00    +0.000 A 
ATOM     18  C   UNL     1      46.217   3.587  13.319  0.00  0.00    +0.000 A 
ATOM     19  C   UNL     1      47.136   4.590  13.633  0.00  0.00    +0.000 A 
ATOM     20  C   UNL     1      46.933   5.903  13.189  0.00  0.00    +0.000 A 
ATOM     21  C   UNL     1      45.781   6.191  12.437  0.00  0.00    +0.000 A 
BRANCH  20  22
ATOM     22  C   UNL     1      47.925   6.993  13.504  0.00  0.00    +0.000 C 
BRANCH  22  23
ATOM     23  N   UNL     1      49.278   6.610  13.111  0.00  0.00    +0.000 NA
ATOM     24  H   UNL     1      49.610   5.890  13.753  0.00  0.00    +0.000 HD
ATOM     25  H   UNL     1      49.900   7.407  13.217  0.00  0.00    +0.000 HD
ENDBRANCH  22  23
ENDBRANCH  20  22
ENDBRANCH  15  16
ENDBRANCH  14  15
ENDBRANCH   1  14
TORSDOF 7
ENDMDL
MODEL 5
REMARK VINA RESULT:    -6.198      3.274      6.811
REMARK INTER + INTRA:          -9.720
REMARK INTER:                  -8.962
REMARK INTRA:                  -0.758
REMARK UNBOUND:                -1.167
REMARK  Name = 
REMARK  7 active torsions:
REMARK  status: ('A' for Active; 'I' for Inactive)
REMARK    1  A    between atoms: C_2  and  C_4
REMARK    2  A    between atoms: C_8  and  C_9
REMARK    3  A    between atoms: C_9  and  C_10
REMARK    4  A    between atoms: C_10  and  C_11
REMARK    5  A    between atoms: C_11  and  C_12
REMARK    6  A    between atoms: C_16  and  C_17
REMARK    7  A    between atoms: C_17  and  N_18
REMARK                            x       y       z     vdW  Elec       q    Type
REMARK                         _______ _______ _______ _____ _____    ______ ____
ROOT
ATOM      1  C   UNL     1      46.684   6.059  12.565  0.00  0.00    +0.000 C 
ENDROOT
BRANCH   1   6
ATOM      2  C   UNL     1      47.805   4.611  15.910  0.00  0.00    +0.000 A 
ATOM      3  C   UNL     1      48.647   5.616  16.386  0.00  0.00    +0.000 A 
ATOM      4  C   UNL     1      48.848   6.772  15.630  0.00  0.00    +0.000 A 
ATOM      5  C   UNL     1      48.205   6.923  14.401  0.00  0.00    +0.000 A 
ATOM      6  C   UNL     1      47.339   5.929  13.919  0.00  0.00    +0.000 A 
ATOM      7  C   UNL     1      47.138   4.775  14.688  0.00  0.00    +0.000 A 
BRANCH   2   9
ATOM      8  N   UNL     1      46.598   3.166  17.408  0.00  0.00    +0.000 NA
ATOM      9  C   UNL     1      47.651   3.347  16.685  0.00  0.00    +0.000 C 
ATOM     10  N   UNL     1      48.640   2.404  16.658  0.00  0.00    +0.000 N 
ATOM     11  H   UNL     1      46.637   2.243  17.845  0.00  0.00    +0.000 HD
ATOM     12  H   UNL     1      48.665   1.788  17.459  0.00  0.00    +0.000 HD
ATOM     13  H   UNL     1      49.566   2.761  16.442  0.00  0.00    +0.000 HD
ENDBRANCH   2   9
ENDBRANCH   1   6
BRANCH   1  14
ATOM     14  C   UNL     1      45.159   6.105  12.702  0.00  0.00    +0.000 C 
BRANCH  14  15
ATOM     15  C   UNL     1      44.469   6.125  11.340  0.00  0.00    +0.000 C 
BRANCH  15  16
ATOM     16  C   UNL     1      44.540   4.784  10.652  0.00  0.00    +0.000 A 
ATOM     17  C   UNL     1      43.937   3.654  11.220  0.00  0.00    +0.000 A 
ATOM     18  C   UNL     1      43.975   2.426  10.558  0.00  0.00    +0.000 A 
ATOM     19  C   UNL     1      44.608   2.314   9.319  0.00  0.00    +0.000 A 
ATOM     20  C   UNL     1      45.227   3.428   8.735  0.00  0.00    +0.000 A 
ATOM     21  C   UNL     1      45.207   4.652   9.426  0.00  0.00    +0.000 A 
BRANCH  20  22
ATOM     22  C   UNL     1      45.900   3.328   7.390  0.00  0.00    +0.000 C 
BRANCH  22  23
ATOM     23  N   UNL     1      46.972   4.310   7.258  0.00  0.00    +0.000 NA
ATOM     24  H   UNL     1      47.858   3.853   7.470  0.00  0.00    +0.000 HD
ATOM     25  H   UNL     1      46.847   5.042   7.951  0.00  0.00    +0.000 HD
ENDBRANCH  22  23
ENDBRANCH  20  22
ENDBRANCH  15  16
ENDBRANCH  14  15
ENDBRANCH   1  14
TORSDOF 7
ENDMDL
MODEL 6
REMARK VINA RESULT:    -5.968      4.795      7.164
REMARK INTER + INTRA:          -9.402
REMARK INTER:                  -8.791
REMARK INTRA:                  -0.611
REMARK UNBOUND:                -1.167
REMARK  Name = 
REMARK  7 active torsions:
REMARK  status: ('A' for Active; 'I' for Inactive)
REMARK    1  A    between atoms: C_2  and  C_4
REMARK    2  A    between atoms: C_8  and  C_9
REMARK    3  A    between atoms: C_9  and  C_10
REMARK    4  A    between atoms: C_10  and  C_11
REMARK    5  A    between atoms: C_11  and  C_12
REMARK    6  A    between atoms: C_16  and  C_17
REMARK    7  A    between atoms: C_17  and  N_18
REMARK                            x       y       z     vdW  Elec       q    Type
REMARK                         _______ _______ _______ _____ _____    ______ ____
ROOT
ATOM      1  C   UNL     1      46.978   3.733  14.316  0.00  0.00    +0.000 C 
ENDROOT
BRANCH   1   6
ATOM      2  C   UNL     1      44.721   5.877  12.114  0.00  0.00    +0.000 A 
ATOM      3  C   UNL     1      45.582   6.914  11.751  0.00  0.00    +0.000 A 
ATOM      4  C   UNL     1      46.900   6.917  12.210  0.00  0.00    +0.000 A 
ATOM      5  C   UNL     1      47.358   5.884  13.028  0.00  0.00    +0.000 A 
ATOM      6  C   UNL     1      46.508   4.825  13.385  0.00  0.00    +0.000 A 
ATOM      7  C   UNL     1      45.189   4.826  12.914  0.00  0.00    +0.000 A 
BRANCH   2   9
ATOM      8  N   UNL     1      42.820   6.985  11.141  0.00  0.00    +0.000 NA
ATOM      9  C   UNL     1      43.295   5.916  11.683  0.00  0.00    +0.000 C 
ATOM     10  N   UNL     1      42.487   4.835  11.898  0.00  0.00    +0.000 N 
ATOM     11  H   UNL     1      41.844   6.834  10.879  0.00  0.00    +0.000 HD
ATOM     12  H   UNL     1      41.499   5.043  11.947  0.00  0.00    +0.000 HD
ATOM     13  H   UNL     1      42.773   4.232  12.664  0.00  0.00    +0.000 HD
ENDBRANCH   2   9
ENDBRANCH   1   6
BRANCH   1  14
ATOM     14  C   UNL     1      47.127   4.265  15.745  0.00  0.00    +0.000 C 
BRANCH  14  15
ATOM     15  C   UNL     1      47.687   3.201  16.688  0.00  0.00    +0.000 C 
BRANCH  15  16
ATOM     16  C   UNL     1      49.131   3.463  17.040  0.00  0.00    +0.000 A 
ATOM     17  C   UNL     1      49.590   4.767  17.261  0.00  0.00    +0.000 A 
ATOM     18  C   UNL     1      50.918   4.997  17.624  0.00  0.00    +0.000 A 
ATOM     19  C   UNL     1      51.800   3.926  17.775  0.00  0.00    +0.000 A 
ATOM     20  C   UNL     1      51.367   2.612  17.551  0.00  0.00    +0.000 A 
ATOM     21  C   UNL     1      50.034   2.398  17.157  0.00  0.00    +0.000 A 
BRANCH  20  22
ATOM     22  C   UNL     1      52.302   1.443  17.728  0.00  0.00    +0.000 C 
BRANCH  22  23
ATOM     23  N   UNL     1      51.576   0.235  18.109  0.00  0.00    +0.000 NA
ATOM     24  H   UNL     1      52.252  -0.474  18.394  0.00  0.00    +0.000 HD
ATOM     25  H   UNL     1      51.087  -0.136  17.299  0.00  0.00    +0.000 HD
ENDBRANCH  22  23
ENDBRANCH  20  22
ENDBRANCH  15  16
ENDBRANCH  14  15
ENDBRANCH   1  14
TORSDOF 7
ENDMDL
MODEL 7
REMARK VINA RESULT:    -5.957      2.013      2.911
REMARK INTER + INTRA:          -9.387
REMARK INTER:                  -8.666
REMARK INTRA:                  -0.721
REMARK UNBOUND:                -1.167
REMARK  Name = 
REMARK  7 active torsions:
REMARK  status: ('A' for Active; 'I' for Inactive)
REMARK    1  A    between atoms: C_2  and  C_4
REMARK    2  A    between atoms: C_8  and  C_9
REMARK    3  A    between atoms: C_9  and  C_10
REMARK    4  A    between atoms: C_10  and  C_11
REMARK    5  A    between atoms: C_11  and  C_12
REMARK    6  A    between atoms: C_16  and  C_17
REMARK    7  A    between atoms: C_17  and  N_18
REMARK                            x       y       z     vdW  Elec       q    Type
REMARK                         _______ _______ _______ _____ _____    ______ ____
ROOT
ATOM      1  C   UNL     1      45.310   5.430   9.510  0.00  0.00    +0.000 C 
ENDROOT
BRANCH   1   6
ATOM      2  C   UNL     1      46.590   2.621   7.271  0.00  0.00    +0.000 A 
ATOM      3  C   UNL     1      45.998   1.500   7.856  0.00  0.00    +0.000 A 
ATOM      4  C   UNL     1      45.175   1.651   8.972  0.00  0.00    +0.000 A 
ATOM      5  C   UNL     1      44.940   2.921   9.501  0.00  0.00    +0.000 A 
ATOM      6  C   UNL     1      45.513   4.058   8.911  0.00  0.00    +0.000 A 
ATOM      7  C   UNL     1      46.333   3.898   7.786  0.00  0.00    +0.000 A 
BRANCH   2   9
ATOM      8  N   UNL     1      48.792   2.629   6.301  0.00  0.00    +0.000 NA
ATOM      9  C   UNL     1      47.527   2.448   6.124  0.00  0.00    +0.000 C 
ATOM     10  N   UNL     1      47.041   2.137   4.886  0.00  0.00    +0.000 N 
ATOM     11  H   UNL     1      49.290   2.442   5.429  0.00  0.00    +0.000 HD
ATOM     12  H   UNL     1      47.636   2.405   4.114  0.00  0.00    +0.000 HD
ATOM     13  H   UNL     1      46.078   2.416   4.721  0.00  0.00    +0.000 HD
ENDBRANCH   2   9
ENDBRANCH   1   6
BRANCH   1  14
ATOM     14  C   UNL     1      44.586   5.331  10.856  0.00  0.00    +0.000 C 
BRANCH  14  15
ATOM     15  C   UNL     1      45.569   5.277  12.024  0.00  0.00    +0.000 C 
BRANCH  15  16
ATOM     16  C   UNL     1      46.278   6.595  12.226  0.00  0.00    +0.000 A 
ATOM     17  C   UNL     1      45.585   7.717  12.698  0.00  0.00    +0.000 A 
ATOM     18  C   UNL     1      46.257   8.920  12.918  0.00  0.00    +0.000 A 
ATOM     19  C   UNL     1      47.628   9.014  12.675  0.00  0.00    +0.000 A 
ATOM     20  C   UNL     1      48.341   7.908  12.194  0.00  0.00    +0.000 A 
ATOM     21  C   UNL     1      47.646   6.711  11.949  0.00  0.00    +0.000 A 
BRANCH  20  22
ATOM     22  C   UNL     1      49.826   7.988  11.944  0.00  0.00    +0.000 C 
BRANCH  22  23
ATOM     23  N   UNL     1      50.584   7.776  13.174  0.00  0.00    +0.000 NA
ATOM     24  H   UNL     1      50.785   6.780  13.263  0.00  0.00    +0.000 HD
ATOM     25  H   UNL     1      50.010   8.032  13.973  0.00  0.00    +0.000 HD
ENDBRANCH  22  23
ENDBRANCH  20  22
ENDBRANCH  15  16
ENDBRANCH  14  15
ENDBRANCH   1  14
TORSDOF 7
ENDMDL
MODEL 8
REMARK VINA RESULT:    -5.848      3.689      5.773
REMARK INTER + INTRA:          -9.238
REMARK INTER:                  -7.893
REMARK INTRA:                  -1.345
REMARK UNBOUND:                -1.167
REMARK  Name = 
REMARK  7 active torsions:
REMARK  status: ('A' for Active; 'I' for Inactive)
REMARK    1  A    between atoms: C_2  and  C_4
REMARK    2  A    between atoms: C_8  and  C_9
REMARK    3  A    between atoms: C_9  and  C_10
REMARK    4  A    between atoms: C_10  and  C_11
REMARK    5  A    between atoms: C_11  and  C_12
REMARK    6  A    between atoms: C_16  and  C_17
REMARK    7  A    between atoms: C_17  and  N_18
REMARK                            x       y       z     vdW  Elec       q    Type
REMARK                         _______ _______ _______ _____ _____    ______ ____
ROOT
ATOM      1  C   UNL     1      48.117   7.397  11.572  0.00  0.00    +0.000 C 
ENDROOT
BRANCH   1   6
ATOM      2  C   UNL     1      44.779   5.602  11.987  0.00  0.00    +0.000 A 
ATOM      3  C   UNL     1      45.035   4.776  13.082  0.00  0.00    +0.000 A 
ATOM      4  C   UNL     1      46.288   4.805  13.697  0.00  0.00    +0.000 A 
ATOM      5  C   UNL     1      47.281   5.660  13.219  0.00  0.00    +0.000 A 
ATOM      6  C   UNL     1      47.030   6.510  12.131  0.00  0.00    +0.000 A 
ATOM      7  C   UNL     1      45.768   6.480  11.525  0.00  0.00    +0.000 A 
BRANCH   2   9
ATOM      8  N   UNL     1      43.419   5.115  10.063  0.00  0.00    +0.000 NA
ATOM      9  C   UNL     1      43.465   5.515  11.287  0.00  0.00    +0.000 C 
ATOM     10  N   UNL     1      42.322   5.895  11.932  0.00  0.00    +0.000 N 
ATOM     11  H   UNL     1      42.448   5.085   9.747  0.00  0.00    +0.000 HD
ATOM     12  H   UNL     1      41.563   6.176  11.326  0.00  0.00    +0.000 HD
ATOM     13  H   UNL     1      42.456   6.564  12.685  0.00  0.00    +0.000 HD
ENDBRANCH   2   9
ENDBRANCH   1   6
BRANCH   1  14
ATOM     14  C   UNL     1      48.591   8.403  12.626  0.00  0.00    +0.000 C 
BRANCH  14  15
ATOM     15  C   UNL     1      47.419   9.138  13.274  0.00  0.00    +0.000 C 
BRANCH  15  16
ATOM     16  C   UNL     1      46.677  10.000  12.282  0.00  0.00    +0.000 A 
ATOM     17  C   UNL     1      47.353  10.961  11.520  0.00  0.00    +0.000 A 
ATOM     18  C   UNL     1      46.666  11.727  10.578  0.00  0.00    +0.000 A 
ATOM     19  C   UNL     1      45.297  11.538  10.382  0.00  0.00    +0.000 A 
ATOM     20  C   UNL     1      44.596  10.590  11.139  0.00  0.00    +0.000 A 
ATOM     21  C   UNL     1      45.296   9.845  12.105  0.00  0.00    +0.000 A 
BRANCH  20  22
ATOM     22  C   UNL     1      43.121  10.360  10.927  0.00  0.00    +0.000 C 
BRANCH  22  23
ATOM     23  N   UNL     1      42.816   8.938  10.806  0.00  0.00    +0.000 NA
ATOM     24  H   UNL     1      42.249   8.798   9.970  0.00  0.00    +0.000 HD
ATOM     25  H   UNL     1      42.249   8.645  11.597  0.00  0.00    +0.000 HD
ENDBRANCH  22  23
ENDBRANCH  20  22
ENDBRANCH  15  16
ENDBRANCH  14  15
ENDBRANCH   1  14
TORSDOF 7
ENDMDL
MODEL 9
REMARK VINA RESULT:    -5.809      2.245      4.627
REMARK INTER + INTRA:          -9.184
REMARK INTER:                  -8.069
REMARK INTRA:                  -1.115
REMARK UNBOUND:                -1.167
REMARK  Name = 
REMARK  7 active torsions:
REMARK  status: ('A' for Active; 'I' for Inactive)
REMARK    1  A    between atoms: C_2  and  C_4
REMARK    2  A    between atoms: C_8  and  C_9
REMARK    3  A    between atoms: C_9  and  C_10
REMARK    4  A    between atoms: C_10  and  C_11
REMARK    5  A    between atoms: C_11  and  C_12
REMARK    6  A    between atoms: C_16  and  C_17
REMARK    7  A    between atoms: C_17  and  N_18
REMARK                            x       y       z     vdW  Elec       q    Type
REMARK                         _______ _______ _______ _____ _____    ______ ____
ROOT
ATOM      1  C   UNL     1      46.821   5.972  12.991  0.00  0.00    +0.000 C 
ENDROOT
BRANCH   1   6
ATOM      2  C   UNL     1      44.379   4.223  10.642  0.00  0.00    +0.000 A 
ATOM      3  C   UNL     1      43.154   4.493  11.254  0.00  0.00    +0.000 A 
ATOM      4  C   UNL     1      43.114   5.251  12.426  0.00  0.00    +0.000 A 
ATOM      5  C   UNL     1      44.296   5.740  12.982  0.00  0.00    +0.000 A 
ATOM      6  C   UNL     1      45.533   5.493  12.365  0.00  0.00    +0.000 A 
ATOM      7  C   UNL     1      45.563   4.738  11.186  0.00  0.00    +0.000 A 
BRANCH   2   9
ATOM      8  N   UNL     1      44.273   3.874   8.264  0.00  0.00    +0.000 NA
ATOM      9  C   UNL     1      44.424   3.352   9.433  0.00  0.00    +0.000 C 
ATOM     10  N   UNL     1      44.587   2.002   9.569  0.00  0.00    +0.000 N 
ATOM     11  H   UNL     1      44.361   3.149   7.550  0.00  0.00    +0.000 HD
ATOM     12  H   UNL     1      44.235   1.449   8.800  0.00  0.00    +0.000 HD
ATOM     13  H   UNL     1      44.284   1.622  10.462  0.00  0.00    +0.000 HD
ENDBRANCH   2   9
ENDBRANCH   1   6
BRANCH   1  14
ATOM     14  C   UNL     1      47.370   7.188  12.239  0.00  0.00    +0.000 C 
BRANCH  14  15
ATOM     15  C   UNL     1      47.126   8.485  13.009  0.00  0.00    +0.000 C 
BRANCH  15  16
ATOM     16  C   UNL     1      46.336   9.483  12.197  0.00  0.00    +0.000 A 
ATOM     17  C   UNL     1      46.894  10.714  11.833  0.00  0.00    +0.000 A 
ATOM     18  C   UNL     1      46.170  11.614  11.050  0.00  0.00    +0.000 A 
ATOM     19  C   UNL     1      44.883  11.291  10.616  0.00  0.00    +0.000 A 
ATOM     20  C   UNL     1      44.300  10.069  10.975  0.00  0.00    +0.000 A 
ATOM     21  C   UNL     1      45.029   9.185  11.789  0.00  0.00    +0.000 A 
BRANCH  20  22
ATOM     22  C   UNL     1      42.918   9.697  10.500  0.00  0.00    +0.000 C 
BRANCH  22  23
ATOM     23  N   UNL     1      42.521   8.383  10.998  0.00  0.00    +0.000 NA
ATOM     24  H   UNL     1      42.937   7.670  10.399  0.00  0.00    +0.000 HD
ATOM     25  H   UNL     1      41.513   8.281  10.917  0.00  0.00    +0.000 HD
ENDBRANCH  22  23
ENDBRANCH  20  22
ENDBRANCH  15  16
ENDBRANCH  14  15
ENDBRANCH   1  14
TORSDOF 7
ENDMDL
