MODEL 1
REMARK VINA RESULT:    -7.411      0.000      0.000
REMARK INTER + INTRA:         -11.063
REMARK INTER:                 -10.010
REMARK INTRA:                  -1.053
REMARK UNBOUND:                -1.053
REMARK  Name = 
REMARK  7 active torsions:
REMARK  status: ('A' for Active; 'I' for Inactive)
REMARK    1  A    between atoms: C_1  and  N_2
REMARK    2  A    between atoms: N_2  and  C_3
REMARK    3  A    between atoms: C_3  and  C_4
REMARK    4  A    between atoms: C_7  and  C_8
REMARK    5  A    between atoms: C_8  and  C_9
REMARK    6  A    between atoms: C_9  and  C_10
REMARK    7  A    between atoms: C_18  and  C_20
REMARK                            x       y       z     vdW  Elec       q    Type
REMARK                         _______ _______ _______ _____ _____    ______ ____
ROOT
ATOM      1  C   UNL     1      48.918   7.769  11.982  0.00  0.00    +0.000 C 
ATOM      2  N   UNL     1      48.263   7.634  13.271  0.00  0.00    +0.000 N 
ATOM      3  C   UNL     1      49.091   7.416  14.375  0.00  0.00    +0.000 C 
ATOM      4  O   UNL     1      50.258   7.047  14.241  0.00  0.00    +0.000 OA
ENDROOT
BRANCH   3   5
ATOM      5  C   UNL     1      48.592   7.805  15.694  0.00  0.00    +0.000 A 
ATOM      6  C   UNL     1      48.347   9.111  16.085  0.00  0.00    +0.000 A 
ATOM      7  S   UNL     1      48.202   9.277  17.783  0.00  0.00    +0.000 S 
ATOM      8  C   UNL     1      48.458   7.611  18.021  0.00  0.00    +0.000 A 
ATOM      9  N   UNL     1      48.599   7.072  19.261  0.00  0.00    +0.000 NA
ATOM     10  C   UNL     1      48.774   5.789  19.262  0.00  0.00    +0.000 A 
ATOM     11  N   UNL     1      48.763   4.993  18.144  0.00  0.00    +0.000 N 
ATOM     12  C   UNL     1      48.530   5.484  16.879  0.00  0.00    +0.000 A 
ATOM     13  O   UNL     1      48.278   4.747  15.932  0.00  0.00    +0.000 OA
ATOM     14  C   UNL     1      48.496   6.929  16.822  0.00  0.00    +0.000 A 
ATOM     15  H   UNL     1      48.783   3.988  18.225  0.00  0.00    +0.000 HD
ENDBRANCH   3   5
BRANCH   2  16
ATOM     16  C   UNL     1      46.815   7.471  13.310  0.00  0.00    +0.000 C 
BRANCH  16  17
ATOM     17  C   UNL     1      46.296   6.291  12.527  0.00  0.00    +0.000 A 
ATOM     18  C   UNL     1      46.170   5.036  13.131  0.00  0.00    +0.000 A 
ATOM     19  C   UNL     1      45.621   3.963  12.427  0.00  0.00    +0.000 A 
ATOM     20  C   UNL     1      45.180   4.121  11.104  0.00  0.00    +0.000 A 
ATOM     21  C   UNL     1      45.378   5.360  10.481  0.00  0.00    +0.000 A 
ATOM     22  C   UNL     1      45.925   6.434  11.185  0.00  0.00    +0.000 A 
BRANCH  20  23
ATOM     23  C   UNL     1      44.546   2.995  10.313  0.00  0.00    +0.000 C 
BRANCH  23  24
ATOM     24  C   UNL     1      44.579   3.193   8.791  0.00  0.00    +0.000 C 
BRANCH  24  25
ATOM     25  C   UNL     1      45.767   2.576   8.088  0.00  0.00    +0.000 A 
ATOM     26  C   UNL     1      46.533   3.365   7.253  0.00  0.00    +0.000 A 
ATOM     27  C   UNL     1      47.583   2.744   6.616  0.00  0.00    +0.000 A 
ATOM     28  N   UNL     1      47.882   1.441   6.773  0.00  0.00    +0.000 NA
ATOM     29  C   UNL     1      47.083   0.768   7.607  0.00  0.00    +0.000 A 
ATOM     30  N   UNL     1      46.029   1.266   8.285  0.00  0.00    +0.000 NA
ENDBRANCH  24  25
ENDBRANCH  23  24
ENDBRANCH  20  23
ENDBRANCH  16  17
ENDBRANCH   2  16
TORSDOF 6
ENDMDL
MODEL 2
REMARK VINA RESULT:    -7.103      2.217      3.235
REMARK INTER + INTRA:         -10.648
REMARK INTER:                  -9.190
REMARK INTRA:                  -1.458
REMARK UNBOUND:                -1.053
REMARK  Name = 
REMARK  7 active torsions:
REMARK  status: ('A' for Active; 'I' for Inactive)
REMARK    1  A    between atoms: C_1  and  N_2
REMARK    2  A    between atoms: N_2  and  C_3
REMARK    3  A    between atoms: C_3  and  C_4
REMARK    4  A    between atoms: C_7  and  C_8
REMARK    5  A    between atoms: C_8  and  C_9
REMARK    6  A    between atoms: C_9  and  C_10
REMARK    7  A    between atoms: C_18  and  C_20
REMARK                            x       y       z     vdW  Elec       q    Type
REMARK                         _______ _______ _______ _____ _____    ______ ____
ROOT
ATOM      1  C   UNL     1      48.138   9.092  16.027  0.00  0.00    +0.000 C 
ATOM      2  N   UNL     1      48.971   7.906  16.117  0.00  0.00    +0.000 N 
ATOM      3  C   UNL     1      49.541   7.634  17.364  0.00  0.00    +0.000 C 
ATOM      4  O   UNL     1      49.602   8.492  18.244  0.00  0.00    +0.000 OA
ENDROOT
BRANCH   3   5
ATOM      5  C   UNL     1      49.909   6.250  17.661  0.00  0.00    +0.000 A 
ATOM      6  C   UNL     1      51.194   5.743  17.567  0.00  0.00    +0.000 A 
ATOM      7  S   UNL     1      51.231   4.031  17.545  0.00  0.00    +0.000 S 
ATOM      8  C   UNL     1      49.535   3.941  17.665  0.00  0.00    +0.000 A 
ATOM      9  N   UNL     1      48.865   2.762  17.563  0.00  0.00    +0.000 NA
ATOM     10  C   UNL     1      47.582   2.871  17.691  0.00  0.00    +0.000 A 
ATOM     11  N   UNL     1      46.916   4.039  17.969  0.00  0.00    +0.000 N 
ATOM     12  C   UNL     1      47.561   5.237  18.173  0.00  0.00    +0.000 A 
ATOM     13  O   UNL     1      46.991   6.208  18.658  0.00  0.00    +0.000 OA
ATOM     14  C   UNL     1      48.976   5.185  17.875  0.00  0.00    +0.000 A 
ATOM     15  H   UNL     1      45.929   4.033  18.176  0.00  0.00    +0.000 HD
ENDBRANCH   3   5
BRANCH   2  16
ATOM     16  C   UNL     1      49.374   7.234  14.888  0.00  0.00    +0.000 C 
BRANCH  16  17
ATOM     17  C   UNL     1      48.245   6.582  14.131  0.00  0.00    +0.000 A 
ATOM     18  C   UNL     1      47.704   5.368  14.565  0.00  0.00    +0.000 A 
ATOM     19  C   UNL     1      46.612   4.802  13.906  0.00  0.00    +0.000 A 
ATOM     20  C   UNL     1      46.030   5.441  12.801  0.00  0.00    +0.000 A 
ATOM     21  C   UNL     1      46.622   6.617  12.325  0.00  0.00    +0.000 A 
ATOM     22  C   UNL     1      47.714   7.185  12.984  0.00  0.00    +0.000 A 
BRANCH  20  23
ATOM     23  C   UNL     1      44.822   4.882  12.076  0.00  0.00    +0.000 C 
BRANCH  23  24
ATOM     24  C   UNL     1      44.690   5.341  10.617  0.00  0.00    +0.000 C 
BRANCH  24  25
ATOM     25  C   UNL     1      45.161   4.342   9.585  0.00  0.00    +0.000 A 
ATOM     26  C   UNL     1      44.867   3.004   9.766  0.00  0.00    +0.000 A 
ATOM     27  C   UNL     1      45.346   2.136   8.812  0.00  0.00    +0.000 A 
ATOM     28  N   UNL     1      46.064   2.529   7.743  0.00  0.00    +0.000 NA
ATOM     29  C   UNL     1      46.288   3.845   7.657  0.00  0.00    +0.000 A 
ATOM     30  N   UNL     1      45.871   4.788   8.527  0.00  0.00    +0.000 NA
ENDBRANCH  24  25
ENDBRANCH  23  24
ENDBRANCH  20  23
ENDBRANCH  16  17
ENDBRANCH   2  16
TORSDOF 6
ENDMDL
MODEL 3
REMARK VINA RESULT:    -7.037      3.051      4.579
REMARK INTER + INTRA:         -10.558
REMARK INTER:                  -9.048
REMARK INTRA:                  -1.510
REMARK UNBOUND:                -1.053
REMARK  Name = 
REMARK  7 active torsions:
REMARK  status: ('A' for Active; 'I' for Inactive)
REMARK    1  A    between atoms: C_1  and  N_2
REMARK    2  A    between atoms: N_2  and  C_3
REMARK    3  A    between atoms: C_3  and  C_4
REMARK    4  A    between atoms: C_7  and  C_8
REMARK    5  A    between atoms: C_8  and  C_9
REMARK    6  A    between atoms: C_9  and  C_10
REMARK    7  A    between atoms: C_18  and  C_20
REMARK                            x       y       z     vdW  Elec       q    Type
REMARK                         _______ _______ _______ _____ _____    ______ ____
ROOT
ATOM      1  C   UNL     1      48.163   8.793  17.521  0.00  0.00    +0.000 C 
ATOM      2  N   UNL     1      49.107   7.695  17.401  0.00  0.00    +0.000 N 
ATOM      3  C   UNL     1      49.332   6.934  18.551  0.00  0.00    +0.000 C 
ATOM      4  O   UNL     1      49.008   7.342  19.666  0.00  0.00    +0.000 OA
ENDROOT
BRANCH   3   5
ATOM      5  C   UNL     1      49.806   5.561  18.381  0.00  0.00    +0.000 A 
ATOM      6  C   UNL     1      51.130   5.169  18.495  0.00  0.00    +0.000 A 
ATOM      7  S   UNL     1      51.423   3.623  17.817  0.00  0.00    +0.000 S 
ATOM      8  C   UNL     1      49.790   3.453  17.367  0.00  0.00    +0.000 A 
ATOM      9  N   UNL     1      49.354   2.408  16.613  0.00  0.00    +0.000 NA
ATOM     10  C   UNL     1      48.082   2.425  16.373  0.00  0.00    +0.000 A 
ATOM     11  N   UNL     1      47.201   3.355  16.867  0.00  0.00    +0.000 N 
ATOM     12  C   UNL     1      47.584   4.374  17.711  0.00  0.00    +0.000 A 
ATOM     13  O   UNL     1      46.767   5.041  18.336  0.00  0.00    +0.000 OA
ATOM     14  C   UNL     1      49.019   4.483  17.864  0.00  0.00    +0.000 A 
ATOM     15  H   UNL     1      46.207   3.241  16.743  0.00  0.00    +0.000 HD
ENDBRANCH   3   5
BRANCH   2  16
ATOM     16  C   UNL     1      49.941   7.612  16.208  0.00  0.00    +0.000 C 
BRANCH  16  17
ATOM     17  C   UNL     1      49.189   7.300  14.938  0.00  0.00    +0.000 A 
ATOM     18  C   UNL     1      48.262   6.254  14.899  0.00  0.00    +0.000 A 
ATOM     19  C   UNL     1      47.514   6.013  13.746  0.00  0.00    +0.000 A 
ATOM     20  C   UNL     1      47.673   6.815  12.606  0.00  0.00    +0.000 A 
ATOM     21  C   UNL     1      48.656   7.812  12.626  0.00  0.00    +0.000 A 
ATOM     22  C   UNL     1      49.403   8.056  13.780  0.00  0.00    +0.000 A 
BRANCH  20  23
ATOM     23  C   UNL     1      46.859   6.613  11.343  0.00  0.00    +0.000 C 
BRANCH  23  24
ATOM     24  C   UNL     1      45.340   6.612  11.561  0.00  0.00    +0.000 C 
BRANCH  24  25
ATOM     25  C   UNL     1      44.678   5.256  11.472  0.00  0.00    +0.000 A 
ATOM     26  C   UNL     1      44.662   4.599  10.256  0.00  0.00    +0.000 A 
ATOM     27  C   UNL     1      44.020   3.383  10.225  0.00  0.00    +0.000 A 
ATOM     28  N   UNL     1      43.429   2.826  11.299  0.00  0.00    +0.000 NA
ATOM     29  C   UNL     1      43.507   3.540  12.428  0.00  0.00    +0.000 A 
ATOM     30  N   UNL     1      44.107   4.738  12.580  0.00  0.00    +0.000 NA
ENDBRANCH  24  25
ENDBRANCH  23  24
ENDBRANCH  20  23
ENDBRANCH  16  17
ENDBRANCH   2  16
TORSDOF 6
ENDMDL
MODEL 4
REMARK VINA RESULT:    -6.857      3.427      7.961
REMARK INTER + INTRA:         -10.315
REMARK INTER:                  -9.590
REMARK INTRA:                  -0.725
REMARK UNBOUND:                -1.053
REMARK  Name = 
REMARK  7 active torsions:
REMARK  status: ('A' for Active; 'I' for Inactive)
REMARK    1  A    between atoms: C_1  and  N_2
REMARK    2  A    between atoms: N_2  and  C_3
REMARK    3  A    between atoms: C_3  and  C_4
REMARK    4  A    between atoms: C_7  and  C_8
REMARK    5  A    between atoms: C_8  and  C_9
REMARK    6  A    between atoms: C_9  and  C_10
REMARK    7  A    between atoms: C_18  and  C_20
REMARK                            x       y       z     vdW  Elec       q    Type
REMARK                         _______ _______ _______ _____ _____    ______ ____
ROOT
ATOM      1  C   UNL     1      46.741   9.163  12.303  0.00  0.00    +0.000 C 
ATOM      2  N   UNL     1      46.793   7.743  12.000  0.00  0.00    +0.000 N 
ATOM      3  C   UNL     1      45.567   7.084  11.879  0.00  0.00    +0.000 C 
ATOM      4  O   UNL     1      44.525   7.581  12.306  0.00  0.00    +0.000 OA
ENDROOT
BRANCH   3   5
ATOM      5  C   UNL     1      45.522   5.863  11.076  0.00  0.00    +0.000 A 
ATOM      6  C   UNL     1      45.863   5.794   9.735  0.00  0.00    +0.000 A 
ATOM      7  S   UNL     1      45.294   4.366   8.979  0.00  0.00    +0.000 S 
ATOM      8  C   UNL     1      44.590   3.817  10.429  0.00  0.00    +0.000 A 
ATOM      9  N   UNL     1      43.809   2.704  10.477  0.00  0.00    +0.000 NA
ATOM     10  C   UNL     1      43.365   2.422  11.659  0.00  0.00    +0.000 A 
ATOM     11  N   UNL     1      43.677   3.114  12.803  0.00  0.00    +0.000 N 
ATOM     12  C   UNL     1      44.538   4.188  12.815  0.00  0.00    +0.000 A 
ATOM     13  O   UNL     1      44.999   4.640  13.857  0.00  0.00    +0.000 OA
ATOM     14  C   UNL     1      44.920   4.633  11.492  0.00  0.00    +0.000 A 
ATOM     15  H   UNL     1      43.396   2.769  13.708  0.00  0.00    +0.000 HD
ENDBRANCH   3   5
BRANCH   2  16
ATOM     16  C   UNL     1      48.070   7.049  12.099  0.00  0.00    +0.000 C 
BRANCH  16  17
ATOM     17  C   UNL     1      48.495   6.715  13.508  0.00  0.00    +0.000 A 
ATOM     18  C   UNL     1      49.628   7.312  14.069  0.00  0.00    +0.000 A 
ATOM     19  C   UNL     1      49.978   7.058  15.396  0.00  0.00    +0.000 A 
ATOM     20  C   UNL     1      49.199   6.207  16.195  0.00  0.00    +0.000 A 
ATOM     21  C   UNL     1      48.109   5.555  15.605  0.00  0.00    +0.000 A 
ATOM     22  C   UNL     1      47.757   5.809  14.279  0.00  0.00    +0.000 A 
BRANCH  20  23
ATOM     23  C   UNL     1      49.520   5.930  17.650  0.00  0.00    +0.000 C 
BRANCH  23  24
ATOM     24  C   UNL     1      50.928   5.368  17.893  0.00  0.00    +0.000 C 
BRANCH  24  25
ATOM     25  C   UNL     1      51.068   3.877  17.690  0.00  0.00    +0.000 A 
ATOM     26  C   UNL     1      52.277   3.274  17.980  0.00  0.00    +0.000 A 
ATOM     27  C   UNL     1      52.357   1.920  17.748  0.00  0.00    +0.000 A 
ATOM     28  N   UNL     1      51.337   1.185  17.267  0.00  0.00    +0.000 NA
ATOM     29  C   UNL     1      50.210   1.864  17.025  0.00  0.00    +0.000 A 
ATOM     30  N   UNL     1      50.012   3.184  17.212  0.00  0.00    +0.000 NA
ENDBRANCH  24  25
ENDBRANCH  23  24
ENDBRANCH  20  23
ENDBRANCH  16  17
ENDBRANCH   2  16
TORSDOF 6
ENDMDL
MODEL 5
REMARK VINA RESULT:    -6.703      2.312      2.921
REMARK INTER + INTRA:         -10.107
REMARK INTER:                  -9.075
REMARK INTRA:                  -1.033
REMARK UNBOUND:                -1.053
REMARK  Name = 
REMARK  7 active torsions:
REMARK  status: ('A' for Active; 'I' for Inactive)
REMARK    1  A    between atoms: C_1  and  N_2
REMARK    2  A    between atoms: N_2  and  C_3
REMARK    3  A    between atoms: C_3  and  C_4
REMARK    4  A    between atoms: C_7  and  C_8
REMARK    5  A    between atoms: C_8  and  C_9
REMARK    6  A    between atoms: C_9  and  C_10
REMARK    7  A    between atoms: C_18  and  C_20
REMARK                            x       y       z     vdW  Elec       q    Type
REMARK                         _______ _______ _______ _____ _____    ______ ____
ROOT
ATOM      1  C   UNL     1      46.042  10.138  11.561  0.00  0.00    +0.000 C 
ATOM      2  N   UNL     1      46.679   9.189  12.458  0.00  0.00    +0.000 N 
ATOM      3  C   UNL     1      48.070   9.078  12.366  0.00  0.00    +0.000 C 
ATOM      4  O   UNL     1      48.686   9.509  11.392  0.00  0.00    +0.000 OA
ENDROOT
BRANCH   3   5
ATOM      5  C   UNL     1      48.796   8.593  13.539  0.00  0.00    +0.000 A 
ATOM      6  C   UNL     1      49.216   7.285  13.715  0.00  0.00    +0.000 A 
ATOM      7  S   UNL     1      49.631   6.935  15.339  0.00  0.00    +0.000 S 
ATOM      8  C   UNL     1      49.263   8.523  15.830  0.00  0.00    +0.000 A 
ATOM      9  N   UNL     1      49.263   8.893  17.139  0.00  0.00    +0.000 NA
ATOM     10  C   UNL     1      48.974  10.140  17.335  0.00  0.00    +0.000 A 
ATOM     11  N   UNL     1      48.743  11.060  16.342  0.00  0.00    +0.000 N 
ATOM     12  C   UNL     1      48.826  10.750  15.003  0.00  0.00    +0.000 A 
ATOM     13  O   UNL     1      48.863  11.617  14.137  0.00  0.00    +0.000 OA
ATOM     14  C   UNL     1      48.982   9.334  14.749  0.00  0.00    +0.000 A 
ATOM     15  H   UNL     1      48.644  12.040  16.558  0.00  0.00    +0.000 HD
ENDBRANCH   3   5
BRANCH   2  16
ATOM     16  C   UNL     1      45.847   8.243  13.189  0.00  0.00    +0.000 C 
BRANCH  16  17
ATOM     17  C   UNL     1      45.632   6.925  12.489  0.00  0.00    +0.000 A 
ATOM     18  C   UNL     1      45.345   5.769  13.222  0.00  0.00    +0.000 A 
ATOM     19  C   UNL     1      45.075   4.565  12.569  0.00  0.00    +0.000 A 
ATOM     20  C   UNL     1      45.078   4.491  11.168  0.00  0.00    +0.000 A 
ATOM     21  C   UNL     1      45.439   5.634  10.442  0.00  0.00    +0.000 A 
ATOM     22  C   UNL     1      45.709   6.838  11.094  0.00  0.00    +0.000 A 
BRANCH  20  23
ATOM     23  C   UNL     1      44.756   3.216  10.415  0.00  0.00    +0.000 C 
BRANCH  23  24
ATOM     24  C   UNL     1      44.751   3.365   8.887  0.00  0.00    +0.000 C 
BRANCH  24  25
ATOM     25  C   UNL     1      45.852   2.623   8.165  0.00  0.00    +0.000 A 
ATOM     26  C   UNL     1      46.660   3.318   7.286  0.00  0.00    +0.000 A 
ATOM     27  C   UNL     1      47.626   2.587   6.633  0.00  0.00    +0.000 A 
ATOM     28  N   UNL     1      47.808   1.265   6.815  0.00  0.00    +0.000 NA
ATOM     29  C   UNL     1      46.977   0.689   7.691  0.00  0.00    +0.000 A 
ATOM     30  N   UNL     1      45.997   1.300   8.387  0.00  0.00    +0.000 NA
ENDBRANCH  24  25
ENDBRANCH  23  24
ENDBRANCH  20  23
ENDBRANCH  16  17
ENDBRANCH   2  16
TORSDOF 6
ENDMDL
MODEL 6
REMARK VINA RESULT:    -6.525      3.908      7.566
REMARK INTER + INTRA:          -9.867
REMARK INTER:                  -8.602
REMARK INTRA:                  -1.265
REMARK UNBOUND:                -1.053
REMARK  Name = 
REMARK  7 active torsions:
REMARK  status: ('A' for Active; 'I' for Inactive)
REMARK    1  A    between atoms: C_1  and  N_2
REMARK    2  A    between atoms: N_2  and  C_3
REMARK    3  A    between atoms: C_3  and  C_4
REMARK    4  A    between atoms: C_7  and  C_8
REMARK    5  A    between atoms: C_8  and  C_9
REMARK    6  A    between atoms: C_9  and  C_10
REMARK    7  A    between atoms: C_18  and  C_20
REMARK                            x       y       z     vdW  Elec       q    Type
REMARK                         _______ _______ _______ _____ _____    ______ ____
ROOT
ATOM      1  C   UNL     1      50.060   8.715  12.438  0.00  0.00    +0.000 C 
ATOM      2  N   UNL     1      48.781   8.253  12.950  0.00  0.00    +0.000 N 
ATOM      3  C   UNL     1      48.000   7.484  12.083  0.00  0.00    +0.000 C 
ATOM      4  O   UNL     1      48.218   7.460  10.872  0.00  0.00    +0.000 OA
ENDROOT
BRANCH   3   5
ATOM      5  C   UNL     1      47.021   6.571  12.671  0.00  0.00    +0.000 A 
ATOM      6  C   UNL     1      47.345   5.447  13.413  0.00  0.00    +0.000 A 
ATOM      7  S   UNL     1      46.030   4.362  13.580  0.00  0.00    +0.000 S 
ATOM      8  C   UNL     1      45.010   5.376  12.670  0.00  0.00    +0.000 A 
ATOM      9  N   UNL     1      43.757   4.996  12.300  0.00  0.00    +0.000 NA
ATOM     10  C   UNL     1      43.112   5.892  11.624  0.00  0.00    +0.000 A 
ATOM     11  N   UNL     1      43.582   7.150  11.336  0.00  0.00    +0.000 N 
ATOM     12  C   UNL     1      44.805   7.609  11.771  0.00  0.00    +0.000 A 
ATOM     13  O   UNL     1      45.108   8.796  11.724  0.00  0.00    +0.000 OA
ATOM     14  C   UNL     1      45.619   6.581  12.384  0.00  0.00    +0.000 A 
ATOM     15  H   UNL     1      42.982   7.841  10.911  0.00  0.00    +0.000 HD
ENDBRANCH   3   5
BRANCH   2  16
ATOM     16  C   UNL     1      48.278   8.815  14.197  0.00  0.00    +0.000 C 
BRANCH  16  17
ATOM     17  C   UNL     1      48.796   8.140  15.443  0.00  0.00    +0.000 A 
ATOM     18  C   UNL     1      48.298   8.492  16.701  0.00  0.00    +0.000 A 
ATOM     19  C   UNL     1      48.724   7.816  17.846  0.00  0.00    +0.000 A 
ATOM     20  C   UNL     1      49.653   6.768  17.758  0.00  0.00    +0.000 A 
ATOM     21  C   UNL     1      50.203   6.471  16.505  0.00  0.00    +0.000 A 
ATOM     22  C   UNL     1      49.777   7.145  15.359  0.00  0.00    +0.000 A 
BRANCH  20  23
ATOM     23  C   UNL     1      50.118   5.983  18.968  0.00  0.00    +0.000 C 
BRANCH  23  24
ATOM     24  C   UNL     1      49.316   4.704  19.241  0.00  0.00    +0.000 C 
BRANCH  24  25
ATOM     25  C   UNL     1      49.369   3.665  18.144  0.00  0.00    +0.000 A 
ATOM     26  C   UNL     1      48.225   3.401  17.417  0.00  0.00    +0.000 A 
ATOM     27  C   UNL     1      48.323   2.425  16.452  0.00  0.00    +0.000 A 
ATOM     28  N   UNL     1      49.455   1.743  16.196  0.00  0.00    +0.000 NA
ATOM     29  C   UNL     1      50.507   2.079  16.952  0.00  0.00    +0.000 A 
ATOM     30  N   UNL     1      50.531   3.014  17.923  0.00  0.00    +0.000 NA
ENDBRANCH  24  25
ENDBRANCH  23  24
ENDBRANCH  20  23
ENDBRANCH  16  17
ENDBRANCH   2  16
TORSDOF 6
ENDMDL
MODEL 7
REMARK VINA RESULT:    -6.463      3.334      8.872
REMARK INTER + INTRA:          -9.782
REMARK INTER:                  -8.629
REMARK INTRA:                  -1.153
REMARK UNBOUND:                -1.053
REMARK  Name = 
REMARK  7 active torsions:
REMARK  status: ('A' for Active; 'I' for Inactive)
REMARK    1  A    between atoms: C_1  and  N_2
REMARK    2  A    between atoms: N_2  and  C_3
REMARK    3  A    between atoms: C_3  and  C_4
REMARK    4  A    between atoms: C_7  and  C_8
REMARK    5  A    between atoms: C_8  and  C_9
REMARK    6  A    between atoms: C_9  and  C_10
REMARK    7  A    between atoms: C_18  and  C_20
REMARK                            x       y       z     vdW  Elec       q    Type
REMARK                         _______ _______ _______ _____ _____    ______ ____
ROOT
ATOM      1  C   UNL     1      46.998   9.086  12.259  0.00  0.00    +0.000 C 
ATOM      2  N   UNL     1      46.956   7.659  11.989  0.00  0.00    +0.000 N 
ATOM      3  C   UNL     1      45.691   7.091  11.817  0.00  0.00    +0.000 C 
ATOM      4  O   UNL     1      44.669   7.675  12.177  0.00  0.00    +0.000 OA
ENDROOT
BRANCH   3   5
ATOM      5  C   UNL     1      45.595   5.856  11.038  0.00  0.00    +0.000 A 
ATOM      6  C   UNL     1      45.899   5.755   9.691  0.00  0.00    +0.000 A 
ATOM      7  S   UNL     1      45.276   4.328   8.977  0.00  0.00    +0.000 S 
ATOM      8  C   UNL     1      44.596   3.823  10.455  0.00  0.00    +0.000 A 
ATOM      9  N   UNL     1      43.790   2.732  10.544  0.00  0.00    +0.000 NA
ATOM     10  C   UNL     1      43.370   2.482  11.743  0.00  0.00    +0.000 A 
ATOM     11  N   UNL     1      43.729   3.187  12.865  0.00  0.00    +0.000 N 
ATOM     12  C   UNL     1      44.616   4.240  12.834  0.00  0.00    +0.000 A 
ATOM     13  O   UNL     1      45.116   4.698  13.855  0.00  0.00    +0.000 OA
ATOM     14  C   UNL     1      44.974   4.650  11.493  0.00  0.00    +0.000 A 
ATOM     15  H   UNL     1      43.464   2.866  13.783  0.00  0.00    +0.000 HD
ENDBRANCH   3   5
BRANCH   2  16
ATOM     16  C   UNL     1      48.170   6.873  12.172  0.00  0.00    +0.000 C 
BRANCH  16  17
ATOM     17  C   UNL     1      48.677   6.822  13.591  0.00  0.00    +0.000 A 
ATOM     18  C   UNL     1      47.978   6.110  14.571  0.00  0.00    +0.000 A 
ATOM     19  C   UNL     1      48.486   6.003  15.867  0.00  0.00    +0.000 A 
ATOM     20  C   UNL     1      49.708   6.600  16.211  0.00  0.00    +0.000 A 
ATOM     21  C   UNL     1      50.365   7.374  15.246  0.00  0.00    +0.000 A 
ATOM     22  C   UNL     1      49.859   7.481  13.950  0.00  0.00    +0.000 A 
BRANCH  20  23
ATOM     23  C   UNL     1      50.315   6.481  17.595  0.00  0.00    +0.000 C 
BRANCH  23  24
ATOM     24  C   UNL     1      49.949   5.190  18.339  0.00  0.00    +0.000 C 
BRANCH  24  25
ATOM     25  C   UNL     1      49.122   5.381  19.590  0.00  0.00    +0.000 A 
ATOM     26  C   UNL     1      47.948   6.104  19.511  0.00  0.00    +0.000 A 
ATOM     27  C   UNL     1      47.251   6.273  20.685  0.00  0.00    +0.000 A 
ATOM     28  N   UNL     1      47.657   5.776  21.868  0.00  0.00    +0.000 NA
ATOM     29  C   UNL     1      48.803   5.087  21.835  0.00  0.00    +0.000 A 
ATOM     30  N   UNL     1      49.570   4.856  20.750  0.00  0.00    +0.000 NA
ENDBRANCH  24  25
ENDBRANCH  23  24
ENDBRANCH  20  23
ENDBRANCH  16  17
ENDBRANCH   2  16
TORSDOF 6
ENDMDL
MODEL 8
REMARK VINA RESULT:    -6.434      2.469      3.899
REMARK INTER + INTRA:          -9.743
REMARK INTER:                  -8.162
REMARK INTRA:                  -1.581
REMARK UNBOUND:                -1.053
REMARK  Name = 
REMARK  7 active torsions:
REMARK  status: ('A' for Active; 'I' for Inactive)
REMARK    1  A    between atoms: C_1  and  N_2
REMARK    2  A    between atoms: N_2  and  C_3
REMARK    3  A    between atoms: C_3  and  C_4
REMARK    4  A    between atoms: C_7  and  C_8
REMARK    5  A    between atoms: C_8  and  C_9
REMARK    6  A    between atoms: C_9  and  C_10
REMARK    7  A    between atoms: C_18  and  C_20
REMARK                            x       y       z     vdW  Elec       q    Type
REMARK                         _______ _______ _______ _____ _____    ______ ____
ROOT
ATOM      1  C   UNL     1      52.956   8.370  14.766  0.00  0.00    +0.000 C 
ATOM      2  N   UNL     1      51.610   8.451  15.307  0.00  0.00    +0.000 N 
ATOM      3  C   UNL     1      51.223   7.430  16.180  0.00  0.00    +0.000 C 
ATOM      4  O   UNL     1      51.847   6.371  16.247  0.00  0.00    +0.000 OA
ENDROOT
BRANCH   3   5
ATOM      5  C   UNL     1      50.159   7.718  17.141  0.00  0.00    +0.000 A 
ATOM      6  C   UNL     1      50.224   8.707  18.108  0.00  0.00    +0.000 A 
ATOM      7  S   UNL     1      49.046   8.509  19.337  0.00  0.00    +0.000 S 
ATOM      8  C   UNL     1      48.431   7.106  18.594  0.00  0.00    +0.000 A 
ATOM      9  N   UNL     1      47.483   6.332  19.186  0.00  0.00    +0.000 NA
ATOM     10  C   UNL     1      47.117   5.311  18.478  0.00  0.00    +0.000 A 
ATOM     11  N   UNL     1      47.570   5.029  17.213  0.00  0.00    +0.000 N 
ATOM     12  C   UNL     1      48.458   5.837  16.539  0.00  0.00    +0.000 A 
ATOM     13  O   UNL     1      48.663   5.715  15.337  0.00  0.00    +0.000 OA
ATOM     14  C   UNL     1      49.012   6.891  17.360  0.00  0.00    +0.000 A 
ATOM     15  H   UNL     1      47.155   4.287  16.670  0.00  0.00    +0.000 HD
ENDBRANCH   3   5
BRANCH   2  16
ATOM     16  C   UNL     1      50.675   9.406  14.726  0.00  0.00    +0.000 C 
BRANCH  16  17
ATOM     17  C   UNL     1      49.562   8.783  13.920  0.00  0.00    +0.000 A 
ATOM     18  C   UNL     1      49.849   7.934  12.847  0.00  0.00    +0.000 A 
ATOM     19  C   UNL     1      48.820   7.300  12.150  0.00  0.00    +0.000 A 
ATOM     20  C   UNL     1      47.479   7.497  12.512  0.00  0.00    +0.000 A 
ATOM     21  C   UNL     1      47.194   8.407  13.538  0.00  0.00    +0.000 A 
ATOM     22  C   UNL     1      48.223   9.039  14.238  0.00  0.00    +0.000 A 
BRANCH  20  23
ATOM     23  C   UNL     1      46.330   6.805  11.806  0.00  0.00    +0.000 C 
BRANCH  23  24
ATOM     24  C   UNL     1      45.428   5.973  12.729  0.00  0.00    +0.000 C 
BRANCH  24  25
ATOM     25  C   UNL     1      44.764   4.783  12.076  0.00  0.00    +0.000 A 
ATOM     26  C   UNL     1      44.798   4.671  10.699  0.00  0.00    +0.000 A 
ATOM     27  C   UNL     1      44.151   3.584  10.156  0.00  0.00    +0.000 A 
ATOM     28  N   UNL     1      43.510   2.657  10.892  0.00  0.00    +0.000 NA
ATOM     29  C   UNL     1      43.541   2.855  12.214  0.00  0.00    +0.000 A 
ATOM     30  N   UNL     1      44.140   3.877  12.858  0.00  0.00    +0.000 NA
ENDBRANCH  24  25
ENDBRANCH  23  24
ENDBRANCH  20  23
ENDBRANCH  16  17
ENDBRANCH   2  16
TORSDOF 6
ENDMDL
MODEL 9
REMARK VINA RESULT:    -6.238      3.960      6.263
REMARK INTER + INTRA:          -9.479
REMARK INTER:                  -7.831
REMARK INTRA:                  -1.648
REMARK UNBOUND:                -1.053
REMARK  Name = 
REMARK  7 active torsions:
REMARK  status: ('A' for Active; 'I' for Inactive)
REMARK    1  A    between atoms: C_1  and  N_2
REMARK    2  A    between atoms: N_2  and  C_3
REMARK    3  A    between atoms: C_3  and  C_4
REMARK    4  A    between atoms: C_7  and  C_8
REMARK    5  A    between atoms: C_8  and  C_9
REMARK    6  A    between atoms: C_9  and  C_10
REMARK    7  A    between atoms: C_18  and  C_20
REMARK                            x       y       z     vdW  Elec       q    Type
REMARK                         _______ _______ _______ _____ _____    ______ ____
ROOT
ATOM      1  C   UNL     1      48.938   7.611  20.674  0.00  0.00    +0.000 C 
ATOM      2  N   UNL     1      49.375   6.750  19.589  0.00  0.00    +0.000 N 
ATOM      3  C   UNL     1      48.984   5.410  19.657  0.00  0.00    +0.000 C 
ATOM      4  O   UNL     1      48.573   4.912  20.705  0.00  0.00    +0.000 OA
ENDROOT
BRANCH   3   5
ATOM      5  C   UNL     1      48.909   4.654  18.407  0.00  0.00    +0.000 A 
ATOM      6  C   UNL     1      47.785   4.581  17.601  0.00  0.00    +0.000 A 
ATOM      7  S   UNL     1      47.860   3.294  16.474  0.00  0.00    +0.000 S 
ATOM      8  C   UNL     1      49.394   2.819  17.040  0.00  0.00    +0.000 A 
ATOM      9  N   UNL     1      50.004   1.684  16.605  0.00  0.00    +0.000 NA
ATOM     10  C   UNL     1      51.171   1.479  17.127  0.00  0.00    +0.000 A 
ATOM     11  N   UNL     1      51.805   2.332  17.996  0.00  0.00    +0.000 N 
ATOM     12  C   UNL     1      51.265   3.536  18.389  0.00  0.00    +0.000 A 
ATOM     13  O   UNL     1      51.931   4.393  18.958  0.00  0.00    +0.000 OA
ATOM     14  C   UNL     1      49.895   3.719  17.957  0.00  0.00    +0.000 A 
ATOM     15  H   UNL     1      52.762   2.173  18.270  0.00  0.00    +0.000 HD
ENDBRANCH   3   5
BRANCH   2  16
ATOM     16  C   UNL     1      50.383   7.244  18.660  0.00  0.00    +0.000 C 
BRANCH  16  17
ATOM     17  C   UNL     1      49.841   7.685  17.323  0.00  0.00    +0.000 A 
ATOM     18  C   UNL     1      50.398   7.201  16.135  0.00  0.00    +0.000 A 
ATOM     19  C   UNL     1      49.849   7.553  14.901  0.00  0.00    +0.000 A 
ATOM     20  C   UNL     1      48.727   8.392  14.826  0.00  0.00    +0.000 A 
ATOM     21  C   UNL     1      48.221   8.933  16.015  0.00  0.00    +0.000 A 
ATOM     22  C   UNL     1      48.768   8.581  17.250  0.00  0.00    +0.000 A 
BRANCH  20  23
ATOM     23  C   UNL     1      48.076   8.772  13.511  0.00  0.00    +0.000 C 
BRANCH  23  24
ATOM     24  C   UNL     1      47.950   7.617  12.509  0.00  0.00    +0.000 C 
BRANCH  24  25
ATOM     25  C   UNL     1      46.789   6.680  12.751  0.00  0.00    +0.000 A 
ATOM     26  C   UNL     1      47.024   5.473  13.381  0.00  0.00    +0.000 A 
ATOM     27  C   UNL     1      45.937   4.646  13.549  0.00  0.00    +0.000 A 
ATOM     28  N   UNL     1      44.694   4.960  13.138  0.00  0.00    +0.000 NA
ATOM     29  C   UNL     1      44.572   6.153  12.545  0.00  0.00    +0.000 A 
ATOM     30  N   UNL     1      45.560   7.045  12.326  0.00  0.00    +0.000 NA
ENDBRANCH  24  25
ENDBRANCH  23  24
ENDBRANCH  20  23
ENDBRANCH  16  17
ENDBRANCH   2  16
TORSDOF 6
ENDMDL
