MODEL 1
REMARK VINA RESULT:    -8.071      0.000      0.000
REMARK INTER + INTRA:         -12.774
REMARK INTER:                 -11.610
REMARK INTRA:                  -1.164
REMARK UNBOUND:                -1.164
REMARK  Name = 
REMARK  9 active torsions:
REMARK  status: ('A' for Active; 'I' for Inactive)
REMARK    1  A    between atoms: C_1  and  C_2
REMARK    2  A    between atoms: C_6  and  C_7
REMARK    3  A    between atoms: C_7  and  N_8
REMARK    4  A    between atoms: N_8  and  C_9
REMARK    5  A    between atoms: C_9  and  C_10
REMARK    6  A    between atoms: C_13  and  C_14
REMARK    7  A    between atoms: C_14  and  N_15
REMARK    8  A    between atoms: C_16  and  C_18
REMARK    9  A    between atoms: C_25  and  O_26
REMARK                            x       y       z     vdW  Elec       q    Type
REMARK                         _______ _______ _______ _____ _____    ______ ____
ROOT
ATOM      1  C   UNL     1      44.606   5.566  11.705  0.00  0.00    +0.000 A 
ATOM      2  C   UNL     1      44.868   4.999  12.960  0.00  0.00    +0.000 A 
ATOM      3  C   UNL     1      46.040   5.314  13.653  0.00  0.00    +0.000 A 
ATOM      4  C   UNL     1      46.971   6.206  13.106  0.00  0.00    +0.000 A 
ATOM      5  C   UNL     1      46.725   6.745  11.835  0.00  0.00    +0.000 A 
ATOM      6  C   UNL     1      45.553   6.431  11.144  0.00  0.00    +0.000 A 
ENDROOT
BRANCH   1   7
ATOM      7  C   UNL     1      43.308   5.275  10.985  0.00  0.00    +0.000 C 
BRANCH   7   8
ATOM      8  N   UNL     1      43.497   4.561   9.720  0.00  0.00    +0.000 NA
ATOM      9  H   UNL     1      42.583   4.381   9.303  0.00  0.00    +0.000 HD
BRANCH   8  10
ATOM     10  C   UNL     1      44.137   3.252   9.915  0.00  0.00    +0.000 C 
BRANCH  10  16
ATOM     11  C   UNL     1      46.903   0.060   7.480  0.00  0.00    +0.000 C 
ATOM     12  C   UNL     1      46.524   1.491   7.704  0.00  0.00    +0.000 A 
ATOM     13  C   UNL     1      47.138   2.515   6.989  0.00  0.00    +0.000 A 
ATOM     14  C   UNL     1      46.759   3.830   7.240  0.00  0.00    +0.000 A 
ATOM     15  C   UNL     1      45.784   4.085   8.197  0.00  0.00    +0.000 A 
ATOM     16  C   UNL     1      45.220   3.012   8.883  0.00  0.00    +0.000 A 
ATOM     17  N   UNL     1      45.571   1.723   8.638  0.00  0.00    +0.000 NA
ENDBRANCH  10  16
ENDBRANCH   8  10
ENDBRANCH   7   8
ENDBRANCH   1   7
BRANCH   4  18
ATOM     18  C   UNL     1      48.223   6.571  13.859  0.00  0.00    +0.000 C 
BRANCH  18  19
ATOM     19  N   UNL     1      48.049   6.418  15.279  0.00  0.00    +0.000 N 
ATOM     20  C   UNL     1      49.126   6.332  16.120  0.00  0.00    +0.000 C 
ATOM     21  O   UNL     1      50.281   6.433  15.712  0.00  0.00    +0.000 OA
ATOM     22  H   UNL     1      47.141   6.127  15.626  0.00  0.00    +0.000 HD
BRANCH  20  23
ATOM     23  C   UNL     1      48.823   6.186  17.548  0.00  0.00    +0.000 A 
ATOM     24  C   UNL     1      49.096   4.976  18.174  0.00  0.00    +0.000 A 
ATOM     25  S   UNL     1      48.754   4.981  19.840  0.00  0.00    +0.000 S 
ATOM     26  C   UNL     1      48.173   6.576  19.768  0.00  0.00    +0.000 A 
ATOM     27  N   UNL     1      47.704   7.163  20.888  0.00  0.00    +0.000 NA
ATOM     28  C   UNL     1      47.255   8.417  20.716  0.00  0.00    +0.000 A 
ATOM     29  C   UNL     1      47.246   9.102  19.518  0.00  0.00    +0.000 A 
ATOM     30  C   UNL     1      47.746   8.457  18.392  0.00  0.00    +0.000 A 
ATOM     31  C   UNL     1      48.248   7.132  18.490  0.00  0.00    +0.000 A 
BRANCH  30  32
ATOM     32  O   UNL     1      47.748   9.116  17.187  0.00  0.00    +0.000 OA
ATOM     33  H   UNL     1      47.319   8.557  16.514  0.00  0.00    +0.000 HD
ENDBRANCH  30  32
ENDBRANCH  20  23
ENDBRANCH  18  19
ENDBRANCH   4  18
TORSDOF 8
ENDMDL
MODEL 2
REMARK VINA RESULT:    -7.818      1.118      2.011
REMARK INTER + INTRA:         -12.410
REMARK INTER:                 -11.160
REMARK INTRA:                  -1.250
REMARK UNBOUND:                -1.164
REMARK  Name = 
REMARK  9 active torsions:
REMARK  status: ('A' for Active; 'I' for Inactive)
REMARK    1  A    between atoms: C_1  and  C_2
REMARK    2  A    between atoms: C_6  and  C_7
REMARK    3  A    between atoms: C_7  and  N_8
REMARK    4  A    between atoms: N_8  and  C_9
REMARK    5  A    between atoms: C_9  and  C_10
REMARK    6  A    between atoms: C_13  and  C_14
REMARK    7  A    between atoms: C_14  and  N_15
REMARK    8  A    between atoms: C_16  and  C_18
REMARK    9  A    between atoms: C_25  and  O_26
REMARK                            x       y       z     vdW  Elec       q    Type
REMARK                         _______ _______ _______ _____ _____    ______ ____
ROOT
ATOM      1  C   UNL     1      44.745   5.552  11.709  0.00  0.00    +0.000 A 
ATOM      2  C   UNL     1      45.001   5.057  12.995  0.00  0.00    +0.000 A 
ATOM      3  C   UNL     1      46.195   5.365  13.653  0.00  0.00    +0.000 A 
ATOM      4  C   UNL     1      47.154   6.181  13.038  0.00  0.00    +0.000 A 
ATOM      5  C   UNL     1      46.913   6.647  11.738  0.00  0.00    +0.000 A 
ATOM      6  C   UNL     1      45.720   6.339  11.082  0.00  0.00    +0.000 A 
ENDROOT
BRANCH   1   7
ATOM      7  C   UNL     1      43.426   5.270  11.024  0.00  0.00    +0.000 C 
BRANCH   7   8
ATOM      8  N   UNL     1      43.580   4.629   9.717  0.00  0.00    +0.000 NA
ATOM      9  H   UNL     1      42.667   4.584   9.261  0.00  0.00    +0.000 HD
BRANCH   8  10
ATOM     10  C   UNL     1      44.062   3.244   9.834  0.00  0.00    +0.000 C 
BRANCH  10  16
ATOM     11  C   UNL     1      46.912  -0.047   7.640  0.00  0.00    +0.000 C 
ATOM     12  C   UNL     1      46.499   1.387   7.762  0.00  0.00    +0.000 A 
ATOM     13  C   UNL     1      47.093   2.372   6.978  0.00  0.00    +0.000 A 
ATOM     14  C   UNL     1      46.684   3.692   7.135  0.00  0.00    +0.000 A 
ATOM     15  C   UNL     1      45.698   3.991   8.067  0.00  0.00    +0.000 A 
ATOM     16  C   UNL     1      45.155   2.957   8.825  0.00  0.00    +0.000 A 
ATOM     17  N   UNL     1      45.536   1.662   8.674  0.00  0.00    +0.000 NA
ENDBRANCH  10  16
ENDBRANCH   8  10
ENDBRANCH   7   8
ENDBRANCH   1   7
BRANCH   4  18
ATOM     18  C   UNL     1      48.430   6.540  13.752  0.00  0.00    +0.000 C 
BRANCH  18  19
ATOM     19  N   UNL     1      48.252   6.552  15.179  0.00  0.00    +0.000 N 
ATOM     20  C   UNL     1      48.870   7.489  15.963  0.00  0.00    +0.000 C 
ATOM     21  O   UNL     1      49.558   8.388  15.484  0.00  0.00    +0.000 OA
ATOM     22  H   UNL     1      47.873   5.724  15.627  0.00  0.00    +0.000 HD
BRANCH  20  23
ATOM     23  C   UNL     1      48.606   7.405  17.404  0.00  0.00    +0.000 A 
ATOM     24  C   UNL     1      48.180   8.543  18.078  0.00  0.00    +0.000 A 
ATOM     25  S   UNL     1      47.852   8.275  19.725  0.00  0.00    +0.000 S 
ATOM     26  C   UNL     1      48.328   6.647  19.606  0.00  0.00    +0.000 A 
ATOM     27  N   UNL     1      48.295   5.865  20.705  0.00  0.00    +0.000 NA
ATOM     28  C   UNL     1      48.707   4.602  20.503  0.00  0.00    +0.000 A 
ATOM     29  C   UNL     1      49.140   4.088  19.298  0.00  0.00    +0.000 A 
ATOM     30  C   UNL     1      49.149   4.933  18.193  0.00  0.00    +0.000 A 
ATOM     31  C   UNL     1      48.721   6.281  18.319  0.00  0.00    +0.000 A 
BRANCH  30  32
ATOM     32  O   UNL     1      49.575   4.447  16.981  0.00  0.00    +0.000 OA
ATOM     33  H   UNL     1      50.526   4.241  17.034  0.00  0.00    +0.000 HD
ENDBRANCH  30  32
ENDBRANCH  20  23
ENDBRANCH  18  19
ENDBRANCH   4  18
TORSDOF 8
ENDMDL
MODEL 3
REMARK VINA RESULT:    -7.738      2.217      2.735
REMARK INTER + INTRA:         -12.295
REMARK INTER:                 -11.195
REMARK INTRA:                  -1.100
REMARK UNBOUND:                -1.164
REMARK  Name = 
REMARK  9 active torsions:
REMARK  status: ('A' for Active; 'I' for Inactive)
REMARK    1  A    between atoms: C_1  and  C_2
REMARK    2  A    between atoms: C_6  and  C_7
REMARK    3  A    between atoms: C_7  and  N_8
REMARK    4  A    between atoms: N_8  and  C_9
REMARK    5  A    between atoms: C_9  and  C_10
REMARK    6  A    between atoms: C_13  and  C_14
REMARK    7  A    between atoms: C_14  and  N_15
REMARK    8  A    between atoms: C_16  and  C_18
REMARK    9  A    between atoms: C_25  and  O_26
REMARK                            x       y       z     vdW  Elec       q    Type
REMARK                         _______ _______ _______ _____ _____    ______ ____
ROOT
ATOM      1  C   UNL     1      44.507   6.049  11.448  0.00  0.00    +0.000 A 
ATOM      2  C   UNL     1      45.632   5.378  11.948  0.00  0.00    +0.000 A 
ATOM      3  C   UNL     1      46.659   6.082  12.583  0.00  0.00    +0.000 A 
ATOM      4  C   UNL     1      46.579   7.472  12.734  0.00  0.00    +0.000 A 
ATOM      5  C   UNL     1      45.471   8.147  12.203  0.00  0.00    +0.000 A 
ATOM      6  C   UNL     1      44.445   7.443  11.569  0.00  0.00    +0.000 A 
ENDROOT
BRANCH   1   7
ATOM      7  C   UNL     1      43.368   5.279  10.818  0.00  0.00    +0.000 C 
BRANCH   7   8
ATOM      8  N   UNL     1      43.721   4.676   9.532  0.00  0.00    +0.000 NA
ATOM      9  H   UNL     1      42.897   4.679   8.929  0.00  0.00    +0.000 HD
BRANCH   8  10
ATOM     10  C   UNL     1      44.134   3.272   9.674  0.00  0.00    +0.000 C 
BRANCH  10  16
ATOM     11  C   UNL     1      46.923  -0.165   7.631  0.00  0.00    +0.000 C 
ATOM     12  C   UNL     1      46.554   1.285   7.705  0.00  0.00    +0.000 A 
ATOM     13  C   UNL     1      47.194   2.229   6.908  0.00  0.00    +0.000 A 
ATOM     14  C   UNL     1      46.823   3.564   7.020  0.00  0.00    +0.000 A 
ATOM     15  C   UNL     1      45.829   3.919   7.924  0.00  0.00    +0.000 A 
ATOM     16  C   UNL     1      45.238   2.924   8.697  0.00  0.00    +0.000 A 
ATOM     17  N   UNL     1      45.581   1.614   8.588  0.00  0.00    +0.000 NA
ENDBRANCH  10  16
ENDBRANCH   8  10
ENDBRANCH   7   8
ENDBRANCH   1   7
BRANCH   4  18
ATOM     18  C   UNL     1      47.668   8.233  13.441  0.00  0.00    +0.000 C 
BRANCH  18  19
ATOM     19  N   UNL     1      48.466   7.368  14.269  0.00  0.00    +0.000 N 
ATOM     20  C   UNL     1      48.840   7.743  15.532  0.00  0.00    +0.000 C 
ATOM     21  O   UNL     1      48.472   8.804  16.033  0.00  0.00    +0.000 OA
ATOM     22  H   UNL     1      48.955   6.595  13.831  0.00  0.00    +0.000 HD
BRANCH  20  23
ATOM     23  C   UNL     1      49.645   6.775  16.284  0.00  0.00    +0.000 A 
ATOM     24  C   UNL     1      50.944   7.113  16.643  0.00  0.00    +0.000 A 
ATOM     25  S   UNL     1      51.727   5.918  17.565  0.00  0.00    +0.000 S 
ATOM     26  C   UNL     1      50.381   4.886  17.464  0.00  0.00    +0.000 A 
ATOM     27  N   UNL     1      50.432   3.671  18.048  0.00  0.00    +0.000 NA
ATOM     28  C   UNL     1      49.321   2.931  17.893  0.00  0.00    +0.000 A 
ATOM     29  C   UNL     1      48.192   3.323  17.205  0.00  0.00    +0.000 A 
ATOM     30  C   UNL     1      48.186   4.588  16.625  0.00  0.00    +0.000 A 
ATOM     31  C   UNL     1      49.317   5.437  16.749  0.00  0.00    +0.000 A 
BRANCH  30  32
ATOM     32  O   UNL     1      47.075   5.004  15.934  0.00  0.00    +0.000 OA
ATOM     33  H   UNL     1      46.295   4.512  16.253  0.00  0.00    +0.000 HD
ENDBRANCH  30  32
ENDBRANCH  20  23
ENDBRANCH  18  19
ENDBRANCH   4  18
TORSDOF 8
ENDMDL
MODEL 4
REMARK VINA RESULT:    -7.284      3.139      8.943
REMARK INTER + INTRA:         -11.642
REMARK INTER:                 -10.059
REMARK INTRA:                  -1.584
REMARK UNBOUND:                -1.164
REMARK  Name = 
REMARK  9 active torsions:
REMARK  status: ('A' for Active; 'I' for Inactive)
REMARK    1  A    between atoms: C_1  and  C_2
REMARK    2  A    between atoms: C_6  and  C_7
REMARK    3  A    between atoms: C_7  and  N_8
REMARK    4  A    between atoms: N_8  and  C_9
REMARK    5  A    between atoms: C_9  and  C_10
REMARK    6  A    between atoms: C_13  and  C_14
REMARK    7  A    between atoms: C_14  and  N_15
REMARK    8  A    between atoms: C_16  and  C_18
REMARK    9  A    between atoms: C_25  and  O_26
REMARK                            x       y       z     vdW  Elec       q    Type
REMARK                         _______ _______ _______ _____ _____    ______ ____
ROOT
ATOM      1  C   UNL     1      49.102   8.003  16.176  0.00  0.00    +0.000 A 
ATOM      2  C   UNL     1      49.321   6.891  15.351  0.00  0.00    +0.000 A 
ATOM      3  C   UNL     1      48.784   6.843  14.062  0.00  0.00    +0.000 A 
ATOM      4  C   UNL     1      48.020   7.910  13.571  0.00  0.00    +0.000 A 
ATOM      5  C   UNL     1      47.771   9.006  14.408  0.00  0.00    +0.000 A 
ATOM      6  C   UNL     1      48.310   9.054  15.696  0.00  0.00    +0.000 A 
ENDROOT
BRANCH   1   7
ATOM      7  C   UNL     1      49.737   8.082  17.547  0.00  0.00    +0.000 C 
BRANCH   7   8
ATOM      8  N   UNL     1      48.887   7.540  18.608  0.00  0.00    +0.000 NA
ATOM      9  H   UNL     1      48.845   8.214  19.374  0.00  0.00    +0.000 HD
BRANCH   8  10
ATOM     10  C   UNL     1      49.432   6.295  19.170  0.00  0.00    +0.000 C 
BRANCH  10  16
ATOM     11  C   UNL     1      50.401   1.970  17.138  0.00  0.00    +0.000 C 
ATOM     12  C   UNL     1      49.376   3.012  17.467  0.00  0.00    +0.000 A 
ATOM     13  C   UNL     1      48.044   2.846  17.100  0.00  0.00    +0.000 A 
ATOM     14  C   UNL     1      47.131   3.846  17.418  0.00  0.00    +0.000 A 
ATOM     15  C   UNL     1      47.572   4.980  18.090  0.00  0.00    +0.000 A 
ATOM     16  C   UNL     1      48.921   5.084  18.417  0.00  0.00    +0.000 A 
ATOM     17  N   UNL     1      49.822   4.109  18.124  0.00  0.00    +0.000 NA
ENDBRANCH  10  16
ENDBRANCH   8  10
ENDBRANCH   7   8
ENDBRANCH   1   7
BRANCH   4  18
ATOM     18  C   UNL     1      47.461   7.877  12.173  0.00  0.00    +0.000 C 
BRANCH  18  19
ATOM     19  N   UNL     1      46.803   6.628  11.897  0.00  0.00    +0.000 N 
ATOM     20  C   UNL     1      45.446   6.497  12.026  0.00  0.00    +0.000 C 
ATOM     21  O   UNL     1      44.726   7.446  12.330  0.00  0.00    +0.000 OA
ATOM     22  H   UNL     1      47.366   5.785  11.848  0.00  0.00    +0.000 HD
BRANCH  20  23
ATOM     23  C   UNL     1      44.888   5.178  11.708  0.00  0.00    +0.000 A 
ATOM     24  C   UNL     1      44.235   4.465  12.706  0.00  0.00    +0.000 A 
ATOM     25  S   UNL     1      43.587   2.986  12.172  0.00  0.00    +0.000 S 
ATOM     26  C   UNL     1      44.209   3.221  10.608  0.00  0.00    +0.000 A 
ATOM     27  N   UNL     1      44.008   2.277   9.666  0.00  0.00    +0.000 NA
ATOM     28  C   UNL     1      44.556   2.555   8.471  0.00  0.00    +0.000 A 
ATOM     29  C   UNL     1      45.277   3.692   8.171  0.00  0.00    +0.000 A 
ATOM     30  C   UNL     1      45.452   4.640   9.175  0.00  0.00    +0.000 A 
ATOM     31  C   UNL     1      44.897   4.426  10.464  0.00  0.00    +0.000 A 
BRANCH  30  32
ATOM     32  O   UNL     1      46.165   5.781   8.903  0.00  0.00    +0.000 OA
ATOM     33  H   UNL     1      47.046   5.536   8.563  0.00  0.00    +0.000 HD
ENDBRANCH  30  32
ENDBRANCH  20  23
ENDBRANCH  18  19
ENDBRANCH   4  18
TORSDOF 8
ENDMDL
MODEL 5
REMARK VINA RESULT:    -6.910      1.496      1.992
REMARK INTER + INTRA:         -11.105
REMARK INTER:                 -10.308
REMARK INTRA:                  -0.796
REMARK UNBOUND:                -1.164
REMARK  Name = 
REMARK  9 active torsions:
REMARK  status: ('A' for Active; 'I' for Inactive)
REMARK    1  A    between atoms: C_1  and  C_2
REMARK    2  A    between atoms: C_6  and  C_7
REMARK    3  A    between atoms: C_7  and  N_8
REMARK    4  A    between atoms: N_8  and  C_9
REMARK    5  A    between atoms: C_9  and  C_10
REMARK    6  A    between atoms: C_13  and  C_14
REMARK    7  A    between atoms: C_14  and  N_15
REMARK    8  A    between atoms: C_16  and  C_18
REMARK    9  A    between atoms: C_25  and  O_26
REMARK                            x       y       z     vdW  Elec       q    Type
REMARK                         _______ _______ _______ _____ _____    ______ ____
ROOT
ATOM      1  C   UNL     1      45.594   5.489  11.787  0.00  0.00    +0.000 A 
ATOM      2  C   UNL     1      45.355   4.166  12.184  0.00  0.00    +0.000 A 
ATOM      3  C   UNL     1      45.979   3.638  13.318  0.00  0.00    +0.000 A 
ATOM      4  C   UNL     1      46.850   4.426  14.080  0.00  0.00    +0.000 A 
ATOM      5  C   UNL     1      47.117   5.737  13.663  0.00  0.00    +0.000 A 
ATOM      6  C   UNL     1      46.492   6.264  12.530  0.00  0.00    +0.000 A 
ENDROOT
BRANCH   1   7
ATOM      7  C   UNL     1      44.869   6.078  10.597  0.00  0.00    +0.000 C 
BRANCH   7   8
ATOM      8  N   UNL     1      45.244   5.454   9.327  0.00  0.00    +0.000 NA
ATOM      9  H   UNL     1      45.047   6.108   8.567  0.00  0.00    +0.000 HD
BRANCH   8  10
ATOM     10  C   UNL     1      44.459   4.241   9.054  0.00  0.00    +0.000 C 
BRANCH  10  16
ATOM     11  C   UNL     1      47.145   3.088   5.152  0.00  0.00    +0.000 C 
ATOM     12  C   UNL     1      46.587   2.660   6.474  0.00  0.00    +0.000 A 
ATOM     13  C   UNL     1      46.837   1.388   6.979  0.00  0.00    +0.000 A 
ATOM     14  C   UNL     1      46.288   1.033   8.207  0.00  0.00    +0.000 A 
ATOM     15  C   UNL     1      45.506   1.953   8.892  0.00  0.00    +0.000 A 
ATOM     16  C   UNL     1      45.287   3.205   8.322  0.00  0.00    +0.000 A 
ATOM     17  N   UNL     1      45.828   3.570   7.131  0.00  0.00    +0.000 NA
ENDBRANCH  10  16
ENDBRANCH   8  10
ENDBRANCH   7   8
ENDBRANCH   1   7
BRANCH   4  18
ATOM     18  C   UNL     1      47.505   3.873  15.318  0.00  0.00    +0.000 C 
BRANCH  18  19
ATOM     19  N   UNL     1      47.356   4.765  16.437  0.00  0.00    +0.000 N 
ATOM     20  C   UNL     1      48.446   5.338  17.037  0.00  0.00    +0.000 C 
ATOM     21  O   UNL     1      49.588   5.160  16.618  0.00  0.00    +0.000 OA
ATOM     22  H   UNL     1      46.472   4.774  16.935  0.00  0.00    +0.000 HD
BRANCH  20  23
ATOM     23  C   UNL     1      48.169   6.236  18.163  0.00  0.00    +0.000 A 
ATOM     24  C   UNL     1      47.960   5.690  19.424  0.00  0.00    +0.000 A 
ATOM     25  S   UNL     1      47.717   6.856  20.637  0.00  0.00    +0.000 S 
ATOM     26  C   UNL     1      47.821   8.124  19.510  0.00  0.00    +0.000 A 
ATOM     27  N   UNL     1      47.672   9.398  19.929  0.00  0.00    +0.000 NA
ATOM     28  C   UNL     1      47.756  10.319  18.955  0.00  0.00    +0.000 A 
ATOM     29  C   UNL     1      47.972  10.049  17.620  0.00  0.00    +0.000 A 
ATOM     30  C   UNL     1      48.126   8.719  17.238  0.00  0.00    +0.000 A 
ATOM     31  C   UNL     1      48.059   7.685  18.208  0.00  0.00    +0.000 A 
BRANCH  30  32
ATOM     32  O   UNL     1      48.343   8.423  15.915  0.00  0.00    +0.000 OA
ATOM     33  H   UNL     1      48.911   9.109  15.520  0.00  0.00    +0.000 HD
ENDBRANCH  30  32
ENDBRANCH  20  23
ENDBRANCH  18  19
ENDBRANCH   4  18
TORSDOF 8
ENDMDL
MODEL 6
REMARK VINA RESULT:    -6.570      2.499      3.384
REMARK INTER + INTRA:         -10.615
REMARK INTER:                  -8.996
REMARK INTRA:                  -1.619
REMARK UNBOUND:                -1.164
REMARK  Name = 
REMARK  9 active torsions:
REMARK  status: ('A' for Active; 'I' for Inactive)
REMARK    1  A    between atoms: C_1  and  C_2
REMARK    2  A    between atoms: C_6  and  C_7
REMARK    3  A    between atoms: C_7  and  N_8
REMARK    4  A    between atoms: N_8  and  C_9
REMARK    5  A    between atoms: C_9  and  C_10
REMARK    6  A    between atoms: C_13  and  C_14
REMARK    7  A    between atoms: C_14  and  N_15
REMARK    8  A    between atoms: C_16  and  C_18
REMARK    9  A    between atoms: C_25  and  O_26
REMARK                            x       y       z     vdW  Elec       q    Type
REMARK                         _______ _______ _______ _____ _____    ______ ____
ROOT
ATOM      1  C   UNL     1      45.475   7.709  11.706  0.00  0.00    +0.000 A 
ATOM      2  C   UNL     1      46.335   6.609  11.578  0.00  0.00    +0.000 A 
ATOM      3  C   UNL     1      47.656   6.681  12.027  0.00  0.00    +0.000 A 
ATOM      4  C   UNL     1      48.142   7.854  12.618  0.00  0.00    +0.000 A 
ATOM      5  C   UNL     1      47.293   8.966  12.714  0.00  0.00    +0.000 A 
ATOM      6  C   UNL     1      45.973   8.893  12.266  0.00  0.00    +0.000 A 
ENDROOT
BRANCH   1   7
ATOM      7  C   UNL     1      44.028   7.609  11.278  0.00  0.00    +0.000 C 
BRANCH   7   8
ATOM      8  N   UNL     1      43.215   6.789  12.179  0.00  0.00    +0.000 NA
ATOM      9  H   UNL     1      43.832   6.320  12.845  0.00  0.00    +0.000 HD
BRANCH   8  10
ATOM     10  C   UNL     1      42.489   5.732  11.460  0.00  0.00    +0.000 C 
BRANCH  10  16
ATOM     11  C   UNL     1      44.849   3.578   7.778  0.00  0.00    +0.000 C 
ATOM     12  C   UNL     1      44.572   3.621   9.249  0.00  0.00    +0.000 A 
ATOM     13  C   UNL     1      45.162   2.707  10.116  0.00  0.00    +0.000 A 
ATOM     14  C   UNL     1      44.866   2.781  11.473  0.00  0.00    +0.000 A 
ATOM     15  C   UNL     1      43.990   3.761  11.925  0.00  0.00    +0.000 A 
ATOM     16  C   UNL     1      43.428   4.636  10.999  0.00  0.00    +0.000 A 
ATOM     17  N   UNL     1      43.719   4.584   9.673  0.00  0.00    +0.000 NA
ENDBRANCH  10  16
ENDBRANCH   8  10
ENDBRANCH   7   8
ENDBRANCH   1   7
BRANCH   4  18
ATOM     18  C   UNL     1      49.557   7.930  13.129  0.00  0.00    +0.000 C 
BRANCH  18  19
ATOM     19  N   UNL     1      49.759   7.059  14.256  0.00  0.00    +0.000 N 
ATOM     20  C   UNL     1      49.670   7.528  15.540  0.00  0.00    +0.000 C 
ATOM     21  O   UNL     1      49.364   8.693  15.788  0.00  0.00    +0.000 OA
ATOM     22  H   UNL     1      50.207   6.163  14.101  0.00  0.00    +0.000 HD
BRANCH  20  23
ATOM     23  C   UNL     1      49.887   6.545  16.606  0.00  0.00    +0.000 A 
ATOM     24  C   UNL     1      50.997   6.680  17.431  0.00  0.00    +0.000 A 
ATOM     25  S   UNL     1      51.079   5.505  18.658  0.00  0.00    +0.000 S 
ATOM     26  C   UNL     1      49.670   4.743  18.092  0.00  0.00    +0.000 A 
ATOM     27  N   UNL     1      49.215   3.638  18.720  0.00  0.00    +0.000 NA
ATOM     28  C   UNL     1      48.105   3.107  18.181  0.00  0.00    +0.000 A 
ATOM     29  C   UNL     1      47.440   3.602  17.078  0.00  0.00    +0.000 A 
ATOM     30  C   UNL     1      47.944   4.747  16.470  0.00  0.00    +0.000 A 
ATOM     31  C   UNL     1      49.109   5.376  16.982  0.00  0.00    +0.000 A 
BRANCH  30  32
ATOM     32  O   UNL     1      47.301   5.260  15.370  0.00  0.00    +0.000 OA
ATOM     33  H   UNL     1      47.358   6.233  15.389  0.00  0.00    +0.000 HD
ENDBRANCH  30  32
ENDBRANCH  20  23
ENDBRANCH  18  19
ENDBRANCH   4  18
TORSDOF 8
ENDMDL
MODEL 7
REMARK VINA RESULT:    -6.383      1.759      2.572
REMARK INTER + INTRA:         -10.347
REMARK INTER:                  -9.322
REMARK INTRA:                  -1.025
REMARK UNBOUND:                -1.164
REMARK  Name = 
REMARK  9 active torsions:
REMARK  status: ('A' for Active; 'I' for Inactive)
REMARK    1  A    between atoms: C_1  and  C_2
REMARK    2  A    between atoms: C_6  and  C_7
REMARK    3  A    between atoms: C_7  and  N_8
REMARK    4  A    between atoms: N_8  and  C_9
REMARK    5  A    between atoms: C_9  and  C_10
REMARK    6  A    between atoms: C_13  and  C_14
REMARK    7  A    between atoms: C_14  and  N_15
REMARK    8  A    between atoms: C_16  and  C_18
REMARK    9  A    between atoms: C_25  and  O_26
REMARK                            x       y       z     vdW  Elec       q    Type
REMARK                         _______ _______ _______ _____ _____    ______ ____
ROOT
ATOM      1  C   UNL     1      46.100   7.456  12.471  0.00  0.00    +0.000 A 
ATOM      2  C   UNL     1      46.424   8.576  13.249  0.00  0.00    +0.000 A 
ATOM      3  C   UNL     1      47.685   8.694  13.840  0.00  0.00    +0.000 A 
ATOM      4  C   UNL     1      48.649   7.695  13.660  0.00  0.00    +0.000 A 
ATOM      5  C   UNL     1      48.314   6.558  12.912  0.00  0.00    +0.000 A 
ATOM      6  C   UNL     1      47.054   6.441  12.321  0.00  0.00    +0.000 A 
ENDROOT
BRANCH   1   7
ATOM      7  C   UNL     1      44.758   7.360  11.780  0.00  0.00    +0.000 C 
BRANCH   7   8
ATOM      8  N   UNL     1      44.782   6.507  10.591  0.00  0.00    +0.000 NA
ATOM      9  H   UNL     1      44.356   7.013   9.812  0.00  0.00    +0.000 HD
BRANCH   8  10
ATOM     10  C   UNL     1      43.994   5.279  10.776  0.00  0.00    +0.000 C 
BRANCH  10  16
ATOM     11  C   UNL     1      46.797   3.914   7.027  0.00  0.00    +0.000 C 
ATOM     12  C   UNL     1      45.862   3.502   8.123  0.00  0.00    +0.000 A 
ATOM     13  C   UNL     1      45.514   2.167   8.303  0.00  0.00    +0.000 A 
ATOM     14  C   UNL     1      44.634   1.836   9.328  0.00  0.00    +0.000 A 
ATOM     15  C   UNL     1      44.127   2.843  10.140  0.00  0.00    +0.000 A 
ATOM     16  C   UNL     1      44.510   4.159   9.895  0.00  0.00    +0.000 A 
ATOM     17  N   UNL     1      45.378   4.496   8.907  0.00  0.00    +0.000 NA
ENDBRANCH  10  16
ENDBRANCH   8  10
ENDBRANCH   7   8
ENDBRANCH   1   7
BRANCH   4  18
ATOM     18  C   UNL     1      50.019   7.827  14.271  0.00  0.00    +0.000 C 
BRANCH  18  19
ATOM     19  N   UNL     1      50.163   6.989  15.432  0.00  0.00    +0.000 N 
ATOM     20  C   UNL     1      49.892   7.465  16.687  0.00  0.00    +0.000 C 
ATOM     21  O   UNL     1      49.467   8.603  16.875  0.00  0.00    +0.000 OA
ATOM     22  H   UNL     1      50.697   6.132  15.347  0.00  0.00    +0.000 HD
BRANCH  20  23
ATOM     23  C   UNL     1      50.067   6.516  17.792  0.00  0.00    +0.000 A 
ATOM     24  C   UNL     1      51.201   5.714  17.818  0.00  0.00    +0.000 A 
ATOM     25  S   UNL     1      51.296   4.714  19.190  0.00  0.00    +0.000 S 
ATOM     26  C   UNL     1      49.798   5.274  19.763  0.00  0.00    +0.000 A 
ATOM     27  N   UNL     1      49.300   4.776  20.914  0.00  0.00    +0.000 NA
ATOM     28  C   UNL     1      48.103   5.275  21.267  0.00  0.00    +0.000 A 
ATOM     29  C   UNL     1      47.391   6.217  20.553  0.00  0.00    +0.000 A 
ATOM     30  C   UNL     1      47.950   6.704  19.376  0.00  0.00    +0.000 A 
ATOM     31  C   UNL     1      49.216   6.235  18.937  0.00  0.00    +0.000 A 
BRANCH  30  32
ATOM     32  O   UNL     1      47.262   7.643  18.647  0.00  0.00    +0.000 OA
ATOM     33  H   UNL     1      47.643   8.524  18.816  0.00  0.00    +0.000 HD
ENDBRANCH  30  32
ENDBRANCH  20  23
ENDBRANCH  18  19
ENDBRANCH   4  18
TORSDOF 8
ENDMDL
MODEL 8
REMARK VINA RESULT:    -6.108      5.455      8.707
REMARK INTER + INTRA:          -9.951
REMARK INTER:                  -8.943
REMARK INTRA:                  -1.008
REMARK UNBOUND:                -1.164
REMARK  Name = 
REMARK  9 active torsions:
REMARK  status: ('A' for Active; 'I' for Inactive)
REMARK    1  A    between atoms: C_1  and  C_2
REMARK    2  A    between atoms: C_6  and  C_7
REMARK    3  A    between atoms: C_7  and  N_8
REMARK    4  A    between atoms: N_8  and  C_9
REMARK    5  A    between atoms: C_9  and  C_10
REMARK    6  A    between atoms: C_13  and  C_14
REMARK    7  A    between atoms: C_14  and  N_15
REMARK    8  A    between atoms: C_16  and  C_18
REMARK    9  A    between atoms: C_25  and  O_26
REMARK                            x       y       z     vdW  Elec       q    Type
REMARK                         _______ _______ _______ _____ _____    ______ ____
ROOT
ATOM      1  C   UNL     1      50.401   8.827  11.727  0.00  0.00    +0.000 A 
ATOM      2  C   UNL     1      50.095   7.749  12.570  0.00  0.00    +0.000 A 
ATOM      3  C   UNL     1      48.806   7.590  13.084  0.00  0.00    +0.000 A 
ATOM      4  C   UNL     1      47.794   8.503  12.760  0.00  0.00    +0.000 A 
ATOM      5  C   UNL     1      48.109   9.601  11.946  0.00  0.00    +0.000 A 
ATOM      6  C   UNL     1      49.398   9.759  11.432  0.00  0.00    +0.000 A 
ENDROOT
BRANCH   1   7
ATOM      7  C   UNL     1      51.780   8.963  11.120  0.00  0.00    +0.000 C 
BRANCH   7   8
ATOM      8  N   UNL     1      52.138   7.845  10.245  0.00  0.00    +0.000 NA
ATOM      9  H   UNL     1      52.209   6.996  10.807  0.00  0.00    +0.000 HD
BRANCH   8  10
ATOM     10  C   UNL     1      53.448   8.040   9.607  0.00  0.00    +0.000 C 
BRANCH  10  16
ATOM     11  C   UNL     1      52.127  11.155   6.097  0.00  0.00    +0.000 C 
ATOM     12  C   UNL     1      52.692   9.814   6.450  0.00  0.00    +0.000 A 
ATOM     13  C   UNL     1      53.059   8.908   5.460  0.00  0.00    +0.000 A 
ATOM     14  C   UNL     1      53.569   7.671   5.837  0.00  0.00    +0.000 A 
ATOM     15  C   UNL     1      53.697   7.373   7.189  0.00  0.00    +0.000 A 
ATOM     16  C   UNL     1      53.300   8.323   8.126  0.00  0.00    +0.000 A 
ATOM     17  N   UNL     1      52.813   9.540   7.771  0.00  0.00    +0.000 NA
ENDBRANCH  10  16
ENDBRANCH   8  10
ENDBRANCH   7   8
ENDBRANCH   1   7
BRANCH   4  18
ATOM     18  C   UNL     1      46.396   8.323  13.288  0.00  0.00    +0.000 C 
BRANCH  18  19
ATOM     19  N   UNL     1      45.891   7.005  13.006  0.00  0.00    +0.000 N 
ATOM     20  C   UNL     1      45.106   6.767  11.910  0.00  0.00    +0.000 C 
ATOM     21  O   UNL     1      44.842   7.647  11.093  0.00  0.00    +0.000 OA
ATOM     22  H   UNL     1      45.909   6.312  13.746  0.00  0.00    +0.000 HD
BRANCH  20  23
ATOM     23  C   UNL     1      44.658   5.383  11.722  0.00  0.00    +0.000 A 
ATOM     24  C   UNL     1      44.036   4.727  12.778  0.00  0.00    +0.000 A 
ATOM     25  S   UNL     1      43.515   3.156  12.390  0.00  0.00    +0.000 S 
ATOM     26  C   UNL     1      44.156   3.276  10.821  0.00  0.00    +0.000 A 
ATOM     27  N   UNL     1      44.050   2.227   9.979  0.00  0.00    +0.000 NA
ATOM     28  C   UNL     1      44.604   2.424   8.771  0.00  0.00    +0.000 A 
ATOM     29  C   UNL     1      45.244   3.576   8.366  0.00  0.00    +0.000 A 
ATOM     30  C   UNL     1      45.322   4.632   9.268  0.00  0.00    +0.000 A 
ATOM     31  C   UNL     1      44.754   4.510  10.564  0.00  0.00    +0.000 A 
BRANCH  30  32
ATOM     32  O   UNL     1      45.954   5.791   8.891  0.00  0.00    +0.000 OA
ATOM     33  H   UNL     1      45.444   6.556   9.215  0.00  0.00    +0.000 HD
ENDBRANCH  30  32
ENDBRANCH  20  23
ENDBRANCH  18  19
ENDBRANCH   4  18
TORSDOF 8
ENDMDL
MODEL 9
REMARK VINA RESULT:    -6.027      5.557      8.223
REMARK INTER + INTRA:          -9.834
REMARK INTER:                  -8.714
REMARK INTRA:                  -1.119
REMARK UNBOUND:                -1.164
REMARK  Name = 
REMARK  9 active torsions:
REMARK  status: ('A' for Active; 'I' for Inactive)
REMARK    1  A    between atoms: C_1  and  C_2
REMARK    2  A    between atoms: C_6  and  C_7
REMARK    3  A    between atoms: C_7  and  N_8
REMARK    4  A    between atoms: N_8  and  C_9
REMARK    5  A    between atoms: C_9  and  C_10
REMARK    6  A    between atoms: C_13  and  C_14
REMARK    7  A    between atoms: C_14  and  N_15
REMARK    8  A    between atoms: C_16  and  C_18
REMARK    9  A    between atoms: C_25  and  O_26
REMARK                            x       y       z     vdW  Elec       q    Type
REMARK                         _______ _______ _______ _____ _____    ______ ____
ROOT
ATOM      1  C   UNL     1      49.638  11.882   9.905  0.00  0.00    +0.000 A 
ATOM      2  C   UNL     1      48.379  12.347   9.498  0.00  0.00    +0.000 A 
ATOM      3  C   UNL     1      47.218  11.923  10.149  0.00  0.00    +0.000 A 
ATOM      4  C   UNL     1      47.292  11.028  11.223  0.00  0.00    +0.000 A 
ATOM      5  C   UNL     1      48.547  10.535  11.607  0.00  0.00    +0.000 A 
ATOM      6  C   UNL     1      49.708  10.960  10.957  0.00  0.00    +0.000 A 
ENDROOT
BRANCH   1   7
ATOM      7  C   UNL     1      50.898  12.391   9.242  0.00  0.00    +0.000 C 
BRANCH   7   8
ATOM      8  N   UNL     1      52.109  11.708   9.703  0.00  0.00    +0.000 NA
ATOM      9  H   UNL     1      52.806  12.409   9.957  0.00  0.00    +0.000 HD
BRANCH   8  10
ATOM     10  C   UNL     1      52.710  10.877   8.649  0.00  0.00    +0.000 C 
BRANCH  10  16
ATOM     11  C   UNL     1      52.913   6.205   7.272  0.00  0.00    +0.000 C 
ATOM     12  C   UNL     1      52.858   7.189   8.399  0.00  0.00    +0.000 A 
ATOM     13  C   UNL     1      52.844   6.762   9.723  0.00  0.00    +0.000 A 
ATOM     14  C   UNL     1      52.781   7.714  10.735  0.00  0.00    +0.000 A 
ATOM     15  C   UNL     1      52.732   9.061  10.398  0.00  0.00    +0.000 A 
ATOM     16  C   UNL     1      52.738   9.417   9.052  0.00  0.00    +0.000 A 
ATOM     17  N   UNL     1      52.812   8.499   8.053  0.00  0.00    +0.000 NA
ENDBRANCH  10  16
ENDBRANCH   8  10
ENDBRANCH   7   8
ENDBRANCH   1   7
BRANCH   4  18
ATOM     18  C   UNL     1      46.047  10.587  11.946  0.00  0.00    +0.000 C 
BRANCH  18  19
ATOM     19  N   UNL     1      46.135   9.212  12.359  0.00  0.00    +0.000 N 
ATOM     20  C   UNL     1      45.247   8.276  11.899  0.00  0.00    +0.000 C 
ATOM     21  O   UNL     1      44.374   8.553  11.080  0.00  0.00    +0.000 OA
ATOM     22  H   UNL     1      46.695   8.985  13.174  0.00  0.00    +0.000 HD
BRANCH  20  23
ATOM     23  C   UNL     1      45.442   6.905  12.383  0.00  0.00    +0.000 A 
ATOM     24  C   UNL     1      46.560   6.616  13.155  0.00  0.00    +0.000 A 
ATOM     25  S   UNL     1      46.615   5.004  13.696  0.00  0.00    +0.000 S 
ATOM     26  C   UNL     1      45.180   4.625  12.868  0.00  0.00    +0.000 A 
ATOM     27  N   UNL     1      44.697   3.366  12.920  0.00  0.00    +0.000 NA
ATOM     28  C   UNL     1      43.569   3.172  12.217  0.00  0.00    +0.000 A 
ATOM     29  C   UNL     1      42.912   4.137  11.482  0.00  0.00    +0.000 A 
ATOM     30  C   UNL     1      43.446   5.421  11.465  0.00  0.00    +0.000 A 
ATOM     31  C   UNL     1      44.632   5.713  12.189  0.00  0.00    +0.000 A 
BRANCH  30  32
ATOM     32  O   UNL     1      42.812   6.401  10.742  0.00  0.00    +0.000 OA
ATOM     33  H   UNL     1      42.475   6.020   9.910  0.00  0.00    +0.000 HD
ENDBRANCH  30  32
ENDBRANCH  20  23
ENDBRANCH  18  19
ENDBRANCH   4  18
TORSDOF 8
ENDMDL
