MODEL 1
REMARK VINA RESULT:    -6.530      0.000      0.000
REMARK INTER + INTRA:          -9.924
REMARK INTER:                  -9.202
REMARK INTRA:                  -0.722
REMARK UNBOUND:                -0.722
REMARK  Name = 
REMARK  8 active torsions:
REMARK  status: ('A' for Active; 'I' for Inactive)
REMARK    1  A    between atoms: N_1  and  C_2
REMARK    2  A    between atoms: C_2  and  C_3
REMARK    3  A    between atoms: C_7  and  S_8
REMARK    4  A    between atoms: S_8  and  C_9
REMARK    5  A    between atoms: C_9  and  C_10
REMARK    6  A    between atoms: C_10  and  C_11
REMARK    7  A    between atoms: C_15  and  C_16
REMARK    8  A    between atoms: C_16  and  N_17
REMARK                            x       y       z     vdW  Elec       q    Type
REMARK                         _______ _______ _______ _____ _____    ______ ____
ROOT
ATOM      1  C   UNL     1      43.224   4.006  11.134  0.00  0.00    +0.000 C 
ENDROOT
BRANCH   1   2
ATOM      2  S   UNL     1      43.421   4.262  12.937  0.00  0.00    +0.000 S 
BRANCH   2   7
ATOM      3  C   UNL     1      45.959   7.418  12.514  0.00  0.00    +0.000 A 
ATOM      4  C   UNL     1      47.187   6.877  12.922  0.00  0.00    +0.000 A 
ATOM      5  C   UNL     1      47.275   5.546  13.330  0.00  0.00    +0.000 A 
ATOM      6  C   UNL     1      46.132   4.742  13.348  0.00  0.00    +0.000 A 
ATOM      7  C   UNL     1      44.900   5.264  12.950  0.00  0.00    +0.000 A 
ATOM      8  C   UNL     1      44.823   6.594  12.519  0.00  0.00    +0.000 A 
BRANCH   3   9
ATOM      9  C   UNL     1      45.850   8.871  12.130  0.00  0.00    +0.000 C 
BRANCH   9  10
ATOM     10  N   UNL     1      44.758   9.543  12.824  0.00  0.00    +0.000 NA
ATOM     11  H   UNL     1      44.716   9.205  13.781  0.00  0.00    +0.000 HD
ATOM     12  H   UNL     1      43.877   9.272  12.385  0.00  0.00    +0.000 HD
ENDBRANCH   9  10
ENDBRANCH   3   9
ENDBRANCH   2   7
ENDBRANCH   1   2
BRANCH   1  13
ATOM     13  C   UNL     1      44.030   2.783  10.689  0.00  0.00    +0.000 C 
BRANCH  13  14
ATOM     14  C   UNL     1      44.935   3.049   9.505  0.00  0.00    +0.000 A 
ATOM     15  C   UNL     1      45.176   4.363   9.109  0.00  0.00    +0.000 A 
ATOM     16  C   UNL     1      46.046   4.599   8.049  0.00  0.00    +0.000 A 
ATOM     17  C   UNL     1      46.654   3.520   7.416  0.00  0.00    +0.000 A 
ATOM     18  C   UNL     1      46.368   2.232   7.857  0.00  0.00    +0.000 A 
ATOM     19  N   UNL     1      45.515   1.991   8.887  0.00  0.00    +0.000 NA
BRANCH  18  20
ATOM     20  C   UNL     1      47.039   1.031   7.227  0.00  0.00    +0.000 C 
BRANCH  20  21
ATOM     21  N   UNL     1      46.699  -0.241   7.872  0.00  0.00    +0.000 NA
ATOM     22  H   UNL     1      46.655  -0.075   8.878  0.00  0.00    +0.000 HD
ATOM     23  H   UNL     1      47.475  -0.887   7.732  0.00  0.00    +0.000 HD
ENDBRANCH  20  21
ENDBRANCH  18  20
ENDBRANCH  13  14
ENDBRANCH   1  13
TORSDOF 8
ENDMDL
MODEL 2
REMARK VINA RESULT:    -6.171      1.539      2.075
REMARK INTER + INTRA:          -9.418
REMARK INTER:                  -8.728
REMARK INTRA:                  -0.690
REMARK UNBOUND:                -0.722
REMARK  Name = 
REMARK  8 active torsions:
REMARK  status: ('A' for Active; 'I' for Inactive)
REMARK    1  A    between atoms: N_1  and  C_2
REMARK    2  A    between atoms: C_2  and  C_3
REMARK    3  A    between atoms: C_7  and  S_8
REMARK    4  A    between atoms: S_8  and  C_9
REMARK    5  A    between atoms: C_9  and  C_10
REMARK    6  A    between atoms: C_10  and  C_11
REMARK    7  A    between atoms: C_15  and  C_16
REMARK    8  A    between atoms: C_16  and  N_17
REMARK                            x       y       z     vdW  Elec       q    Type
REMARK                         _______ _______ _______ _____ _____    ______ ____
ROOT
ATOM      1  C   UNL     1      44.442   3.075  12.058  0.00  0.00    +0.000 C 
ENDROOT
BRANCH   1   2
ATOM      2  S   UNL     1      43.454   4.465  12.728  0.00  0.00    +0.000 S 
BRANCH   2   7
ATOM      3  C   UNL     1      46.797   6.758  13.114  0.00  0.00    +0.000 A 
ATOM      4  C   UNL     1      46.497   7.870  12.315  0.00  0.00    +0.000 A 
ATOM      5  C   UNL     1      45.276   7.952  11.644  0.00  0.00    +0.000 A 
ATOM      6  C   UNL     1      44.345   6.916  11.754  0.00  0.00    +0.000 A 
ATOM      7  C   UNL     1      44.628   5.799  12.542  0.00  0.00    +0.000 A 
ATOM      8  C   UNL     1      45.845   5.734  13.232  0.00  0.00    +0.000 A 
BRANCH   3   9
ATOM      9  C   UNL     1      48.139   6.639  13.792  0.00  0.00    +0.000 C 
BRANCH   9  10
ATOM     10  N   UNL     1      49.231   6.524  12.833  0.00  0.00    +0.000 NA
ATOM     11  H   UNL     1      49.824   5.743  13.100  0.00  0.00    +0.000 HD
ATOM     12  H   UNL     1      49.812   7.361  12.899  0.00  0.00    +0.000 HD
ENDBRANCH   9  10
ENDBRANCH   3   9
ENDBRANCH   2   7
ENDBRANCH   1   2
BRANCH   1  13
ATOM     13  C   UNL     1      43.879   2.639  10.703  0.00  0.00    +0.000 C 
BRANCH  13  14
ATOM     14  C   UNL     1      44.798   2.940   9.538  0.00  0.00    +0.000 A 
ATOM     15  C   UNL     1      44.979   4.261   9.132  0.00  0.00    +0.000 A 
ATOM     16  C   UNL     1      45.861   4.531   8.091  0.00  0.00    +0.000 A 
ATOM     17  C   UNL     1      46.540   3.479   7.485  0.00  0.00    +0.000 A 
ATOM     18  C   UNL     1      46.312   2.183   7.935  0.00  0.00    +0.000 A 
ATOM     19  N   UNL     1      45.447   1.908   8.947  0.00  0.00    +0.000 NA
BRANCH  18  20
ATOM     20  C   UNL     1      47.060   1.012   7.335  0.00  0.00    +0.000 C 
BRANCH  20  21
ATOM     21  N   UNL     1      48.027   1.397   6.302  0.00  0.00    +0.000 NA
ATOM     22  H   UNL     1      47.630   1.141   5.398  0.00  0.00    +0.000 HD
ATOM     23  H   UNL     1      48.859   0.819   6.413  0.00  0.00    +0.000 HD
ENDBRANCH  20  21
ENDBRANCH  18  20
ENDBRANCH  13  14
ENDBRANCH   1  13
TORSDOF 8
ENDMDL
MODEL 3
REMARK VINA RESULT:    -6.030      1.594      6.797
REMARK INTER + INTRA:          -9.219
REMARK INTER:                  -8.751
REMARK INTRA:                  -0.468
REMARK UNBOUND:                -0.722
REMARK  Name = 
REMARK  8 active torsions:
REMARK  status: ('A' for Active; 'I' for Inactive)
REMARK    1  A    between atoms: N_1  and  C_2
REMARK    2  A    between atoms: C_2  and  C_3
REMARK    3  A    between atoms: C_7  and  S_8
REMARK    4  A    between atoms: S_8  and  C_9
REMARK    5  A    between atoms: C_9  and  C_10
REMARK    6  A    between atoms: C_10  and  C_11
REMARK    7  A    between atoms: C_15  and  C_16
REMARK    8  A    between atoms: C_16  and  N_17
REMARK                            x       y       z     vdW  Elec       q    Type
REMARK                         _______ _______ _______ _____ _____    ______ ____
ROOT
ATOM      1  C   UNL     1      44.986   3.183  12.127  0.00  0.00    +0.000 C 
ENDROOT
BRANCH   1   2
ATOM      2  S   UNL     1      43.953   2.674  10.702  0.00  0.00    +0.000 S 
BRANCH   2   7
ATOM      3  C   UNL     1      46.597   2.236   7.636  0.00  0.00    +0.000 A 
ATOM      4  C   UNL     1      46.854   3.563   7.264  0.00  0.00    +0.000 A 
ATOM      5  C   UNL     1      46.237   4.619   7.935  0.00  0.00    +0.000 A 
ATOM      6  C   UNL     1      45.343   4.360   8.977  0.00  0.00    +0.000 A 
ATOM      7  C   UNL     1      45.071   3.045   9.359  0.00  0.00    +0.000 A 
ATOM      8  C   UNL     1      45.713   1.990   8.698  0.00  0.00    +0.000 A 
BRANCH   3   9
ATOM      9  C   UNL     1      47.216   1.091   6.874  0.00  0.00    +0.000 C 
BRANCH   9  10
ATOM     10  N   UNL     1      48.242   1.541   5.942  0.00  0.00    +0.000 NA
ATOM     11  H   UNL     1      47.900   2.357   5.442  0.00  0.00    +0.000 HD
ATOM     12  H   UNL     1      48.386   0.814   5.240  0.00  0.00    +0.000 HD
ENDBRANCH   9  10
ENDBRANCH   3   9
ENDBRANCH   2   7
ENDBRANCH   1   2
BRANCH   1  13
ATOM     13  C   UNL     1      44.389   4.429  12.786  0.00  0.00    +0.000 C 
BRANCH  13  14
ATOM     14  C   UNL     1      45.369   5.575  12.921  0.00  0.00    +0.000 A 
ATOM     15  C   UNL     1      46.688   5.308  13.283  0.00  0.00    +0.000 A 
ATOM     16  C   UNL     1      47.592   6.362  13.359  0.00  0.00    +0.000 A 
ATOM     17  C   UNL     1      47.159   7.652  13.069  0.00  0.00    +0.000 A 
ATOM     18  C   UNL     1      45.828   7.851  12.717  0.00  0.00    +0.000 A 
ATOM     19  N   UNL     1      44.936   6.829  12.647  0.00  0.00    +0.000 NA
BRANCH  18  20
ATOM     20  C   UNL     1      45.323   9.230  12.351  0.00  0.00    +0.000 C 
BRANCH  20  21
ATOM     21  N   UNL     1      46.304  10.296  12.572  0.00  0.00    +0.000 NA
ATOM     22  H   UNL     1      47.200   9.972  12.207  0.00  0.00    +0.000 HD
ATOM     23  H   UNL     1      46.439  10.402  13.577  0.00  0.00    +0.000 HD
ENDBRANCH  20  21
ENDBRANCH  18  20
ENDBRANCH  13  14
ENDBRANCH   1  13
TORSDOF 8
ENDMDL
MODEL 4
REMARK VINA RESULT:    -5.906      3.208      6.885
REMARK INTER + INTRA:          -9.045
REMARK INTER:                  -8.605
REMARK INTRA:                  -0.439
REMARK UNBOUND:                -0.722
REMARK  Name = 
REMARK  8 active torsions:
REMARK  status: ('A' for Active; 'I' for Inactive)
REMARK    1  A    between atoms: N_1  and  C_2
REMARK    2  A    between atoms: C_2  and  C_3
REMARK    3  A    between atoms: C_7  and  S_8
REMARK    4  A    between atoms: S_8  and  C_9
REMARK    5  A    between atoms: C_9  and  C_10
REMARK    6  A    between atoms: C_10  and  C_11
REMARK    7  A    between atoms: C_15  and  C_16
REMARK    8  A    between atoms: C_16  and  N_17
REMARK                            x       y       z     vdW  Elec       q    Type
REMARK                         _______ _______ _______ _____ _____    ______ ____
ROOT
ATOM      1  C   UNL     1      45.542   6.074  13.073  0.00  0.00    +0.000 C 
ENDROOT
BRANCH   1   2
ATOM      2  S   UNL     1      45.083   6.630  11.390  0.00  0.00    +0.000 S 
BRANCH   2   7
ATOM      3  C   UNL     1      45.221   3.619   8.651  0.00  0.00    +0.000 A 
ATOM      4  C   UNL     1      44.485   2.604   9.279  0.00  0.00    +0.000 A 
ATOM      5  C   UNL     1      43.929   2.809  10.542  0.00  0.00    +0.000 A 
ATOM      6  C   UNL     1      44.113   4.028  11.199  0.00  0.00    +0.000 A 
ATOM      7  C   UNL     1      44.846   5.050  10.592  0.00  0.00    +0.000 A 
ATOM      8  C   UNL     1      45.381   4.846   9.315  0.00  0.00    +0.000 A 
BRANCH   3   9
ATOM      9  C   UNL     1      45.874   3.380   7.314  0.00  0.00    +0.000 C 
BRANCH   9  10
ATOM     10  N   UNL     1      46.971   4.307   7.063  0.00  0.00    +0.000 NA
ATOM     11  H   UNL     1      47.771   3.786   6.714  0.00  0.00    +0.000 HD
ATOM     12  H   UNL     1      47.261   4.717   7.952  0.00  0.00    +0.000 HD
ENDBRANCH   9  10
ENDBRANCH   3   9
ENDBRANCH   2   7
ENDBRANCH   1   2
BRANCH   1  13
ATOM     13  C   UNL     1      46.933   5.433  13.051  0.00  0.00    +0.000 C 
BRANCH  13  14
ATOM     14  C   UNL     1      47.696   5.590  14.349  0.00  0.00    +0.000 A 
ATOM     15  C   UNL     1      48.564   6.668  14.507  0.00  0.00    +0.000 A 
ATOM     16  C   UNL     1      49.225   6.830  15.720  0.00  0.00    +0.000 A 
ATOM     17  C   UNL     1      49.000   5.915  16.744  0.00  0.00    +0.000 A 
ATOM     18  C   UNL     1      48.123   4.859  16.521  0.00  0.00    +0.000 A 
ATOM     19  N   UNL     1      47.478   4.689  15.337  0.00  0.00    +0.000 NA
BRANCH  18  20
ATOM     20  C   UNL     1      47.814   3.864  17.619  0.00  0.00    +0.000 C 
BRANCH  20  21
ATOM     21  N   UNL     1      46.545   3.154  17.432  0.00  0.00    +0.000 NA
ATOM     22  H   UNL     1      46.725   2.356  16.822  0.00  0.00    +0.000 HD
ATOM     23  H   UNL     1      45.913   3.762  16.913  0.00  0.00    +0.000 HD
ENDBRANCH  20  21
ENDBRANCH  18  20
ENDBRANCH  13  14
ENDBRANCH   1  13
TORSDOF 8
ENDMDL
MODEL 5
REMARK VINA RESULT:    -5.735      5.036      6.844
REMARK INTER + INTRA:          -8.804
REMARK INTER:                  -8.467
REMARK INTRA:                  -0.336
REMARK UNBOUND:                -0.722
REMARK  Name = 
REMARK  8 active torsions:
REMARK  status: ('A' for Active; 'I' for Inactive)
REMARK    1  A    between atoms: N_1  and  C_2
REMARK    2  A    between atoms: C_2  and  C_3
REMARK    3  A    between atoms: C_7  and  S_8
REMARK    4  A    between atoms: S_8  and  C_9
REMARK    5  A    between atoms: C_9  and  C_10
REMARK    6  A    between atoms: C_10  and  C_11
REMARK    7  A    between atoms: C_15  and  C_16
REMARK    8  A    between atoms: C_16  and  N_17
REMARK                            x       y       z     vdW  Elec       q    Type
REMARK                         _______ _______ _______ _____ _____    ______ ____
ROOT
ATOM      1  C   UNL     1      47.278   4.505  15.669  0.00  0.00    +0.000 C 
ENDROOT
BRANCH   1   2
ATOM      2  S   UNL     1      47.531   3.428  17.129  0.00  0.00    +0.000 S 
BRANCH   2   7
ATOM      3  C   UNL     1      51.481   2.554  17.598  0.00  0.00    +0.000 A 
ATOM      4  C   UNL     1      52.061   3.825  17.720  0.00  0.00    +0.000 A 
ATOM      5  C   UNL     1      51.270   4.974  17.666  0.00  0.00    +0.000 A 
ATOM      6  C   UNL     1      49.890   4.865  17.476  0.00  0.00    +0.000 A 
ATOM      7  C   UNL     1      49.294   3.609  17.349  0.00  0.00    +0.000 A 
ATOM      8  C   UNL     1      50.090   2.459  17.428  0.00  0.00    +0.000 A 
BRANCH   3   9
ATOM      9  C   UNL     1      52.339   1.315  17.595  0.00  0.00    +0.000 C 
BRANCH   9  10
ATOM     10  N   UNL     1      51.643   0.162  18.152  0.00  0.00    +0.000 NA
ATOM     11  H   UNL     1      52.205  -0.234  18.901  0.00  0.00    +0.000 HD
ATOM     12  H   UNL     1      51.577  -0.558  17.431  0.00  0.00    +0.000 HD
ENDBRANCH   9  10
ENDBRANCH   3   9
ENDBRANCH   2   7
ENDBRANCH   1   2
BRANCH   1  13
ATOM     13  C   UNL     1      47.105   3.649  14.412  0.00  0.00    +0.000 C 
BRANCH  13  14
ATOM     14  C   UNL     1      46.268   4.310  13.337  0.00  0.00    +0.000 A 
ATOM     15  C   UNL     1      46.691   5.517  12.785  0.00  0.00    +0.000 A 
ATOM     16  C   UNL     1      45.940   6.092  11.765  0.00  0.00    +0.000 A 
ATOM     17  C   UNL     1      44.789   5.448  11.322  0.00  0.00    +0.000 A 
ATOM     18  C   UNL     1      44.419   4.246  11.918  0.00  0.00    +0.000 A 
ATOM     19  N   UNL     1      45.143   3.680  12.919  0.00  0.00    +0.000 NA
BRANCH  18  20
ATOM     20  C   UNL     1      43.200   3.488  11.439  0.00  0.00    +0.000 C 
BRANCH  20  21
ATOM     21  N   UNL     1      43.239   2.054  11.746  0.00  0.00    +0.000 NA
ATOM     22  H   UNL     1      43.548   1.567  10.905  0.00  0.00    +0.000 HD
ATOM     23  H   UNL     1      42.284   1.738  11.913  0.00  0.00    +0.000 HD
ENDBRANCH  20  21
ENDBRANCH  18  20
ENDBRANCH  13  14
ENDBRANCH   1  13
TORSDOF 8
ENDMDL
MODEL 6
REMARK VINA RESULT:    -5.454      3.568      7.103
REMARK INTER + INTRA:          -8.408
REMARK INTER:                  -8.023
REMARK INTRA:                  -0.385
REMARK UNBOUND:                -0.722
REMARK  Name = 
REMARK  8 active torsions:
REMARK  status: ('A' for Active; 'I' for Inactive)
REMARK    1  A    between atoms: N_1  and  C_2
REMARK    2  A    between atoms: C_2  and  C_3
REMARK    3  A    between atoms: C_7  and  S_8
REMARK    4  A    between atoms: S_8  and  C_9
REMARK    5  A    between atoms: C_9  and  C_10
REMARK    6  A    between atoms: C_10  and  C_11
REMARK    7  A    between atoms: C_15  and  C_16
REMARK    8  A    between atoms: C_16  and  N_17
REMARK                            x       y       z     vdW  Elec       q    Type
REMARK                         _______ _______ _______ _____ _____    ______ ____
ROOT
ATOM      1  C   UNL     1      47.517   6.181  13.025  0.00  0.00    +0.000 C 
ENDROOT
BRANCH   1   2
ATOM      2  S   UNL     1      45.819   6.836  12.815  0.00  0.00    +0.000 S 
BRANCH   2   7
ATOM      3  C   UNL     1      44.510   4.045  10.155  0.00  0.00    +0.000 A 
ATOM      4  C   UNL     1      43.756   3.184  10.965  0.00  0.00    +0.000 A 
ATOM      5  C   UNL     1      43.623   3.431  12.332  0.00  0.00    +0.000 A 
ATOM      6  C   UNL     1      44.256   4.535  12.908  0.00  0.00    +0.000 A 
ATOM      7  C   UNL     1      45.015   5.401  12.119  0.00  0.00    +0.000 A 
ATOM      8  C   UNL     1      45.124   5.162  10.744  0.00  0.00    +0.000 A 
BRANCH   3   9
ATOM      9  C   UNL     1      44.704   3.747   8.690  0.00  0.00    +0.000 C 
BRANCH   9  10
ATOM     10  N   UNL     1      45.618   4.688   8.054  0.00  0.00    +0.000 NA
ATOM     11  H   UNL     1      45.310   5.636   8.255  0.00  0.00    +0.000 HD
ATOM     12  H   UNL     1      45.552   4.574   7.041  0.00  0.00    +0.000 HD
ENDBRANCH   9  10
ENDBRANCH   3   9
ENDBRANCH   2   7
ENDBRANCH   1   2
BRANCH   1  13
ATOM     13  C   UNL     1      48.290   7.045  14.026  0.00  0.00    +0.000 C 
BRANCH  13  14
ATOM     14  C   UNL     1      48.474   6.392  15.379  0.00  0.00    +0.000 A 
ATOM     15  C   UNL     1      48.954   7.149  16.445  0.00  0.00    +0.000 A 
ATOM     16  C   UNL     1      49.076   6.552  17.695  0.00  0.00    +0.000 A 
ATOM     17  C   UNL     1      48.713   5.218  17.850  0.00  0.00    +0.000 A 
ATOM     18  C   UNL     1      48.244   4.516  16.744  0.00  0.00    +0.000 A 
ATOM     19  N   UNL     1      48.128   5.089  15.517  0.00  0.00    +0.000 NA
BRANCH  18  20
ATOM     20  C   UNL     1      47.797   3.076  16.874  0.00  0.00    +0.000 C 
BRANCH  20  21
ATOM     21  N   UNL     1      46.606   2.902  17.711  0.00  0.00    +0.000 NA
ATOM     22  H   UNL     1      46.068   3.768  17.668  0.00  0.00    +0.000 HD
ATOM     23  H   UNL     1      46.908   2.812  18.680  0.00  0.00    +0.000 HD
ENDBRANCH  20  21
ENDBRANCH  18  20
ENDBRANCH  13  14
ENDBRANCH   1  13
TORSDOF 8
ENDMDL
MODEL 7
REMARK VINA RESULT:    -5.310      2.605      4.705
REMARK INTER + INTRA:          -8.205
REMARK INTER:                  -7.487
REMARK INTRA:                  -0.718
REMARK UNBOUND:                -0.722
REMARK  Name = 
REMARK  8 active torsions:
REMARK  status: ('A' for Active; 'I' for Inactive)
REMARK    1  A    between atoms: N_1  and  C_2
REMARK    2  A    between atoms: C_2  and  C_3
REMARK    3  A    between atoms: C_7  and  S_8
REMARK    4  A    between atoms: S_8  and  C_9
REMARK    5  A    between atoms: C_9  and  C_10
REMARK    6  A    between atoms: C_10  and  C_11
REMARK    7  A    between atoms: C_15  and  C_16
REMARK    8  A    between atoms: C_16  and  N_17
REMARK                            x       y       z     vdW  Elec       q    Type
REMARK                         _______ _______ _______ _____ _____    ______ ____
ROOT
ATOM      1  C   UNL     1      47.282   6.996  12.261  0.00  0.00    +0.000 C 
ENDROOT
BRANCH   1   2
ATOM      2  S   UNL     1      47.280   8.507  13.298  0.00  0.00    +0.000 S 
BRANCH   2   7
ATOM      3  C   UNL     1      44.242   9.982  11.023  0.00  0.00    +0.000 A 
ATOM      4  C   UNL     1      44.737  11.234  10.629  0.00  0.00    +0.000 A 
ATOM      5  C   UNL     1      46.002  11.657  11.040  0.00  0.00    +0.000 A 
ATOM      6  C   UNL     1      46.782  10.839  11.861  0.00  0.00    +0.000 A 
ATOM      7  C   UNL     1      46.304   9.591  12.268  0.00  0.00    +0.000 A 
ATOM      8  C   UNL     1      45.044   9.162  11.832  0.00  0.00    +0.000 A 
BRANCH   3   9
ATOM      9  C   UNL     1      42.853   9.548  10.631  0.00  0.00    +0.000 C 
BRANCH   9  10
ATOM     10  N   UNL     1      42.595   8.155  10.972  0.00  0.00    +0.000 NA
ATOM     11  H   UNL     1      43.434   7.610  10.795  0.00  0.00    +0.000 HD
ATOM     12  H   UNL     1      41.879   7.792  10.341  0.00  0.00    +0.000 HD
ENDBRANCH   9  10
ENDBRANCH   3   9
ENDBRANCH   2   7
ENDBRANCH   1   2
BRANCH   1  13
ATOM     13  C   UNL     1      46.653   5.832  13.032  0.00  0.00    +0.000 C 
BRANCH  13  14
ATOM     14  C   UNL     1      45.383   5.302  12.403  0.00  0.00    +0.000 A 
ATOM     15  C   UNL     1      44.190   5.350  13.123  0.00  0.00    +0.000 A 
ATOM     16  C   UNL     1      43.020   4.903  12.518  0.00  0.00    +0.000 A 
ATOM     17  C   UNL     1      43.069   4.423  11.213  0.00  0.00    +0.000 A 
ATOM     18  C   UNL     1      44.292   4.399  10.551  0.00  0.00    +0.000 A 
ATOM     19  N   UNL     1      45.442   4.827  11.135  0.00  0.00    +0.000 NA
BRANCH  18  20
ATOM     20  C   UNL     1      44.386   3.927   9.116  0.00  0.00    +0.000 C 
BRANCH  20  21
ATOM     21  N   UNL     1      45.388   4.645   8.323  0.00  0.00    +0.000 NA
ATOM     22  H   UNL     1      45.348   5.629   8.593  0.00  0.00    +0.000 HD
ATOM     23  H   UNL     1      45.102   4.615   7.345  0.00  0.00    +0.000 HD
ENDBRANCH  20  21
ENDBRANCH  18  20
ENDBRANCH  13  14
ENDBRANCH   1  13
TORSDOF 8
ENDMDL
MODEL 8
REMARK VINA RESULT:    -5.302      3.982      7.530
REMARK INTER + INTRA:          -8.193
REMARK INTER:                  -7.830
REMARK INTRA:                  -0.363
REMARK UNBOUND:                -0.722
REMARK  Name = 
REMARK  8 active torsions:
REMARK  status: ('A' for Active; 'I' for Inactive)
REMARK    1  A    between atoms: N_1  and  C_2
REMARK    2  A    between atoms: C_2  and  C_3
REMARK    3  A    between atoms: C_7  and  S_8
REMARK    4  A    between atoms: S_8  and  C_9
REMARK    5  A    between atoms: C_9  and  C_10
REMARK    6  A    between atoms: C_10  and  C_11
REMARK    7  A    between atoms: C_15  and  C_16
REMARK    8  A    between atoms: C_16  and  N_17
REMARK                            x       y       z     vdW  Elec       q    Type
REMARK                         _______ _______ _______ _____ _____    ______ ____
ROOT
ATOM      1  C   UNL     1      47.793   6.123  13.694  0.00  0.00    +0.000 C 
ENDROOT
BRANCH   1   2
ATOM      2  S   UNL     1      46.691   7.186  12.689  0.00  0.00    +0.000 S 
BRANCH   2   7
ATOM      3  C   UNL     1      44.406   3.960  11.715  0.00  0.00    +0.000 A 
ATOM      4  C   UNL     1      44.487   3.941  10.315  0.00  0.00    +0.000 A 
ATOM      5  C   UNL     1      45.237   4.902   9.635  0.00  0.00    +0.000 A 
ATOM      6  C   UNL     1      45.905   5.901  10.347  0.00  0.00    +0.000 A 
ATOM      7  C   UNL     1      45.832   5.939  11.742  0.00  0.00    +0.000 A 
ATOM      8  C   UNL     1      45.098   4.958  12.419  0.00  0.00    +0.000 A 
BRANCH   3   9
ATOM      9  C   UNL     1      43.548   2.960  12.448  0.00  0.00    +0.000 C 
BRANCH   9  10
ATOM     10  N   UNL     1      43.131   1.858  11.589  0.00  0.00    +0.000 NA
ATOM     11  H   UNL     1      43.258   0.983  12.089  0.00  0.00    +0.000 HD
ATOM     12  H   UNL     1      43.753   1.821  10.781  0.00  0.00    +0.000 HD
ENDBRANCH   9  10
ENDBRANCH   3   9
ENDBRANCH   2   7
ENDBRANCH   1   2
BRANCH   1  13
ATOM     13  C   UNL     1      48.609   6.983  14.663  0.00  0.00    +0.000 C 
BRANCH  13  14
ATOM     14  C   UNL     1      48.884   6.310  15.990  0.00  0.00    +0.000 A 
ATOM     15  C   UNL     1      49.552   7.015  16.990  0.00  0.00    +0.000 A 
ATOM     16  C   UNL     1      49.759   6.404  18.222  0.00  0.00    +0.000 A 
ATOM     17  C   UNL     1      49.293   5.109  18.426  0.00  0.00    +0.000 A 
ATOM     18  C   UNL     1      48.636   4.459  17.386  0.00  0.00    +0.000 A 
ATOM     19  N   UNL     1      48.435   5.045  16.176  0.00  0.00    +0.000 NA
BRANCH  18  20
ATOM     20  C   UNL     1      48.074   3.067  17.575  0.00  0.00    +0.000 C 
BRANCH  20  21
ATOM     21  N   UNL     1      46.608   3.015  17.556  0.00  0.00    +0.000 NA
ATOM     22  H   UNL     1      46.303   2.580  18.427  0.00  0.00    +0.000 HD
ATOM     23  H   UNL     1      46.322   2.378  16.814  0.00  0.00    +0.000 HD
ENDBRANCH  20  21
ENDBRANCH  18  20
ENDBRANCH  13  14
ENDBRANCH   1  13
TORSDOF 8
ENDMDL
MODEL 9
REMARK VINA RESULT:    -5.291      4.167      7.289
REMARK INTER + INTRA:          -8.177
REMARK INTER:                  -7.615
REMARK INTRA:                  -0.563
REMARK UNBOUND:                -0.722
REMARK  Name = 
REMARK  8 active torsions:
REMARK  status: ('A' for Active; 'I' for Inactive)
REMARK    1  A    between atoms: N_1  and  C_2
REMARK    2  A    between atoms: C_2  and  C_3
REMARK    3  A    between atoms: C_7  and  S_8
REMARK    4  A    between atoms: S_8  and  C_9
REMARK    5  A    between atoms: C_9  and  C_10
REMARK    6  A    between atoms: C_10  and  C_11
REMARK    7  A    between atoms: C_15  and  C_16
REMARK    8  A    between atoms: C_16  and  N_17
REMARK                            x       y       z     vdW  Elec       q    Type
REMARK                         _______ _______ _______ _____ _____    ______ ____
ROOT
ATOM      1  C   UNL     1      48.891   6.913  13.772  0.00  0.00    +0.000 C 
ENDROOT
BRANCH   1   2
ATOM      2  S   UNL     1      47.322   7.760  13.353  0.00  0.00    +0.000 S 
BRANCH   2   7
ATOM      3  C   UNL     1      44.129   5.470  12.283  0.00  0.00    +0.000 A 
ATOM      4  C   UNL     1      44.590   4.170  12.534  0.00  0.00    +0.000 A 
ATOM      5  C   UNL     1      45.874   3.957  13.035  0.00  0.00    +0.000 A 
ATOM      6  C   UNL     1      46.720   5.042  13.279  0.00  0.00    +0.000 A 
ATOM      7  C   UNL     1      46.280   6.345  13.031  0.00  0.00    +0.000 A 
ATOM      8  C   UNL     1      44.982   6.553  12.551  0.00  0.00    +0.000 A 
BRANCH   3   9
ATOM      9  C   UNL     1      42.764   5.699  11.685  0.00  0.00    +0.000 C 
BRANCH   9  10
ATOM     10  N   UNL     1      42.605   7.058  11.181  0.00  0.00    +0.000 NA
ATOM     11  H   UNL     1      41.698   7.414  11.471  0.00  0.00    +0.000 HD
ATOM     12  H   UNL     1      42.589   7.027  10.161  0.00  0.00    +0.000 HD
ENDBRANCH   9  10
ENDBRANCH   3   9
ENDBRANCH   2   7
ENDBRANCH   1   2
BRANCH   1  13
ATOM     13  C   UNL     1      49.448   7.464  15.087  0.00  0.00    +0.000 C 
BRANCH  13  14
ATOM     14  C   UNL     1      48.921   6.755  16.316  0.00  0.00    +0.000 A 
ATOM     15  C   UNL     1      48.625   7.494  17.459  0.00  0.00    +0.000 A 
ATOM     16  C   UNL     1      48.097   6.840  18.567  0.00  0.00    +0.000 A 
ATOM     17  C   UNL     1      47.875   5.468  18.505  0.00  0.00    +0.000 A 
ATOM     18  C   UNL     1      48.195   4.788  17.334  0.00  0.00    +0.000 A 
ATOM     19  N   UNL     1      48.717   5.417  16.249  0.00  0.00    +0.000 NA
BRANCH  18  20
ATOM     20  C   UNL     1      47.930   3.303  17.205  0.00  0.00    +0.000 C 
BRANCH  20  21
ATOM     21  N   UNL     1      46.560   2.916  17.556  0.00  0.00    +0.000 NA
ATOM     22  H   UNL     1      46.598   1.978  17.958  0.00  0.00    +0.000 HD
ATOM     23  H   UNL     1      46.024   2.825  16.694  0.00  0.00    +0.000 HD
ENDBRANCH  20  21
ENDBRANCH  18  20
ENDBRANCH  13  14
ENDBRANCH   1  13
TORSDOF 8
ENDMDL
