MODEL 1
REMARK VINA RESULT:    -7.662      0.000      0.000
REMARK INTER + INTRA:         -11.064
REMARK INTER:                  -9.901
REMARK INTRA:                  -1.163
REMARK UNBOUND:                -1.163
REMARK  Name = 
REMARK  5 active torsions:
REMARK  status: ('A' for Active; 'I' for Inactive)
REMARK    1  A    between atoms: C_4  and  C_5
REMARK    2  A    between atoms: C_5  and  C_6
REMARK    3  A    between atoms: C_6  and  C_7
REMARK    4  A    between atoms: C_9  and  C_10
REMARK    5  A    between atoms: C_18  and  C_19
REMARK                            x       y       z     vdW  Elec       q    Type
REMARK                         _______ _______ _______ _____ _____    ______ ____
ROOT
ATOM      1  F   UNL     1      47.300   3.804  14.794  0.00  0.00    +0.000 F 
ATOM      2  C   UNL     1      46.787   4.740  13.983  0.00  0.00    +0.000 A 
ATOM      3  C   UNL     1      45.456   4.643  13.595  0.00  0.00    +0.000 A 
ATOM      4  C   UNL     1      44.905   5.612  12.753  0.00  0.00    +0.000 A 
ATOM      5  C   UNL     1      45.735   6.656  12.303  0.00  0.00    +0.000 A 
ATOM      6  C   UNL     1      47.080   6.782  12.705  0.00  0.00    +0.000 A 
ATOM      7  C   UNL     1      47.594   5.787  13.551  0.00  0.00    +0.000 A 
ENDROOT
BRANCH   6   8
ATOM      8  C   UNL     1      47.921   7.911  12.260  0.00  0.00    +0.000 A 
ATOM      9  C   UNL     1      49.254   7.753  11.881  0.00  0.00    +0.000 A 
ATOM     10  C   UNL     1      49.988   8.864  11.468  0.00  0.00    +0.000 A 
ATOM     11  C   UNL     1      49.374  10.107  11.440  0.00  0.00    +0.000 A 
ATOM     12  C   UNL     1      48.047  10.186  11.823  0.00  0.00    +0.000 A 
ATOM     13  N   UNL     1      47.313   9.125  12.225  0.00  0.00    +0.000 NA
ENDBRANCH   6   8
BRANCH   4  14
ATOM     14  C   UNL     1      43.485   5.551  12.235  0.00  0.00    +0.000 C 
BRANCH  14  15
ATOM     15  C   UNL     1      43.336   5.483  10.710  0.00  0.00    +0.000 C 
BRANCH  15  16
ATOM     16  C   UNL     1      43.999   4.270  10.096  0.00  0.00    +0.000 A 
ATOM     17  C   UNL     1      44.940   4.449   9.084  0.00  0.00    +0.000 A 
ATOM     18  C   UNL     1      45.536   3.326   8.498  0.00  0.00    +0.000 A 
ATOM     19  C   UNL     1      45.166   2.058   8.956  0.00  0.00    +0.000 A 
ATOM     20  C   UNL     1      44.227   1.968   9.966  0.00  0.00    +0.000 A 
ATOM     21  N   UNL     1      43.644   3.042  10.538  0.00  0.00    +0.000 NA
BRANCH  18  22
ATOM     22  C   UNL     1      46.549   3.465   7.396  0.00  0.00    +0.000 C 
ATOM     23  F   UNL     1      46.009   3.399   6.148  0.00  0.00    +0.000 F 
ATOM     24  F   UNL     1      47.218   4.650   7.453  0.00  0.00    +0.000 F 
ATOM     25  F   UNL     1      47.504   2.496   7.443  0.00  0.00    +0.000 F 
ENDBRANCH  18  22
ENDBRANCH  15  16
ENDBRANCH  14  15
ENDBRANCH   4  14
TORSDOF 5
ENDMDL
MODEL 2
REMARK VINA RESULT:    -7.490      1.451      2.049
REMARK INTER + INTRA:         -10.842
REMARK INTER:                 -10.024
REMARK INTRA:                  -0.818
REMARK UNBOUND:                -1.163
REMARK  Name = 
REMARK  5 active torsions:
REMARK  status: ('A' for Active; 'I' for Inactive)
REMARK    1  A    between atoms: C_4  and  C_5
REMARK    2  A    between atoms: C_5  and  C_6
REMARK    3  A    between atoms: C_6  and  C_7
REMARK    4  A    between atoms: C_9  and  C_10
REMARK    5  A    between atoms: C_18  and  C_19
REMARK                            x       y       z     vdW  Elec       q    Type
REMARK                         _______ _______ _______ _____ _____    ______ ____
ROOT
ATOM      1  F   UNL     1      47.406   3.330  14.501  0.00  0.00    +0.000 F 
ATOM      2  C   UNL     1      46.760   4.140  13.651  0.00  0.00    +0.000 A 
ATOM      3  C   UNL     1      45.592   3.694  13.045  0.00  0.00    +0.000 A 
ATOM      4  C   UNL     1      44.906   4.527  12.159  0.00  0.00    +0.000 A 
ATOM      5  C   UNL     1      45.443   5.801  11.889  0.00  0.00    +0.000 A 
ATOM      6  C   UNL     1      46.614   6.277  12.511  0.00  0.00    +0.000 A 
ATOM      7  C   UNL     1      47.271   5.408  13.394  0.00  0.00    +0.000 A 
ENDROOT
BRANCH   6   8
ATOM      8  C   UNL     1      47.133   7.635  12.251  0.00  0.00    +0.000 A 
ATOM      9  C   UNL     1      48.466   7.879  11.918  0.00  0.00    +0.000 A 
ATOM     10  C   UNL     1      48.887   9.187  11.682  0.00  0.00    +0.000 A 
ATOM     11  C   UNL     1      47.968  10.221  11.782  0.00  0.00    +0.000 A 
ATOM     12  C   UNL     1      46.662   9.903  12.108  0.00  0.00    +0.000 A 
ATOM     13  N   UNL     1      46.229   8.644  12.340  0.00  0.00    +0.000 NA
ENDBRANCH   6   8
BRANCH   4  14
ATOM     14  C   UNL     1      43.662   4.100  11.412  0.00  0.00    +0.000 C 
BRANCH  14  15
ATOM     15  C   UNL     1      43.804   2.840  10.549  0.00  0.00    +0.000 C 
BRANCH  15  16
ATOM     16  C   UNL     1      44.735   3.020   9.372  0.00  0.00    +0.000 A 
ATOM     17  C   UNL     1      45.422   1.916   8.872  0.00  0.00    +0.000 A 
ATOM     18  C   UNL     1      46.302   2.086   7.797  0.00  0.00    +0.000 A 
ATOM     19  C   UNL     1      46.459   3.367   7.259  0.00  0.00    +0.000 A 
ATOM     20  C   UNL     1      45.739   4.409   7.812  0.00  0.00    +0.000 A 
ATOM     21  N   UNL     1      44.888   4.257   8.848  0.00  0.00    +0.000 NA
BRANCH  18  22
ATOM     22  C   UNL     1      47.073   0.928   7.228  0.00  0.00    +0.000 C 
ATOM     23  F   UNL     1      46.811  -0.257   7.846  0.00  0.00    +0.000 F 
ATOM     24  F   UNL     1      46.810   0.727   5.907  0.00  0.00    +0.000 F 
ATOM     25  F   UNL     1      48.420   1.106   7.317  0.00  0.00    +0.000 F 
ENDBRANCH  18  22
ENDBRANCH  15  16
ENDBRANCH  14  15
ENDBRANCH   4  14
TORSDOF 5
ENDMDL
MODEL 3
REMARK VINA RESULT:    -7.286      2.814      6.916
REMARK INTER + INTRA:         -10.578
REMARK INTER:                  -9.841
REMARK INTRA:                  -0.737
REMARK UNBOUND:                -1.163
REMARK  Name = 
REMARK  5 active torsions:
REMARK  status: ('A' for Active; 'I' for Inactive)
REMARK    1  A    between atoms: C_4  and  C_5
REMARK    2  A    between atoms: C_5  and  C_6
REMARK    3  A    between atoms: C_6  and  C_7
REMARK    4  A    between atoms: C_9  and  C_10
REMARK    5  A    between atoms: C_18  and  C_19
REMARK                            x       y       z     vdW  Elec       q    Type
REMARK                         _______ _______ _______ _____ _____    ______ ____
ROOT
ATOM      1  F   UNL     1      42.863   2.247  11.742  0.00  0.00    +0.000 F 
ATOM      2  C   UNL     1      43.707   3.021  11.044  0.00  0.00    +0.000 A 
ATOM      3  C   UNL     1      43.898   4.340  11.437  0.00  0.00    +0.000 A 
ATOM      4  C   UNL     1      44.777   5.158  10.723  0.00  0.00    +0.000 A 
ATOM      5  C   UNL     1      45.431   4.615   9.601  0.00  0.00    +0.000 A 
ATOM      6  C   UNL     1      45.266   3.274   9.202  0.00  0.00    +0.000 A 
ATOM      7  C   UNL     1      44.374   2.487   9.947  0.00  0.00    +0.000 A 
ENDROOT
BRANCH   6   8
ATOM      8  C   UNL     1      45.998   2.710   8.050  0.00  0.00    +0.000 A 
ATOM      9  C   UNL     1      46.269   3.448   6.897  0.00  0.00    +0.000 A 
ATOM     10  C   UNL     1      46.969   2.853   5.849  0.00  0.00    +0.000 A 
ATOM     11  C   UNL     1      47.385   1.535   5.976  0.00  0.00    +0.000 A 
ATOM     12  C   UNL     1      47.087   0.869   7.151  0.00  0.00    +0.000 A 
ATOM     13  N   UNL     1      46.412   1.424   8.182  0.00  0.00    +0.000 NA
ENDBRANCH   6   8
BRANCH   4  14
ATOM     14  C   UNL     1      44.999   6.618  11.046  0.00  0.00    +0.000 C 
BRANCH  14  15
ATOM     15  C   UNL     1      45.831   6.904  12.302  0.00  0.00    +0.000 C 
BRANCH  15  16
ATOM     16  C   UNL     1      46.853   8.002  12.109  0.00  0.00    +0.000 A 
ATOM     17  C   UNL     1      48.178   7.660  11.849  0.00  0.00    +0.000 A 
ATOM     18  C   UNL     1      49.129   8.675  11.693  0.00  0.00    +0.000 A 
ATOM     19  C   UNL     1      48.710  10.004  11.802  0.00  0.00    +0.000 A 
ATOM     20  C   UNL     1      47.376  10.259  12.058  0.00  0.00    +0.000 A 
ATOM     21  N   UNL     1      46.451   9.289  12.211  0.00  0.00    +0.000 NA
BRANCH  18  22
ATOM     22  C   UNL     1      50.573   8.358  11.422  0.00  0.00    +0.000 C 
ATOM     23  F   UNL     1      51.294   8.095  12.546  0.00  0.00    +0.000 F 
ATOM     24  F   UNL     1      50.723   7.269  10.617  0.00  0.00    +0.000 F 
ATOM     25  F   UNL     1      51.220   9.378  10.793  0.00  0.00    +0.000 F 
ENDBRANCH  18  22
ENDBRANCH  15  16
ENDBRANCH  14  15
ENDBRANCH   4  14
TORSDOF 5
ENDMDL
MODEL 4
REMARK VINA RESULT:    -7.280      2.920      7.002
REMARK INTER + INTRA:         -10.571
REMARK INTER:                  -9.672
REMARK INTRA:                  -0.899
REMARK UNBOUND:                -1.163
REMARK  Name = 
REMARK  5 active torsions:
REMARK  status: ('A' for Active; 'I' for Inactive)
REMARK    1  A    between atoms: C_4  and  C_5
REMARK    2  A    between atoms: C_5  and  C_6
REMARK    3  A    between atoms: C_6  and  C_7
REMARK    4  A    between atoms: C_9  and  C_10
REMARK    5  A    between atoms: C_18  and  C_19
REMARK                            x       y       z     vdW  Elec       q    Type
REMARK                         _______ _______ _______ _____ _____    ______ ____
ROOT
ATOM      1  F   UNL     1      42.848   2.158  11.766  0.00  0.00    +0.000 F 
ATOM      2  C   UNL     1      43.719   2.934  11.104  0.00  0.00    +0.000 A 
ATOM      3  C   UNL     1      43.977   4.215  11.575  0.00  0.00    +0.000 A 
ATOM      4  C   UNL     1      44.884   5.035  10.898  0.00  0.00    +0.000 A 
ATOM      5  C   UNL     1      45.496   4.534   9.733  0.00  0.00    +0.000 A 
ATOM      6  C   UNL     1      45.262   3.229   9.255  0.00  0.00    +0.000 A 
ATOM      7  C   UNL     1      44.345   2.440   9.965  0.00  0.00    +0.000 A 
ENDROOT
BRANCH   6   8
ATOM      8  C   UNL     1      45.951   2.706   8.059  0.00  0.00    +0.000 A 
ATOM      9  C   UNL     1      46.198   3.488   6.930  0.00  0.00    +0.000 A 
ATOM     10  C   UNL     1      46.857   2.929   5.837  0.00  0.00    +0.000 A 
ATOM     11  C   UNL     1      47.257   1.602   5.895  0.00  0.00    +0.000 A 
ATOM     12  C   UNL     1      46.986   0.890   7.050  0.00  0.00    +0.000 A 
ATOM     13  N   UNL     1      46.350   1.410   8.123  0.00  0.00    +0.000 NA
ENDBRANCH   6   8
BRANCH   4  14
ATOM     14  C   UNL     1      45.179   6.460  11.306  0.00  0.00    +0.000 C 
BRANCH  14  15
ATOM     15  C   UNL     1      46.659   6.863  11.296  0.00  0.00    +0.000 C 
BRANCH  15  16
ATOM     16  C   UNL     1      47.322   6.744  12.650  0.00  0.00    +0.000 A 
ATOM     17  C   UNL     1      47.116   5.596  13.411  0.00  0.00    +0.000 A 
ATOM     18  C   UNL     1      47.710   5.496  14.675  0.00  0.00    +0.000 A 
ATOM     19  C   UNL     1      48.496   6.558  15.129  0.00  0.00    +0.000 A 
ATOM     20  C   UNL     1      48.654   7.661  14.311  0.00  0.00    +0.000 A 
ATOM     21  N   UNL     1      48.086   7.769  13.092  0.00  0.00    +0.000 NA
BRANCH  18  22
ATOM     22  C   UNL     1      47.509   4.281  15.538  0.00  0.00    +0.000 C 
ATOM     23  F   UNL     1      48.477   4.118  16.481  0.00  0.00    +0.000 F 
ATOM     24  F   UNL     1      46.328   4.314  16.215  0.00  0.00    +0.000 F 
ATOM     25  F   UNL     1      47.492   3.127  14.815  0.00  0.00    +0.000 F 
ENDBRANCH  18  22
ENDBRANCH  15  16
ENDBRANCH  14  15
ENDBRANCH   4  14
TORSDOF 5
ENDMDL
MODEL 5
REMARK VINA RESULT:    -6.996      2.180      3.750
REMARK INTER + INTRA:         -10.204
REMARK INTER:                  -9.235
REMARK INTRA:                  -0.969
REMARK UNBOUND:                -1.163
REMARK  Name = 
REMARK  5 active torsions:
REMARK  status: ('A' for Active; 'I' for Inactive)
REMARK    1  A    between atoms: C_4  and  C_5
REMARK    2  A    between atoms: C_5  and  C_6
REMARK    3  A    between atoms: C_6  and  C_7
REMARK    4  A    between atoms: C_9  and  C_10
REMARK    5  A    between atoms: C_18  and  C_19
REMARK                            x       y       z     vdW  Elec       q    Type
REMARK                         _______ _______ _______ _____ _____    ______ ____
ROOT
ATOM      1  F   UNL     1      49.916   7.818  11.509  0.00  0.00    +0.000 F 
ATOM      2  C   UNL     1      48.817   7.283  12.060  0.00  0.00    +0.000 A 
ATOM      3  C   UNL     1      47.609   7.369  11.380  0.00  0.00    +0.000 A 
ATOM      4  C   UNL     1      46.455   6.814  11.939  0.00  0.00    +0.000 A 
ATOM      5  C   UNL     1      46.555   6.196  13.200  0.00  0.00    +0.000 A 
ATOM      6  C   UNL     1      47.777   6.080  13.892  0.00  0.00    +0.000 A 
ATOM      7  C   UNL     1      48.911   6.651  13.296  0.00  0.00    +0.000 A 
ENDROOT
BRANCH   6   8
ATOM      8  C   UNL     1      47.870   5.385  15.192  0.00  0.00    +0.000 A 
ATOM      9  C   UNL     1      47.065   4.293  15.521  0.00  0.00    +0.000 A 
ATOM     10  C   UNL     1      47.210   3.684  16.766  0.00  0.00    +0.000 A 
ATOM     11  C   UNL     1      48.155   4.175  17.654  0.00  0.00    +0.000 A 
ATOM     12  C   UNL     1      48.921   5.256  17.256  0.00  0.00    +0.000 A 
ATOM     13  N   UNL     1      48.803   5.863  16.055  0.00  0.00    +0.000 NA
ENDBRANCH   6   8
BRANCH   4  14
ATOM     14  C   UNL     1      45.090   6.914  11.296  0.00  0.00    +0.000 C 
BRANCH  14  15
ATOM     15  C   UNL     1      44.118   5.772  11.617  0.00  0.00    +0.000 C 
BRANCH  15  16
ATOM     16  C   UNL     1      44.386   4.514  10.821  0.00  0.00    +0.000 A 
ATOM     17  C   UNL     1      45.179   4.589   9.678  0.00  0.00    +0.000 A 
ATOM     18  C   UNL     1      45.408   3.429   8.928  0.00  0.00    +0.000 A 
ATOM     19  C   UNL     1      44.832   2.231   9.358  0.00  0.00    +0.000 A 
ATOM     20  C   UNL     1      44.061   2.242  10.505  0.00  0.00    +0.000 A 
ATOM     21  N   UNL     1      43.832   3.353  11.236  0.00  0.00    +0.000 NA
BRANCH  18  22
ATOM     22  C   UNL     1      46.248   3.459   7.681  0.00  0.00    +0.000 C 
ATOM     23  F   UNL     1      45.523   3.356   6.533  0.00  0.00    +0.000 F 
ATOM     24  F   UNL     1      46.968   4.610   7.567  0.00  0.00    +0.000 F 
ATOM     25  F   UNL     1      47.157   2.446   7.642  0.00  0.00    +0.000 F 
ENDBRANCH  18  22
ENDBRANCH  15  16
ENDBRANCH  14  15
ENDBRANCH   4  14
TORSDOF 5
ENDMDL
MODEL 6
REMARK VINA RESULT:    -6.836      2.947      4.686
REMARK INTER + INTRA:          -9.997
REMARK INTER:                  -9.106
REMARK INTRA:                  -0.892
REMARK UNBOUND:                -1.163
REMARK  Name = 
REMARK  5 active torsions:
REMARK  status: ('A' for Active; 'I' for Inactive)
REMARK    1  A    between atoms: C_4  and  C_5
REMARK    2  A    between atoms: C_5  and  C_6
REMARK    3  A    between atoms: C_6  and  C_7
REMARK    4  A    between atoms: C_9  and  C_10
REMARK    5  A    between atoms: C_18  and  C_19
REMARK                            x       y       z     vdW  Elec       q    Type
REMARK                         _______ _______ _______ _____ _____    ______ ____
ROOT
ATOM      1  F   UNL     1      49.921   9.310  14.484  0.00  0.00    +0.000 F 
ATOM      2  C   UNL     1      49.180   8.209  14.296  0.00  0.00    +0.000 A 
ATOM      3  C   UNL     1      48.472   8.063  13.110  0.00  0.00    +0.000 A 
ATOM      4  C   UNL     1      47.698   6.920  12.898  0.00  0.00    +0.000 A 
ATOM      5  C   UNL     1      47.643   5.952  13.919  0.00  0.00    +0.000 A 
ATOM      6  C   UNL     1      48.372   6.074  15.119  0.00  0.00    +0.000 A 
ATOM      7  C   UNL     1      49.136   7.237  15.291  0.00  0.00    +0.000 A 
ENDROOT
BRANCH   6   8
ATOM      8  C   UNL     1      48.338   5.025  16.157  0.00  0.00    +0.000 A 
ATOM      9  C   UNL     1      47.224   4.212  16.371  0.00  0.00    +0.000 A 
ATOM     10  C   UNL     1      47.264   3.239  17.367  0.00  0.00    +0.000 A 
ATOM     11  C   UNL     1      48.416   3.095  18.126  0.00  0.00    +0.000 A 
ATOM     12  C   UNL     1      49.484   3.930  17.852  0.00  0.00    +0.000 A 
ATOM     13  N   UNL     1      49.471   4.880  16.891  0.00  0.00    +0.000 NA
ENDBRANCH   6   8
BRANCH   4  14
ATOM     14  C   UNL     1      46.851   6.708  11.663  0.00  0.00    +0.000 C 
BRANCH  14  15
ATOM     15  C   UNL     1      45.337   6.638  11.898  0.00  0.00    +0.000 C 
BRANCH  15  16
ATOM     16  C   UNL     1      44.758   5.259  11.675  0.00  0.00    +0.000 A 
ATOM     17  C   UNL     1      45.044   4.584  10.491  0.00  0.00    +0.000 A 
ATOM     18  C   UNL     1      44.489   3.317  10.273  0.00  0.00    +0.000 A 
ATOM     19  C   UNL     1      43.666   2.771  11.261  0.00  0.00    +0.000 A 
ATOM     20  C   UNL     1      43.434   3.504  12.410  0.00  0.00    +0.000 A 
ATOM     21  N   UNL     1      43.962   4.726  12.630  0.00  0.00    +0.000 NA
BRANCH  18  22
ATOM     22  C   UNL     1      44.760   2.553   9.007  0.00  0.00    +0.000 C 
ATOM     23  F   UNL     1      44.212   3.124   7.899  0.00  0.00    +0.000 F 
ATOM     24  F   UNL     1      46.092   2.433   8.747  0.00  0.00    +0.000 F 
ATOM     25  F   UNL     1      44.273   1.282   9.053  0.00  0.00    +0.000 F 
ENDBRANCH  18  22
ENDBRANCH  15  16
ENDBRANCH  14  15
ENDBRANCH   4  14
TORSDOF 5
ENDMDL
MODEL 7
REMARK VINA RESULT:    -6.706      3.558      7.441
REMARK INTER + INTRA:          -9.829
REMARK INTER:                  -8.892
REMARK INTRA:                  -0.937
REMARK UNBOUND:                -1.163
REMARK  Name = 
REMARK  5 active torsions:
REMARK  status: ('A' for Active; 'I' for Inactive)
REMARK    1  A    between atoms: C_4  and  C_5
REMARK    2  A    between atoms: C_5  and  C_6
REMARK    3  A    between atoms: C_6  and  C_7
REMARK    4  A    between atoms: C_9  and  C_10
REMARK    5  A    between atoms: C_18  and  C_19
REMARK                            x       y       z     vdW  Elec       q    Type
REMARK                         _______ _______ _______ _____ _____    ______ ____
ROOT
ATOM      1  F   UNL     1      44.795   9.718  12.576  0.00  0.00    +0.000 F 
ATOM      2  C   UNL     1      45.544   8.608  12.509  0.00  0.00    +0.000 A 
ATOM      3  C   UNL     1      46.702   8.527  13.273  0.00  0.00    +0.000 A 
ATOM      4  C   UNL     1      47.492   7.376  13.217  0.00  0.00    +0.000 A 
ATOM      5  C   UNL     1      47.093   6.334  12.358  0.00  0.00    +0.000 A 
ATOM      6  C   UNL     1      45.911   6.391  11.595  0.00  0.00    +0.000 A 
ATOM      7  C   UNL     1      45.147   7.565  11.680  0.00  0.00    +0.000 A 
ENDROOT
BRANCH   6   8
ATOM      8  C   UNL     1      45.485   5.267  10.738  0.00  0.00    +0.000 A 
ATOM      9  C   UNL     1      45.699   5.248   9.359  0.00  0.00    +0.000 A 
ATOM     10  C   UNL     1      45.273   4.151   8.612  0.00  0.00    +0.000 A 
ATOM     11  C   UNL     1      44.645   3.096   9.258  0.00  0.00    +0.000 A 
ATOM     12  C   UNL     1      44.475   3.180  10.628  0.00  0.00    +0.000 A 
ATOM     13  N   UNL     1      44.880   4.231  11.375  0.00  0.00    +0.000 NA
ENDBRANCH   6   8
BRANCH   4  14
ATOM     14  C   UNL     1      48.796   7.227  13.968  0.00  0.00    +0.000 C 
BRANCH  14  15
ATOM     15  C   UNL     1      48.820   7.816  15.384  0.00  0.00    +0.000 C 
BRANCH  15  16
ATOM     16  C   UNL     1      48.659   6.774  16.469  0.00  0.00    +0.000 A 
ATOM     17  C   UNL     1      48.471   5.441  16.110  0.00  0.00    +0.000 A 
ATOM     18  C   UNL     1      48.299   4.480  17.113  0.00  0.00    +0.000 A 
ATOM     19  C   UNL     1      48.325   4.896  18.447  0.00  0.00    +0.000 A 
ATOM     20  C   UNL     1      48.520   6.237  18.719  0.00  0.00    +0.000 A 
ATOM     21  N   UNL     1      48.686   7.172  17.761  0.00  0.00    +0.000 NA
BRANCH  18  22
ATOM     22  C   UNL     1      48.083   3.031  16.777  0.00  0.00    +0.000 C 
ATOM     23  F   UNL     1      49.199   2.265  16.928  0.00  0.00    +0.000 F 
ATOM     24  F   UNL     1      47.126   2.454  17.555  0.00  0.00    +0.000 F 
ATOM     25  F   UNL     1      47.677   2.851  15.490  0.00  0.00    +0.000 F 
ENDBRANCH  18  22
ENDBRANCH  15  16
ENDBRANCH  14  15
ENDBRANCH   4  14
TORSDOF 5
ENDMDL
MODEL 8
REMARK VINA RESULT:    -6.290      3.110      6.607
REMARK INTER + INTRA:          -9.291
REMARK INTER:                  -8.339
REMARK INTRA:                  -0.953
REMARK UNBOUND:                -1.163
REMARK  Name = 
REMARK  5 active torsions:
REMARK  status: ('A' for Active; 'I' for Inactive)
REMARK    1  A    between atoms: C_4  and  C_5
REMARK    2  A    between atoms: C_5  and  C_6
REMARK    3  A    between atoms: C_6  and  C_7
REMARK    4  A    between atoms: C_9  and  C_10
REMARK    5  A    between atoms: C_18  and  C_19
REMARK                            x       y       z     vdW  Elec       q    Type
REMARK                         _______ _______ _______ _____ _____    ______ ____
ROOT
ATOM      1  F   UNL     1      42.894   4.209  13.569  0.00  0.00    +0.000 F 
ATOM      2  C   UNL     1      43.638   4.788  12.616  0.00  0.00    +0.000 A 
ATOM      3  C   UNL     1      43.944   6.140  12.725  0.00  0.00    +0.000 A 
ATOM      4  C   UNL     1      44.721   6.758  11.742  0.00  0.00    +0.000 A 
ATOM      5  C   UNL     1      45.153   5.984  10.649  0.00  0.00    +0.000 A 
ATOM      6  C   UNL     1      44.871   4.608  10.535  0.00  0.00    +0.000 A 
ATOM      7  C   UNL     1      44.088   4.027  11.543  0.00  0.00    +0.000 A 
ENDROOT
BRANCH   6   8
ATOM      8  C   UNL     1      45.375   3.804   9.404  0.00  0.00    +0.000 A 
ATOM      9  C   UNL     1      45.919   4.379   8.254  0.00  0.00    +0.000 A 
ATOM     10  C   UNL     1      46.379   3.557   7.227  0.00  0.00    +0.000 A 
ATOM     11  C   UNL     1      46.290   2.180   7.370  0.00  0.00    +0.000 A 
ATOM     12  C   UNL     1      45.747   1.682   8.541  0.00  0.00    +0.000 A 
ATOM     13  N   UNL     1      45.296   2.456   9.552  0.00  0.00    +0.000 NA
ENDBRANCH   6   8
BRANCH   4  14
ATOM     14  C   UNL     1      45.051   8.233  11.752  0.00  0.00    +0.000 C 
BRANCH  14  15
ATOM     15  C   UNL     1      45.766   8.748  13.008  0.00  0.00    +0.000 C 
BRANCH  15  16
ATOM     16  C   UNL     1      47.241   8.415  13.037  0.00  0.00    +0.000 A 
ATOM     17  C   UNL     1      48.119   9.147  12.242  0.00  0.00    +0.000 A 
ATOM     18  C   UNL     1      49.481   8.824  12.250  0.00  0.00    +0.000 A 
ATOM     19  C   UNL     1      49.913   7.773  13.064  0.00  0.00    +0.000 A 
ATOM     20  C   UNL     1      48.977   7.098  13.826  0.00  0.00    +0.000 A 
ATOM     21  N   UNL     1      47.662   7.400  13.825  0.00  0.00    +0.000 NA
BRANCH  18  22
ATOM     22  C   UNL     1      50.468   9.578  11.402  0.00  0.00    +0.000 C 
ATOM     23  F   UNL     1      51.404  10.252  12.126  0.00  0.00    +0.000 F 
ATOM     24  F   UNL     1      51.162   8.761  10.561  0.00  0.00    +0.000 F 
ATOM     25  F   UNL     1      49.868  10.507  10.609  0.00  0.00    +0.000 F 
ENDBRANCH  18  22
ENDBRANCH  15  16
ENDBRANCH  14  15
ENDBRANCH   4  14
TORSDOF 5
ENDMDL
MODEL 9
REMARK VINA RESULT:    -6.141      4.843      7.130
REMARK INTER + INTRA:          -9.099
REMARK INTER:                  -8.189
REMARK INTRA:                  -0.910
REMARK UNBOUND:                -1.163
REMARK  Name = 
REMARK  5 active torsions:
REMARK  status: ('A' for Active; 'I' for Inactive)
REMARK    1  A    between atoms: C_4  and  C_5
REMARK    2  A    between atoms: C_5  and  C_6
REMARK    3  A    between atoms: C_6  and  C_7
REMARK    4  A    between atoms: C_9  and  C_10
REMARK    5  A    between atoms: C_18  and  C_19
REMARK                            x       y       z     vdW  Elec       q    Type
REMARK                         _______ _______ _______ _____ _____    ______ ____
ROOT
ATOM      1  F   UNL     1      46.585   2.499  17.779  0.00  0.00    +0.000 F 
ATOM      2  C   UNL     1      47.709   3.189  17.540  0.00  0.00    +0.000 A 
ATOM      3  C   UNL     1      47.616   4.515  17.133  0.00  0.00    +0.000 A 
ATOM      4  C   UNL     1      48.778   5.249  16.884  0.00  0.00    +0.000 A 
ATOM      5  C   UNL     1      50.020   4.603  17.034  0.00  0.00    +0.000 A 
ATOM      6  C   UNL     1      50.133   3.267  17.467  0.00  0.00    +0.000 A 
ATOM      7  C   UNL     1      48.941   2.566  17.707  0.00  0.00    +0.000 A 
ENDROOT
BRANCH   6   8
ATOM      8  C   UNL     1      51.447   2.623  17.665  0.00  0.00    +0.000 A 
ATOM      9  C   UNL     1      52.562   3.318  18.135  0.00  0.00    +0.000 A 
ATOM     10  C   UNL     1      53.771   2.645  18.301  0.00  0.00    +0.000 A 
ATOM     11  C   UNL     1      53.840   1.293  17.997  0.00  0.00    +0.000 A 
ATOM     12  C   UNL     1      52.692   0.669  17.544  0.00  0.00    +0.000 A 
ATOM     13  N   UNL     1      51.508   1.298  17.376  0.00  0.00    +0.000 NA
ENDBRANCH   6   8
BRANCH   4  14
ATOM     14  C   UNL     1      48.767   6.675  16.382  0.00  0.00    +0.000 C 
BRANCH  14  15
ATOM     15  C   UNL     1      49.032   6.854  14.881  0.00  0.00    +0.000 C 
BRANCH  15  16
ATOM     16  C   UNL     1      47.779   6.776  14.038  0.00  0.00    +0.000 A 
ATOM     17  C   UNL     1      47.244   5.527  13.729  0.00  0.00    +0.000 A 
ATOM     18  C   UNL     1      46.098   5.453  12.929  0.00  0.00    +0.000 A 
ATOM     19  C   UNL     1      45.527   6.642  12.468  0.00  0.00    +0.000 A 
ATOM     20  C   UNL     1      46.118   7.840  12.822  0.00  0.00    +0.000 A 
ATOM     21  N   UNL     1      47.223   7.925  13.592  0.00  0.00    +0.000 NA
BRANCH  18  22
ATOM     22  C   UNL     1      45.488   4.129  12.560  0.00  0.00    +0.000 C 
ATOM     23  F   UNL     1      45.304   3.968  11.220  0.00  0.00    +0.000 F 
ATOM     24  F   UNL     1      46.251   3.075  12.962  0.00  0.00    +0.000 F 
ATOM     25  F   UNL     1      44.265   3.943  13.130  0.00  0.00    +0.000 F 
ENDBRANCH  18  22
ENDBRANCH  15  16
ENDBRANCH  14  15
ENDBRANCH   4  14
TORSDOF 5
ENDMDL
