MODEL 1
REMARK VINA RESULT:    -7.094      0.000      0.000
REMARK INTER + INTRA:          -9.289
REMARK INTER:                  -8.752
REMARK INTRA:                  -0.537
REMARK UNBOUND:                -0.537
REMARK  Name = 
REMARK  5 active torsions:
REMARK  status: ('A' for Active; 'I' for Inactive)
REMARK    1  A    between atoms: C_1  and  C_2
REMARK    2  A    between atoms: C_5  and  O_6
REMARK    3  A    between atoms: O_6  and  C_7
REMARK    4  A    between atoms: C_7  and  C_8
REMARK    5  A    between atoms: C_13  and  C_14
REMARK                            x       y       z     vdW  Elec       q    Type
REMARK                         _______ _______ _______ _____ _____    ______ ____
ROOT
ATOM      1  C   UNL     1      44.556   6.898  11.839  0.00  0.00    +0.000 A 
ATOM      2  C   UNL     1      43.871   7.932  11.190  0.00  0.00    +0.000 A 
ATOM      3  C   UNL     1      44.325   9.244  11.265  0.00  0.00    +0.000 A 
ATOM      4  C   UNL     1      45.482   9.543  11.980  0.00  0.00    +0.000 A 
ATOM      5  F   UNL     1      45.805  10.835  12.081  0.00  0.00    +0.000 F 
ATOM      6  C   UNL     1      46.254   8.542  12.593  0.00  0.00    +0.000 A 
ATOM      7  C   UNL     1      45.756   7.225  12.504  0.00  0.00    +0.000 A 
ENDROOT
BRANCH   6   8
ATOM      8  C   UNL     1      47.521   8.795  13.403  0.00  0.00    +0.000 C 
ATOM      9  C   UNL     1      48.688   9.512  12.701  0.00  0.00    +0.000 C 
ATOM     10  C   UNL     1      49.465   8.589  11.757  0.00  0.00    +0.000 C 
ATOM     11  N   UNL     1      49.959   7.391  12.442  0.00  0.00    +0.000 NA
ATOM     12  C   UNL     1      48.864   6.652  13.070  0.00  0.00    +0.000 C 
ATOM     13  C   UNL     1      48.089   7.518  14.063  0.00  0.00    +0.000 C 
ATOM     14  H   UNL     1      50.630   7.671  13.154  0.00  0.00    +0.000 HD
ENDBRANCH   6   8
BRANCH   1  15
ATOM     15  C   UNL     1      43.987   5.493  11.833  0.00  0.00    +0.000 C 
ATOM     16  C   UNL     1      43.022   5.059  12.934  0.00  0.00    +0.000 C 
ATOM     17  C   UNL     1      42.500   5.341  11.569  0.00  0.00    +0.000 C 
BRANCH  15  18
ATOM     18  O   UNL     1      44.927   4.439  11.529  0.00  0.00    +0.000 OA
BRANCH  18  23
ATOM     19  C   UNL     1      46.485   2.969   6.433  0.00  0.00    +0.000 C 
ATOM     20  C   UNL     1      45.869   3.368   7.735  0.00  0.00    +0.000 A 
ATOM     21  C   UNL     1      45.357   2.421   8.620  0.00  0.00    +0.000 A 
ATOM     22  N   UNL     1      44.940   2.726   9.874  0.00  0.00    +0.000 NA
ATOM     23  C   UNL     1      45.068   4.025  10.219  0.00  0.00    +0.000 A 
ATOM     24  C   UNL     1      45.511   4.984   9.319  0.00  0.00    +0.000 A 
ATOM     25  N   UNL     1      45.915   4.682   8.062  0.00  0.00    +0.000 NA
ENDBRANCH  18  23
ENDBRANCH  15  18
ENDBRANCH   1  15
TORSDOF 4
ENDMDL
MODEL 2
REMARK VINA RESULT:    -6.932      2.603      6.140
REMARK INTER + INTRA:          -9.089
REMARK INTER:                  -8.746
REMARK INTRA:                  -0.344
REMARK UNBOUND:                -0.537
REMARK  Name = 
REMARK  5 active torsions:
REMARK  status: ('A' for Active; 'I' for Inactive)
REMARK    1  A    between atoms: C_1  and  C_2
REMARK    2  A    between atoms: C_5  and  O_6
REMARK    3  A    between atoms: O_6  and  C_7
REMARK    4  A    between atoms: C_7  and  C_8
REMARK    5  A    between atoms: C_13  and  C_14
REMARK                            x       y       z     vdW  Elec       q    Type
REMARK                         _______ _______ _______ _____ _____    ______ ____
ROOT
ATOM      1  C   UNL     1      46.807   7.576  12.155  0.00  0.00    +0.000 A 
ATOM      2  C   UNL     1      46.373   8.907  12.146  0.00  0.00    +0.000 A 
ATOM      3  C   UNL     1      45.083   9.232  11.740  0.00  0.00    +0.000 A 
ATOM      4  C   UNL     1      44.200   8.230  11.349  0.00  0.00    +0.000 A 
ATOM      5  F   UNL     1      43.011   8.627  10.887  0.00  0.00    +0.000 F 
ATOM      6  C   UNL     1      44.550   6.870  11.404  0.00  0.00    +0.000 A 
ATOM      7  C   UNL     1      45.870   6.579  11.812  0.00  0.00    +0.000 A 
ENDROOT
BRANCH   6   8
ATOM      8  C   UNL     1      43.643   5.721  10.979  0.00  0.00    +0.000 C 
ATOM      9  C   UNL     1      42.596   5.223  11.993  0.00  0.00    +0.000 C 
ATOM     10  C   UNL     1      43.206   4.347  13.090  0.00  0.00    +0.000 C 
ATOM     11  N   UNL     1      43.943   3.207  12.539  0.00  0.00    +0.000 NA
ATOM     12  C   UNL     1      44.989   3.649  11.617  0.00  0.00    +0.000 C 
ATOM     13  C   UNL     1      44.421   4.485  10.470  0.00  0.00    +0.000 C 
ATOM     14  H   UNL     1      43.292   2.601  12.045  0.00  0.00    +0.000 HD
ENDBRANCH   6   8
BRANCH   1  15
ATOM     15  C   UNL     1      48.247   7.252  12.500  0.00  0.00    +0.000 C 
ATOM     16  C   UNL     1      49.373   7.728  11.585  0.00  0.00    +0.000 C 
ATOM     17  C   UNL     1      49.151   8.409  12.889  0.00  0.00    +0.000 C 
BRANCH  15  18
ATOM     18  O   UNL     1      48.493   5.905  12.959  0.00  0.00    +0.000 OA
BRANCH  18  23
ATOM     19  C   UNL     1      47.339   3.580  17.839  0.00  0.00    +0.000 C 
ATOM     20  C   UNL     1      47.516   4.357  16.575  0.00  0.00    +0.000 A 
ATOM     21  C   UNL     1      48.414   5.419  16.491  0.00  0.00    +0.000 A 
ATOM     22  N   UNL     1      48.720   6.042  15.326  0.00  0.00    +0.000 NA
ATOM     23  C   UNL     1      48.098   5.549  14.234  0.00  0.00    +0.000 A 
ATOM     24  C   UNL     1      47.150   4.539  14.320  0.00  0.00    +0.000 A 
ATOM     25  N   UNL     1      46.834   3.926  15.486  0.00  0.00    +0.000 NA
ENDBRANCH  18  23
ENDBRANCH  15  18
ENDBRANCH   1  15
TORSDOF 4
ENDMDL
MODEL 3
REMARK VINA RESULT:    -6.384      2.558      6.663
REMARK INTER + INTRA:          -8.414
REMARK INTER:                  -7.812
REMARK INTRA:                  -0.602
REMARK UNBOUND:                -0.537
REMARK  Name = 
REMARK  5 active torsions:
REMARK  status: ('A' for Active; 'I' for Inactive)
REMARK    1  A    between atoms: C_1  and  C_2
REMARK    2  A    between atoms: C_5  and  O_6
REMARK    3  A    between atoms: O_6  and  C_7
REMARK    4  A    between atoms: C_7  and  C_8
REMARK    5  A    between atoms: C_13  and  C_14
REMARK                            x       y       z     vdW  Elec       q    Type
REMARK                         _______ _______ _______ _____ _____    ______ ____
ROOT
ATOM      1  C   UNL     1      47.105   7.646  12.259  0.00  0.00    +0.000 A 
ATOM      2  C   UNL     1      46.553   8.932  12.286  0.00  0.00    +0.000 A 
ATOM      3  C   UNL     1      45.244   9.154  11.874  0.00  0.00    +0.000 A 
ATOM      4  C   UNL     1      44.459   8.090  11.440  0.00  0.00    +0.000 A 
ATOM      5  F   UNL     1      43.243   8.394  10.976  0.00  0.00    +0.000 F 
ATOM      6  C   UNL     1      44.929   6.766  11.457  0.00  0.00    +0.000 A 
ATOM      7  C   UNL     1      46.265   6.581  11.872  0.00  0.00    +0.000 A 
ENDROOT
BRANCH   6   8
ATOM      8  C   UNL     1      44.132   5.554  10.984  0.00  0.00    +0.000 C 
ATOM      9  C   UNL     1      42.811   5.239  11.709  0.00  0.00    +0.000 C 
ATOM     10  C   UNL     1      43.030   4.574  13.071  0.00  0.00    +0.000 C 
ATOM     11  N   UNL     1      43.841   3.359  12.967  0.00  0.00    +0.000 NA
ATOM     12  C   UNL     1      45.131   3.636  12.337  0.00  0.00    +0.000 C 
ATOM     13  C   UNL     1      44.966   4.253  10.948  0.00  0.00    +0.000 C 
ATOM     14  H   UNL     1      43.335   2.671  12.413  0.00  0.00    +0.000 HD
ENDBRANCH   6   8
BRANCH   1  15
ATOM     15  C   UNL     1      48.565   7.441  12.613  0.00  0.00    +0.000 C 
ATOM     16  C   UNL     1      49.637   7.604  11.538  0.00  0.00    +0.000 C 
ATOM     17  C   UNL     1      49.472   8.658  12.575  0.00  0.00    +0.000 C 
BRANCH  15  18
ATOM     18  O   UNL     1      48.851   6.303  13.455  0.00  0.00    +0.000 OA
BRANCH  18  23
ATOM     19  C   UNL     1      48.447   5.884  18.952  0.00  0.00    +0.000 C 
ATOM     20  C   UNL     1      48.380   6.108  17.475  0.00  0.00    +0.000 A 
ATOM     21  C   UNL     1      48.894   7.263  16.889  0.00  0.00    +0.000 A 
ATOM     22  N   UNL     1      48.997   7.431  15.548  0.00  0.00    +0.000 NA
ATOM     23  C   UNL     1      48.576   6.384  14.806  0.00  0.00    +0.000 A 
ATOM     24  C   UNL     1      48.000   5.261  15.381  0.00  0.00    +0.000 A 
ATOM     25  N   UNL     1      47.884   5.098  16.721  0.00  0.00    +0.000 NA
ENDBRANCH  18  23
ENDBRANCH  15  18
ENDBRANCH   1  15
TORSDOF 4
ENDMDL
MODEL 4
REMARK VINA RESULT:    -6.382      1.421      2.151
REMARK INTER + INTRA:          -8.411
REMARK INTER:                  -8.849
REMARK INTRA:                   0.437
REMARK UNBOUND:                -0.537
REMARK  Name = 
REMARK  5 active torsions:
REMARK  status: ('A' for Active; 'I' for Inactive)
REMARK    1  A    between atoms: C_1  and  C_2
REMARK    2  A    between atoms: C_5  and  O_6
REMARK    3  A    between atoms: O_6  and  C_7
REMARK    4  A    between atoms: C_7  and  C_8
REMARK    5  A    between atoms: C_13  and  C_14
REMARK                            x       y       z     vdW  Elec       q    Type
REMARK                         _______ _______ _______ _____ _____    ______ ____
ROOT
ATOM      1  C   UNL     1      44.678   5.635  11.369  0.00  0.00    +0.000 A 
ATOM      2  C   UNL     1      43.736   6.655  11.194  0.00  0.00    +0.000 A 
ATOM      3  C   UNL     1      44.091   7.989  11.364  0.00  0.00    +0.000 A 
ATOM      4  C   UNL     1      45.399   8.326  11.697  0.00  0.00    +0.000 A 
ATOM      5  F   UNL     1      45.643   9.619  11.930  0.00  0.00    +0.000 F 
ATOM      6  C   UNL     1      46.408   7.356  11.815  0.00  0.00    +0.000 A 
ATOM      7  C   UNL     1      46.008   6.013  11.647  0.00  0.00    +0.000 A 
ENDROOT
BRANCH   6   8
ATOM      8  C   UNL     1      47.857   7.648  12.192  0.00  0.00    +0.000 C 
ATOM      9  C   UNL     1      48.638   6.551  12.938  0.00  0.00    +0.000 C 
ATOM     10  C   UNL     1      48.261   6.463  14.420  0.00  0.00    +0.000 C 
ATOM     11  N   UNL     1      48.428   7.746  15.108  0.00  0.00    +0.000 NA
ATOM     12  C   UNL     1      47.649   8.799  14.459  0.00  0.00    +0.000 C 
ATOM     13  C   UNL     1      48.027   8.963  12.987  0.00  0.00    +0.000 C 
ATOM     14  H   UNL     1      49.414   8.000  15.098  0.00  0.00    +0.000 HD
ENDBRANCH   6   8
BRANCH   1  15
ATOM     15  C   UNL     1      44.247   4.183  11.283  0.00  0.00    +0.000 C 
ATOM     16  C   UNL     1      44.947   3.132  12.141  0.00  0.00    +0.000 C 
ATOM     17  C   UNL     1      43.575   3.580  12.504  0.00  0.00    +0.000 C 
BRANCH  15  18
ATOM     18  O   UNL     1      44.003   3.681   9.951  0.00  0.00    +0.000 OA
BRANCH  18  23
ATOM     19  C   UNL     1      47.626   2.189   6.053  0.00  0.00    +0.000 C 
ATOM     20  C   UNL     1      46.813   2.638   7.224  0.00  0.00    +0.000 A 
ATOM     21  C   UNL     1      46.496   3.981   7.420  0.00  0.00    +0.000 A 
ATOM     22  N   UNL     1      45.632   4.408   8.373  0.00  0.00    +0.000 NA
ATOM     23  C   UNL     1      45.079   3.431   9.123  0.00  0.00    +0.000 A 
ATOM     24  C   UNL     1      45.442   2.099   8.979  0.00  0.00    +0.000 A 
ATOM     25  N   UNL     1      46.317   1.674   8.035  0.00  0.00    +0.000 NA
ENDBRANCH  18  23
ENDBRANCH  15  18
ENDBRANCH   1  15
TORSDOF 4
ENDMDL
MODEL 5
REMARK VINA RESULT:    -5.990      3.534      5.517
REMARK INTER + INTRA:          -7.928
REMARK INTER:                  -7.456
REMARK INTRA:                  -0.472
REMARK UNBOUND:                -0.537
REMARK  Name = 
REMARK  5 active torsions:
REMARK  status: ('A' for Active; 'I' for Inactive)
REMARK    1  A    between atoms: C_1  and  C_2
REMARK    2  A    between atoms: C_5  and  O_6
REMARK    3  A    between atoms: O_6  and  C_7
REMARK    4  A    between atoms: C_7  and  C_8
REMARK    5  A    between atoms: C_13  and  C_14
REMARK                            x       y       z     vdW  Elec       q    Type
REMARK                         _______ _______ _______ _____ _____    ______ ____
ROOT
ATOM      1  C   UNL     1      48.313   7.870  14.324  0.00  0.00    +0.000 A 
ATOM      2  C   UNL     1      48.250   9.177  14.820  0.00  0.00    +0.000 A 
ATOM      3  C   UNL     1      48.444   9.436  16.172  0.00  0.00    +0.000 A 
ATOM      4  C   UNL     1      48.720   8.392  17.050  0.00  0.00    +0.000 A 
ATOM      5  F   UNL     1      48.805   8.707  18.346  0.00  0.00    +0.000 F 
ATOM      6  C   UNL     1      48.868   7.068  16.605  0.00  0.00    +0.000 A 
ATOM      7  C   UNL     1      48.654   6.843  15.228  0.00  0.00    +0.000 A 
ENDROOT
BRANCH   6   8
ATOM      8  C   UNL     1      49.155   5.873  17.508  0.00  0.00    +0.000 C 
ATOM      9  C   UNL     1      48.903   4.466  16.935  0.00  0.00    +0.000 C 
ATOM     10  C   UNL     1      47.417   4.098  16.905  0.00  0.00    +0.000 C 
ATOM     11  N   UNL     1      46.794   4.215  18.226  0.00  0.00    +0.000 NA
ATOM     12  C   UNL     1      46.962   5.560  18.773  0.00  0.00    +0.000 C 
ATOM     13  C   UNL     1      48.435   5.955  18.874  0.00  0.00    +0.000 C 
ATOM     14  H   UNL     1      47.223   3.538  18.854  0.00  0.00    +0.000 HD
ENDBRANCH   6   8
BRANCH   1  15
ATOM     15  C   UNL     1      47.995   7.597  12.867  0.00  0.00    +0.000 C 
ATOM     16  C   UNL     1      48.758   8.337  11.771  0.00  0.00    +0.000 C 
ATOM     17  C   UNL     1      49.061   6.905  12.036  0.00  0.00    +0.000 C 
BRANCH  15  18
ATOM     18  O   UNL     1      46.592   7.500  12.540  0.00  0.00    +0.000 OA
BRANCH  18  23
ATOM     19  C   UNL     1      43.580   2.902  11.958  0.00  0.00    +0.000 C 
ATOM     20  C   UNL     1      44.559   4.026  12.068  0.00  0.00    +0.000 A 
ATOM     21  C   UNL     1      44.955   4.759  10.951  0.00  0.00    +0.000 A 
ATOM     22  N   UNL     1      45.711   5.882  11.030  0.00  0.00    +0.000 NA
ATOM     23  C   UNL     1      46.049   6.257  12.283  0.00  0.00    +0.000 A 
ATOM     24  C   UNL     1      45.716   5.493  13.393  0.00  0.00    +0.000 A 
ATOM     25  N   UNL     1      44.972   4.364  13.313  0.00  0.00    +0.000 NA
ENDBRANCH  18  23
ENDBRANCH  15  18
ENDBRANCH   1  15
TORSDOF 4
ENDMDL
MODEL 6
REMARK VINA RESULT:    -5.732      4.235      7.682
REMARK INTER + INTRA:          -7.609
REMARK INTER:                  -7.687
REMARK INTRA:                   0.078
REMARK UNBOUND:                -0.537
REMARK  Name = 
REMARK  5 active torsions:
REMARK  status: ('A' for Active; 'I' for Inactive)
REMARK    1  A    between atoms: C_1  and  C_2
REMARK    2  A    between atoms: C_5  and  O_6
REMARK    3  A    between atoms: O_6  and  C_7
REMARK    4  A    between atoms: C_7  and  C_8
REMARK    5  A    between atoms: C_13  and  C_14
REMARK                            x       y       z     vdW  Elec       q    Type
REMARK                         _______ _______ _______ _____ _____    ______ ____
ROOT
ATOM      1  C   UNL     1      47.573   5.266  15.053  0.00  0.00    +0.000 A 
ATOM      2  C   UNL     1      48.225   6.433  14.636  0.00  0.00    +0.000 A 
ATOM      3  C   UNL     1      47.975   6.979  13.382  0.00  0.00    +0.000 A 
ATOM      4  C   UNL     1      47.057   6.374  12.528  0.00  0.00    +0.000 A 
ATOM      5  F   UNL     1      46.937   6.905  11.308  0.00  0.00    +0.000 F 
ATOM      6  C   UNL     1      46.317   5.244  12.914  0.00  0.00    +0.000 A 
ATOM      7  C   UNL     1      46.605   4.713  14.190  0.00  0.00    +0.000 A 
ENDROOT
BRANCH   6   8
ATOM      8  C   UNL     1      45.308   4.521  12.029  0.00  0.00    +0.000 C 
ATOM      9  C   UNL     1      44.701   5.304  10.849  0.00  0.00    +0.000 C 
ATOM     10  C   UNL     1      43.618   6.293  11.292  0.00  0.00    +0.000 C 
ATOM     11  N   UNL     1      42.552   5.637  12.053  0.00  0.00    +0.000 NA
ATOM     12  C   UNL     1      43.089   4.934  13.218  0.00  0.00    +0.000 C 
ATOM     13  C   UNL     1      44.138   3.895  12.822  0.00  0.00    +0.000 C 
ATOM     14  H   UNL     1      42.074   4.973  11.447  0.00  0.00    +0.000 HD
ENDBRANCH   6   8
BRANCH   1  15
ATOM     15  C   UNL     1      47.937   4.628  16.380  0.00  0.00    +0.000 C 
ATOM     16  C   UNL     1      46.939   3.708  17.079  0.00  0.00    +0.000 C 
ATOM     17  C   UNL     1      48.129   3.122  16.403  0.00  0.00    +0.000 C 
BRANCH  15  18
ATOM     18  O   UNL     1      48.590   5.495  17.333  0.00  0.00    +0.000 OA
BRANCH  18  23
ATOM     19  C   UNL     1      53.887   3.995  17.828  0.00  0.00    +0.000 C 
ATOM     20  C   UNL     1      52.506   4.568  17.809  0.00  0.00    +0.000 A 
ATOM     21  C   UNL     1      52.126   5.523  16.869  0.00  0.00    +0.000 A 
ATOM     22  N   UNL     1      50.846   5.945  16.716  0.00  0.00    +0.000 NA
ATOM     23  C   UNL     1      49.949   5.360  17.538  0.00  0.00    +0.000 A 
ATOM     24  C   UNL     1      50.331   4.461  18.523  0.00  0.00    +0.000 A 
ATOM     25  N   UNL     1      51.612   4.048  18.684  0.00  0.00    +0.000 NA
ENDBRANCH  18  23
ENDBRANCH  15  18
ENDBRANCH   1  15
TORSDOF 4
ENDMDL
MODEL 7
REMARK VINA RESULT:    -5.694      3.158      6.549
REMARK INTER + INTRA:          -7.563
REMARK INTER:                  -7.583
REMARK INTRA:                   0.020
REMARK UNBOUND:                -0.537
REMARK  Name = 
REMARK  5 active torsions:
REMARK  status: ('A' for Active; 'I' for Inactive)
REMARK    1  A    between atoms: C_1  and  C_2
REMARK    2  A    between atoms: C_5  and  O_6
REMARK    3  A    between atoms: O_6  and  C_7
REMARK    4  A    between atoms: C_7  and  C_8
REMARK    5  A    between atoms: C_13  and  C_14
REMARK                            x       y       z     vdW  Elec       q    Type
REMARK                         _______ _______ _______ _____ _____    ______ ____
ROOT
ATOM      1  C   UNL     1      46.810   7.460  13.077  0.00  0.00    +0.000 A 
ATOM      2  C   UNL     1      47.925   6.944  13.748  0.00  0.00    +0.000 A 
ATOM      3  C   UNL     1      47.982   5.601  14.104  0.00  0.00    +0.000 A 
ATOM      4  C   UNL     1      46.930   4.748  13.784  0.00  0.00    +0.000 A 
ATOM      5  F   UNL     1      47.017   3.494  14.238  0.00  0.00    +0.000 F 
ATOM      6  C   UNL     1      45.816   5.188  13.049  0.00  0.00    +0.000 A 
ATOM      7  C   UNL     1      45.789   6.558  12.714  0.00  0.00    +0.000 A 
ENDROOT
BRANCH   6   8
ATOM      8  C   UNL     1      44.622   4.316  12.675  0.00  0.00    +0.000 C 
ATOM      9  C   UNL     1      44.715   3.494  11.377  0.00  0.00    +0.000 C 
ATOM     10  C   UNL     1      44.497   4.346  10.122  0.00  0.00    +0.000 C 
ATOM     11  N   UNL     1      43.224   5.069  10.161  0.00  0.00    +0.000 NA
ATOM     12  C   UNL     1      43.129   5.909  11.355  0.00  0.00    +0.000 C 
ATOM     13  C   UNL     1      43.286   5.094  12.639  0.00  0.00    +0.000 C 
ATOM     14  H   UNL     1      42.461   4.395  10.161  0.00  0.00    +0.000 HD
ENDBRANCH   6   8
BRANCH   1  15
ATOM     15  C   UNL     1      46.720   8.947  12.790  0.00  0.00    +0.000 C 
ATOM     16  C   UNL     1      47.828   9.881  13.272  0.00  0.00    +0.000 C 
ATOM     17  C   UNL     1      47.736   9.536  11.827  0.00  0.00    +0.000 C 
BRANCH  15  18
ATOM     18  O   UNL     1      45.421   9.545  12.989  0.00  0.00    +0.000 OA
BRANCH  18  23
ATOM     19  C   UNL     1      42.170  11.936   9.211  0.00  0.00    +0.000 C 
ATOM     20  C   UNL     1      43.206  11.325  10.100  0.00  0.00    +0.000 A 
ATOM     21  C   UNL     1      43.971  12.101  10.969  0.00  0.00    +0.000 A 
ATOM     22  N   UNL     1      44.801  11.571  11.901  0.00  0.00    +0.000 NA
ATOM     23  C   UNL     1      44.829  10.221  11.941  0.00  0.00    +0.000 A 
ATOM     24  C   UNL     1      44.123   9.444  11.033  0.00  0.00    +0.000 A 
ATOM     25  N   UNL     1      43.304   9.974  10.093  0.00  0.00    +0.000 NA
ENDBRANCH  18  23
ENDBRANCH  15  18
ENDBRANCH   1  15
TORSDOF 4
ENDMDL
MODEL 8
REMARK VINA RESULT:    -5.489      5.448      7.479
REMARK INTER + INTRA:          -7.310
REMARK INTER:                  -6.949
REMARK INTRA:                  -0.361
REMARK UNBOUND:                -0.537
REMARK  Name = 
REMARK  5 active torsions:
REMARK  status: ('A' for Active; 'I' for Inactive)
REMARK    1  A    between atoms: C_1  and  C_2
REMARK    2  A    between atoms: C_5  and  O_6
REMARK    3  A    between atoms: O_6  and  C_7
REMARK    4  A    between atoms: C_7  and  C_8
REMARK    5  A    between atoms: C_13  and  C_14
REMARK                            x       y       z     vdW  Elec       q    Type
REMARK                         _______ _______ _______ _____ _____    ______ ____
ROOT
ATOM      1  C   UNL     1      49.475   3.340  17.172  0.00  0.00    +0.000 A 
ATOM      2  C   UNL     1      50.102   2.090  17.092  0.00  0.00    +0.000 A 
ATOM      3  C   UNL     1      51.462   1.959  17.349  0.00  0.00    +0.000 A 
ATOM      4  C   UNL     1      52.217   3.073  17.704  0.00  0.00    +0.000 A 
ATOM      5  F   UNL     1      53.532   2.883  17.846  0.00  0.00    +0.000 F 
ATOM      6  C   UNL     1      51.635   4.340  17.872  0.00  0.00    +0.000 A 
ATOM      7  C   UNL     1      50.255   4.437  17.593  0.00  0.00    +0.000 A 
ENDROOT
BRANCH   6   8
ATOM      8  C   UNL     1      52.400   5.606  18.243  0.00  0.00    +0.000 C 
ATOM      9  C   UNL     1      51.584   6.817  18.732  0.00  0.00    +0.000 C 
ATOM     10  C   UNL     1      50.890   7.562  17.587  0.00  0.00    +0.000 C 
ATOM     11  N   UNL     1      51.837   7.986  16.552  0.00  0.00    +0.000 NA
ATOM     12  C   UNL     1      52.587   6.847  16.023  0.00  0.00    +0.000 C 
ATOM     13  C   UNL     1      53.342   6.102  17.122  0.00  0.00    +0.000 C 
ATOM     14  H   UNL     1      52.485   8.660  16.954  0.00  0.00    +0.000 HD
ENDBRANCH   6   8
BRANCH   1  15
ATOM     15  C   UNL     1      48.015   3.481  16.787  0.00  0.00    +0.000 C 
ATOM     16  C   UNL     1      46.934   2.870  17.675  0.00  0.00    +0.000 C 
ATOM     17  C   UNL     1      47.138   4.344  17.676  0.00  0.00    +0.000 C 
BRANCH  15  18
ATOM     18  O   UNL     1      47.714   3.270  15.391  0.00  0.00    +0.000 OA
BRANCH  18  23
ATOM     19  C   UNL     1      45.919   7.134  11.870  0.00  0.00    +0.000 C 
ATOM     20  C   UNL     1      46.275   6.176  12.961  0.00  0.00    +0.000 A 
ATOM     21  C   UNL     1      45.517   5.033  13.205  0.00  0.00    +0.000 A 
ATOM     22  N   UNL     1      45.896   4.063  14.072  0.00  0.00    +0.000 NA
ATOM     23  C   UNL     1      47.081   4.273  14.684  0.00  0.00    +0.000 A 
ATOM     24  C   UNL     1      47.807   5.441  14.499  0.00  0.00    +0.000 A 
ATOM     25  N   UNL     1      47.422   6.418  13.642  0.00  0.00    +0.000 NA
ENDBRANCH  18  23
ENDBRANCH  15  18
ENDBRANCH   1  15
TORSDOF 4
ENDMDL
MODEL 9
REMARK VINA RESULT:    -5.198      6.346      8.354
REMARK INTER + INTRA:          -6.950
REMARK INTER:                  -6.713
REMARK INTRA:                  -0.238
REMARK UNBOUND:                -0.537
REMARK  Name = 
REMARK  5 active torsions:
REMARK  status: ('A' for Active; 'I' for Inactive)
REMARK    1  A    between atoms: C_1  and  C_2
REMARK    2  A    between atoms: C_5  and  O_6
REMARK    3  A    between atoms: O_6  and  C_7
REMARK    4  A    between atoms: C_7  and  C_8
REMARK    5  A    between atoms: C_13  and  C_14
REMARK                            x       y       z     vdW  Elec       q    Type
REMARK                         _______ _______ _______ _____ _____    ______ ____
ROOT
ATOM      1  C   UNL     1      49.321   3.790  17.394  0.00  0.00    +0.000 A 
ATOM      2  C   UNL     1      49.278   2.432  17.056  0.00  0.00    +0.000 A 
ATOM      3  C   UNL     1      50.436   1.662  17.055  0.00  0.00    +0.000 A 
ATOM      4  C   UNL     1      51.655   2.233  17.405  0.00  0.00    +0.000 A 
ATOM      5  F   UNL     1      52.735   1.454  17.294  0.00  0.00    +0.000 F 
ATOM      6  C   UNL     1      51.755   3.571  17.823  0.00  0.00    +0.000 A 
ATOM      7  C   UNL     1      50.561   4.324  17.802  0.00  0.00    +0.000 A 
ENDROOT
BRANCH   6   8
ATOM      8  C   UNL     1      53.056   4.268  18.206  0.00  0.00    +0.000 C 
ATOM      9  C   UNL     1      54.243   3.384  18.631  0.00  0.00    +0.000 C 
ATOM     10  C   UNL     1      54.099   2.849  20.059  0.00  0.00    +0.000 C 
ATOM     11  N   UNL     1      53.908   3.925  21.034  0.00  0.00    +0.000 NA
ATOM     12  C   UNL     1      52.749   4.749  20.693  0.00  0.00    +0.000 C 
ATOM     13  C   UNL     1      52.870   5.352  19.294  0.00  0.00    +0.000 C 
ATOM     14  H   UNL     1      54.743   4.508  21.051  0.00  0.00    +0.000 HD
ENDBRANCH   6   8
BRANCH   1  15
ATOM     15  C   UNL     1      48.067   4.636  17.288  0.00  0.00    +0.000 C 
ATOM     16  C   UNL     1      47.351   5.094  18.556  0.00  0.00    +0.000 C 
ATOM     17  C   UNL     1      48.151   6.073  17.772  0.00  0.00    +0.000 C 
BRANCH  15  18
ATOM     18  O   UNL     1      47.118   4.224  16.281  0.00  0.00    +0.000 OA
BRANCH  18  23
ATOM     19  C   UNL     1      46.676   6.727  11.372  0.00  0.00    +0.000 C 
ATOM     20  C   UNL     1      46.947   5.937  12.612  0.00  0.00    +0.000 A 
ATOM     21  C   UNL     1      47.951   6.303  13.506  0.00  0.00    +0.000 A 
ATOM     22  N   UNL     1      48.121   5.711  14.714  0.00  0.00    +0.000 NA
ATOM     23  C   UNL     1      47.232   4.737  15.004  0.00  0.00    +0.000 A 
ATOM     24  C   UNL     1      46.274   4.321  14.091  0.00  0.00    +0.000 A 
ATOM     25  N   UNL     1      46.112   4.903  12.878  0.00  0.00    +0.000 NA
ENDBRANCH  18  23
ENDBRANCH  15  18
ENDBRANCH   1  15
TORSDOF 4
ENDMDL
