MODEL 1
REMARK VINA RESULT:    -6.972      0.000      0.000
REMARK INTER + INTRA:         -10.418
REMARK INTER:                  -9.418
REMARK INTRA:                  -0.999
REMARK UNBOUND:                -0.999
REMARK  Name = 
REMARK  6 active torsions:
REMARK  status: ('A' for Active; 'I' for Inactive)
REMARK    1  A    between atoms: C_2  and  C_4
REMARK    2  A    between atoms: C_8  and  O_9
REMARK    3  A    between atoms: O_9  and  C_10
REMARK    4  A    between atoms: C_10  and  C_11
REMARK    5  A    between atoms: C_11  and  C_12
REMARK    6  A    between atoms: C_14  and  N_15
REMARK                            x       y       z     vdW  Elec       q    Type
REMARK                         _______ _______ _______ _____ _____    ______ ____
ROOT
ATOM      1  C   UNL     1      48.609   7.421  11.814  0.00  0.00    +0.000 C 
ENDROOT
BRANCH   1   2
ATOM      2  C   UNL     1      47.100   7.505  11.733  0.00  0.00    +0.000 A 
ATOM      3  C   UNL     1      46.365   6.342  11.407  0.00  0.00    +0.000 A 
ATOM      4  C   UNL     1      44.963   6.335  11.284  0.00  0.00    +0.000 A 
ATOM      5  C   UNL     1      44.306   7.545  11.534  0.00  0.00    +0.000 A 
ATOM      6  C   UNL     1      45.003   8.704  11.886  0.00  0.00    +0.000 A 
ATOM      7  C   UNL     1      46.393   8.687  11.984  0.00  0.00    +0.000 A 
ATOM      8 CL   UNL     1      47.183  10.157  12.426  0.00  0.00    +0.000 Cl
BRANCH   4   9
ATOM      9  N   UNL     1      44.267   5.195  10.938  0.00  0.00    +0.000 N 
ATOM     10  C   UNL     1      43.170   4.655  11.758  0.00  0.00    +0.000 C 
ATOM     11  C   UNL     1      43.419   3.166  12.083  0.00  0.00    +0.000 C 
ATOM     12  N   UNL     1      43.654   2.336  10.881  0.00  0.00    +0.000 NA
ATOM     13  C   UNL     1      44.780   2.918  10.119  0.00  0.00    +0.000 C 
ATOM     14  C   UNL     1      44.588   4.408   9.739  0.00  0.00    +0.000 C 
ATOM     15  H   UNL     1      42.819   2.387  10.297  0.00  0.00    +0.000 HD
ENDBRANCH   4   9
ENDBRANCH   1   2
BRANCH   1  16
ATOM     16  C   UNL     1      49.080   6.716  13.084  0.00  0.00    +0.000 C 
BRANCH  16  17
ATOM     17  O   UNL     1      48.851   7.563  14.221  0.00  0.00    +0.000 OA
BRANCH  17  22
ATOM     18  C   UNL     1      48.098   4.889  16.468  0.00  0.00    +0.000 A 
ATOM     19  C   UNL     1      48.316   5.448  17.719  0.00  0.00    +0.000 A 
ATOM     20  C   UNL     1      48.740   6.773  17.774  0.00  0.00    +0.000 A 
ATOM     21  C   UNL     1      48.918   7.483  16.585  0.00  0.00    +0.000 A 
ATOM     22  C   UNL     1      48.669   6.837  15.383  0.00  0.00    +0.000 A 
ATOM     23  N   UNL     1      48.268   5.554  15.296  0.00  0.00    +0.000 NA
BRANCH  18  25
ATOM     24  N   UNL     1      47.007   2.965  17.451  0.00  0.00    +0.000 N 
ATOM     25  C   UNL     1      47.644   3.468  16.346  0.00  0.00    +0.000 C 
ATOM     26  O   UNL     1      47.823   2.799  15.338  0.00  0.00    +0.000 OA
ATOM     27  H   UNL     1      46.679   2.010  17.447  0.00  0.00    +0.000 HD
ATOM     28  H   UNL     1      46.881   3.552  18.266  0.00  0.00    +0.000 HD
ENDBRANCH  18  25
ENDBRANCH  17  22
ENDBRANCH  16  17
ENDBRANCH   1  16
TORSDOF 6
ENDMDL
MODEL 2
REMARK VINA RESULT:    -6.775      1.806      2.303
REMARK INTER + INTRA:         -10.151
REMARK INTER:                  -9.226
REMARK INTRA:                  -0.925
REMARK UNBOUND:                -0.999
REMARK  Name = 
REMARK  6 active torsions:
REMARK  status: ('A' for Active; 'I' for Inactive)
REMARK    1  A    between atoms: C_2  and  C_4
REMARK    2  A    between atoms: C_8  and  O_9
REMARK    3  A    between atoms: O_9  and  C_10
REMARK    4  A    between atoms: C_10  and  C_11
REMARK    5  A    between atoms: C_11  and  C_12
REMARK    6  A    between atoms: C_14  and  N_15
REMARK                            x       y       z     vdW  Elec       q    Type
REMARK                         _______ _______ _______ _____ _____    ______ ____
ROOT
ATOM      1  C   UNL     1      49.112   7.217  14.376  0.00  0.00    +0.000 C 
ENDROOT
BRANCH   1   2
ATOM      2  C   UNL     1      47.765   7.387  13.705  0.00  0.00    +0.000 A 
ATOM      3  C   UNL     1      46.926   6.259  13.557  0.00  0.00    +0.000 A 
ATOM      4  C   UNL     1      45.671   6.321  12.923  0.00  0.00    +0.000 A 
ATOM      5  C   UNL     1      45.263   7.578  12.461  0.00  0.00    +0.000 A 
ATOM      6  C   UNL     1      46.059   8.716  12.618  0.00  0.00    +0.000 A 
ATOM      7  C   UNL     1      47.305   8.623  13.236  0.00  0.00    +0.000 A 
ATOM      8 CL   UNL     1      48.229  10.073  13.396  0.00  0.00    +0.000 Cl
BRANCH   4   9
ATOM      9  N   UNL     1      44.879   5.203  12.764  0.00  0.00    +0.000 N 
ATOM     10  C   UNL     1      45.430   3.882  12.420  0.00  0.00    +0.000 C 
ATOM     11  C   UNL     1      44.713   3.303  11.181  0.00  0.00    +0.000 C 
ATOM     12  N   UNL     1      43.241   3.252  11.326  0.00  0.00    +0.000 NA
ATOM     13  C   UNL     1      42.753   4.611  11.647  0.00  0.00    +0.000 C 
ATOM     14  C   UNL     1      43.416   5.247  12.895  0.00  0.00    +0.000 C 
ATOM     15  H   UNL     1      43.025   2.646  12.117  0.00  0.00    +0.000 HD
ENDBRANCH   4   9
ENDBRANCH   1   2
BRANCH   1  16
ATOM     16  C   UNL     1      49.120   7.770  15.800  0.00  0.00    +0.000 C 
BRANCH  16  17
ATOM     17  O   UNL     1      49.973   6.965  16.628  0.00  0.00    +0.000 OA
BRANCH  17  22
ATOM     18  C   UNL     1      49.218   3.527  17.243  0.00  0.00    +0.000 A 
ATOM     19  C   UNL     1      48.037   3.582  17.968  0.00  0.00    +0.000 A 
ATOM     20  C   UNL     1      47.505   4.836  18.252  0.00  0.00    +0.000 A 
ATOM     21  C   UNL     1      48.166   5.978  17.793  0.00  0.00    +0.000 A 
ATOM     22  C   UNL     1      49.339   5.820  17.071  0.00  0.00    +0.000 A 
ATOM     23  N   UNL     1      49.885   4.621  16.790  0.00  0.00    +0.000 NA
BRANCH  18  25
ATOM     24  N   UNL     1      50.797   1.778  17.794  0.00  0.00    +0.000 N 
ATOM     25  C   UNL     1      49.839   2.206  16.911  0.00  0.00    +0.000 C 
ATOM     26  O   UNL     1      49.521   1.551  15.929  0.00  0.00    +0.000 OA
ATOM     27  H   UNL     1      51.268   0.899  17.632  0.00  0.00    +0.000 HD
ATOM     28  H   UNL     1      51.033   2.353  18.593  0.00  0.00    +0.000 HD
ENDBRANCH  18  25
ENDBRANCH  17  22
ENDBRANCH  16  17
ENDBRANCH   1  16
TORSDOF 6
ENDMDL
MODEL 3
REMARK VINA RESULT:    -6.461      2.205      6.643
REMARK INTER + INTRA:          -9.727
REMARK INTER:                  -8.886
REMARK INTRA:                  -0.841
REMARK UNBOUND:                -0.999
REMARK  Name = 
REMARK  6 active torsions:
REMARK  status: ('A' for Active; 'I' for Inactive)
REMARK    1  A    between atoms: C_2  and  C_4
REMARK    2  A    between atoms: C_8  and  O_9
REMARK    3  A    between atoms: O_9  and  C_10
REMARK    4  A    between atoms: C_10  and  C_11
REMARK    5  A    between atoms: C_11  and  C_12
REMARK    6  A    between atoms: C_14  and  N_15
REMARK                            x       y       z     vdW  Elec       q    Type
REMARK                         _______ _______ _______ _____ _____    ______ ____
ROOT
ATOM      1  C   UNL     1      47.179   6.807  12.163  0.00  0.00    +0.000 C 
ENDROOT
BRANCH   1   2
ATOM      2  C   UNL     1      48.149   6.868  13.324  0.00  0.00    +0.000 A 
ATOM      3  C   UNL     1      47.877   6.106  14.484  0.00  0.00    +0.000 A 
ATOM      4  C   UNL     1      48.708   6.123  15.620  0.00  0.00    +0.000 A 
ATOM      5  C   UNL     1      49.858   6.917  15.543  0.00  0.00    +0.000 A 
ATOM      6  C   UNL     1      50.168   7.659  14.399  0.00  0.00    +0.000 A 
ATOM      7  C   UNL     1      49.318   7.636  13.295  0.00  0.00    +0.000 A 
ATOM      8 CL   UNL     1      49.769   8.575  11.918  0.00  0.00    +0.000 Cl
BRANCH   4   9
ATOM      9  N   UNL     1      48.410   5.393  16.752  0.00  0.00    +0.000 N 
ATOM     10  C   UNL     1      49.098   5.605  18.036  0.00  0.00    +0.000 C 
ATOM     11  C   UNL     1      49.664   4.272  18.573  0.00  0.00    +0.000 C 
ATOM     12  N   UNL     1      48.646   3.203  18.675  0.00  0.00    +0.000 NA
ATOM     13  C   UNL     1      48.013   3.026  17.350  0.00  0.00    +0.000 C 
ATOM     14  C   UNL     1      47.404   4.323  16.759  0.00  0.00    +0.000 C 
ATOM     15  H   UNL     1      47.927   3.516  19.327  0.00  0.00    +0.000 HD
ENDBRANCH   4   9
ENDBRANCH   1   2
BRANCH   1  16
ATOM     16  C   UNL     1      45.807   7.370  12.528  0.00  0.00    +0.000 C 
BRANCH  16  17
ATOM     17  O   UNL     1      44.870   7.080  11.480  0.00  0.00    +0.000 OA
BRANCH  17  22
ATOM     18  C   UNL     1      44.253   3.709  10.469  0.00  0.00    +0.000 A 
ATOM     19  C   UNL     1      43.629   3.150  11.575  0.00  0.00    +0.000 A 
ATOM     20  C   UNL     1      43.430   3.961  12.688  0.00  0.00    +0.000 A 
ATOM     21  C   UNL     1      43.852   5.292  12.648  0.00  0.00    +0.000 A 
ATOM     22  C   UNL     1      44.463   5.759  11.495  0.00  0.00    +0.000 A 
ATOM     23  N   UNL     1      44.680   4.997  10.404  0.00  0.00    +0.000 NA
BRANCH  18  25
ATOM     24  N   UNL     1      44.314   3.544   8.055  0.00  0.00    +0.000 N 
ATOM     25  C   UNL     1      44.497   2.884   9.244  0.00  0.00    +0.000 C 
ATOM     26  O   UNL     1      44.838   1.711   9.290  0.00  0.00    +0.000 OA
ATOM     27  H   UNL     1      44.452   3.051   7.184  0.00  0.00    +0.000 HD
ATOM     28  H   UNL     1      44.029   4.515   8.061  0.00  0.00    +0.000 HD
ENDBRANCH  18  25
ENDBRANCH  17  22
ENDBRANCH  16  17
ENDBRANCH   1  16
TORSDOF 6
ENDMDL
MODEL 4
REMARK VINA RESULT:    -6.432      3.490      8.173
REMARK INTER + INTRA:          -9.688
REMARK INTER:                  -9.003
REMARK INTRA:                  -0.685
REMARK UNBOUND:                -0.999
REMARK  Name = 
REMARK  6 active torsions:
REMARK  status: ('A' for Active; 'I' for Inactive)
REMARK    1  A    between atoms: C_2  and  C_4
REMARK    2  A    between atoms: C_8  and  O_9
REMARK    3  A    between atoms: O_9  and  C_10
REMARK    4  A    between atoms: C_10  and  C_11
REMARK    5  A    between atoms: C_11  and  C_12
REMARK    6  A    between atoms: C_14  and  N_15
REMARK                            x       y       z     vdW  Elec       q    Type
REMARK                         _______ _______ _______ _____ _____    ______ ____
ROOT
ATOM      1  C   UNL     1      48.323   2.851  16.799  0.00  0.00    +0.000 C 
ENDROOT
BRANCH   1   2
ATOM      2  C   UNL     1      49.400   3.746  17.375  0.00  0.00    +0.000 A 
ATOM      3  C   UNL     1      49.083   5.089  17.684  0.00  0.00    +0.000 A 
ATOM      4  C   UNL     1      50.027   5.997  18.197  0.00  0.00    +0.000 A 
ATOM      5  C   UNL     1      51.316   5.500  18.425  0.00  0.00    +0.000 A 
ATOM      6  C   UNL     1      51.651   4.170  18.155  0.00  0.00    +0.000 A 
ATOM      7  C   UNL     1      50.700   3.296  17.632  0.00  0.00    +0.000 A 
ATOM      8 CL   UNL     1      51.189   1.669  17.328  0.00  0.00    +0.000 Cl
BRANCH   4   9
ATOM      9  N   UNL     1      49.703   7.311  18.467  0.00  0.00    +0.000 N 
ATOM     10  C   UNL     1      50.375   8.094  19.517  0.00  0.00    +0.000 C 
ATOM     11  C   UNL     1      49.336   8.716  20.475  0.00  0.00    +0.000 C 
ATOM     12  N   UNL     1      48.304   9.518  19.780  0.00  0.00    +0.000 NA
ATOM     13  C   UNL     1      47.655   8.667  18.759  0.00  0.00    +0.000 C 
ATOM     14  C   UNL     1      48.639   8.025  17.748  0.00  0.00    +0.000 C 
ATOM     15  H   UNL     1      48.774  10.284  19.298  0.00  0.00    +0.000 HD
ENDBRANCH   4   9
ENDBRANCH   1   2
BRANCH   1  16
ATOM     16  C   UNL     1      47.378   3.612  15.871  0.00  0.00    +0.000 C 
BRANCH  16  17
ATOM     17  O   UNL     1      47.484   3.090  14.538  0.00  0.00    +0.000 OA
BRANCH  17  22
ATOM     18  C   UNL     1      45.107   3.866  11.986  0.00  0.00    +0.000 A 
ATOM     19  C   UNL     1      45.201   5.245  11.866  0.00  0.00    +0.000 A 
ATOM     20  C   UNL     1      46.101   5.910  12.695  0.00  0.00    +0.000 A 
ATOM     21  C   UNL     1      46.872   5.173  13.596  0.00  0.00    +0.000 A 
ATOM     22  C   UNL     1      46.708   3.796  13.638  0.00  0.00    +0.000 A 
ATOM     23  N   UNL     1      45.839   3.125  12.858  0.00  0.00    +0.000 NA
BRANCH  18  25
ATOM     24  N   UNL     1      44.734   2.415  10.085  0.00  0.00    +0.000 N 
ATOM     25  C   UNL     1      44.155   3.097  11.124  0.00  0.00    +0.000 C 
ATOM     26  O   UNL     1      42.949   3.071  11.326  0.00  0.00    +0.000 OA
ATOM     27  H   UNL     1      44.154   1.880   9.454  0.00  0.00    +0.000 HD
ATOM     28  H   UNL     1      45.736   2.465   9.951  0.00  0.00    +0.000 HD
ENDBRANCH  18  25
ENDBRANCH  17  22
ENDBRANCH  16  17
ENDBRANCH   1  16
TORSDOF 6
ENDMDL
MODEL 5
REMARK VINA RESULT:    -6.361      2.020      6.576
REMARK INTER + INTRA:          -9.592
REMARK INTER:                  -8.883
REMARK INTRA:                  -0.709
REMARK UNBOUND:                -0.999
REMARK  Name = 
REMARK  6 active torsions:
REMARK  status: ('A' for Active; 'I' for Inactive)
REMARK    1  A    between atoms: C_2  and  C_4
REMARK    2  A    between atoms: C_8  and  O_9
REMARK    3  A    between atoms: O_9  and  C_10
REMARK    4  A    between atoms: C_10  and  C_11
REMARK    5  A    between atoms: C_11  and  C_12
REMARK    6  A    between atoms: C_14  and  N_15
REMARK                            x       y       z     vdW  Elec       q    Type
REMARK                         _______ _______ _______ _____ _____    ______ ____
ROOT
ATOM      1  C   UNL     1      48.362   7.414  12.421  0.00  0.00    +0.000 C 
ENDROOT
BRANCH   1   2
ATOM      2  C   UNL     1      49.027   7.204  13.765  0.00  0.00    +0.000 A 
ATOM      3  C   UNL     1      48.381   6.397  14.730  0.00  0.00    +0.000 A 
ATOM      4  C   UNL     1      48.913   6.170  16.013  0.00  0.00    +0.000 A 
ATOM      5  C   UNL     1      50.150   6.763  16.293  0.00  0.00    +0.000 A 
ATOM      6  C   UNL     1      50.824   7.543  15.349  0.00  0.00    +0.000 A 
ATOM      7  C   UNL     1      50.267   7.764  14.092  0.00  0.00    +0.000 A 
ATOM      8 CL   UNL     1      51.161   8.736  12.980  0.00  0.00    +0.000 Cl
BRANCH   4   9
ATOM      9  N   UNL     1      48.254   5.400  16.950  0.00  0.00    +0.000 N 
ATOM     10  C   UNL     1      48.444   5.579  18.398  0.00  0.00    +0.000 C 
ATOM     11  C   UNL     1      48.816   4.236  19.065  0.00  0.00    +0.000 C 
ATOM     12  N   UNL     1      47.850   3.152  18.776  0.00  0.00    +0.000 NA
ATOM     13  C   UNL     1      47.725   3.011  17.309  0.00  0.00    +0.000 C 
ATOM     14  C   UNL     1      47.332   4.319  16.575  0.00  0.00    +0.000 C 
ATOM     15  H   UNL     1      46.941   3.435  19.142  0.00  0.00    +0.000 HD
ENDBRANCH   4   9
ENDBRANCH   1   2
BRANCH   1  16
ATOM     16  C   UNL     1      47.059   6.627  12.294  0.00  0.00    +0.000 C 
BRANCH  16  17
ATOM     17  O   UNL     1      46.543   6.758  10.961  0.00  0.00    +0.000 OA
BRANCH  17  22
ATOM     18  C   UNL     1      44.462   3.856  11.073  0.00  0.00    +0.000 A 
ATOM     19  C   UNL     1      44.397   3.455   9.747  0.00  0.00    +0.000 A 
ATOM     20  C   UNL     1      45.083   4.214   8.803  0.00  0.00    +0.000 A 
ATOM     21  C   UNL     1      45.808   5.331   9.222  0.00  0.00    +0.000 A 
ATOM     22  C   UNL     1      45.816   5.649  10.572  0.00  0.00    +0.000 A 
ATOM     23  N   UNL     1      45.155   4.941  11.508  0.00  0.00    +0.000 NA
BRANCH  18  25
ATOM     24  N   UNL     1      43.279   1.852  11.737  0.00  0.00    +0.000 N 
ATOM     25  C   UNL     1      43.743   3.080  12.132  0.00  0.00    +0.000 C 
ATOM     26  O   UNL     1      43.580   3.502  13.268  0.00  0.00    +0.000 OA
ATOM     27  H   UNL     1      42.775   1.273  12.394  0.00  0.00    +0.000 HD
ATOM     28  H   UNL     1      43.433   1.541  10.786  0.00  0.00    +0.000 HD
ENDBRANCH  18  25
ENDBRANCH  17  22
ENDBRANCH  16  17
ENDBRANCH   1  16
TORSDOF 6
ENDMDL
MODEL 6
REMARK VINA RESULT:    -6.307      4.210      7.413
REMARK INTER + INTRA:          -9.518
REMARK INTER:                  -9.115
REMARK INTRA:                  -0.403
REMARK UNBOUND:                -0.999
REMARK  Name = 
REMARK  6 active torsions:
REMARK  status: ('A' for Active; 'I' for Inactive)
REMARK    1  A    between atoms: C_2  and  C_4
REMARK    2  A    between atoms: C_8  and  O_9
REMARK    3  A    between atoms: O_9  and  C_10
REMARK    4  A    between atoms: C_10  and  C_11
REMARK    5  A    between atoms: C_11  and  C_12
REMARK    6  A    between atoms: C_14  and  N_15
REMARK                            x       y       z     vdW  Elec       q    Type
REMARK                         _______ _______ _______ _____ _____    ______ ____
ROOT
ATOM      1  C   UNL     1      44.969   4.753  11.336  0.00  0.00    +0.000 C 
ENDROOT
BRANCH   1   2
ATOM      2  C   UNL     1      45.414   6.080  11.911  0.00  0.00    +0.000 A 
ATOM      3  C   UNL     1      44.776   7.264  11.476  0.00  0.00    +0.000 A 
ATOM      4  C   UNL     1      45.143   8.542  11.938  0.00  0.00    +0.000 A 
ATOM      5  C   UNL     1      46.168   8.594  12.890  0.00  0.00    +0.000 A 
ATOM      6  C   UNL     1      46.798   7.438  13.359  0.00  0.00    +0.000 A 
ATOM      7  C   UNL     1      46.425   6.187  12.873  0.00  0.00    +0.000 A 
ATOM      8 CL   UNL     1      47.248   4.805  13.503  0.00  0.00    +0.000 Cl
BRANCH   4   9
ATOM      9  N   UNL     1      44.525   9.688  11.480  0.00  0.00    +0.000 N 
ATOM     10  C   UNL     1      43.273   9.659  10.708  0.00  0.00    +0.000 C 
ATOM     11  C   UNL     1      43.431  10.451   9.391  0.00  0.00    +0.000 C 
ATOM     12  N   UNL     1      43.909  11.837   9.596  0.00  0.00    +0.000 NA
ATOM     13  C   UNL     1      45.177  11.792  10.355  0.00  0.00    +0.000 C 
ATOM     14  C   UNL     1      45.086  11.028  11.701  0.00  0.00    +0.000 C 
ATOM     15  H   UNL     1      43.219  12.326  10.167  0.00  0.00    +0.000 HD
ENDBRANCH   4   9
ENDBRANCH   1   2
BRANCH   1  16
ATOM     16  C   UNL     1      43.697   4.885  10.499  0.00  0.00    +0.000 C 
BRANCH  16  17
ATOM     17  O   UNL     1      44.030   4.850   9.103  0.00  0.00    +0.000 OA
BRANCH  17  22
ATOM     18  C   UNL     1      46.373   2.634   7.565  0.00  0.00    +0.000 A 
ATOM     19  C   UNL     1      46.055   1.400   8.112  0.00  0.00    +0.000 A 
ATOM     20  C   UNL     1      45.015   1.345   9.035  0.00  0.00    +0.000 A 
ATOM     21  C   UNL     1      44.333   2.518   9.365  0.00  0.00    +0.000 A 
ATOM     22  C   UNL     1      44.722   3.704   8.761  0.00  0.00    +0.000 A 
ATOM     23  N   UNL     1      45.731   3.792   7.872  0.00  0.00    +0.000 NA
BRANCH  18  25
ATOM     24  N   UNL     1      47.199   3.524   5.472  0.00  0.00    +0.000 N 
ATOM     25  C   UNL     1      47.485   2.755   6.570  0.00  0.00    +0.000 C 
ATOM     26  O   UNL     1      48.572   2.215   6.720  0.00  0.00    +0.000 OA
ATOM     27  H   UNL     1      47.896   3.646   4.751  0.00  0.00    +0.000 HD
ATOM     28  H   UNL     1      46.285   3.952   5.385  0.00  0.00    +0.000 HD
ENDBRANCH  18  25
ENDBRANCH  17  22
ENDBRANCH  16  17
ENDBRANCH   1  16
TORSDOF 6
ENDMDL
MODEL 7
REMARK VINA RESULT:    -6.150      2.987      4.830
REMARK INTER + INTRA:          -9.306
REMARK INTER:                  -8.613
REMARK INTRA:                  -0.694
REMARK UNBOUND:                -0.999
REMARK  Name = 
REMARK  6 active torsions:
REMARK  status: ('A' for Active; 'I' for Inactive)
REMARK    1  A    between atoms: C_2  and  C_4
REMARK    2  A    between atoms: C_8  and  O_9
REMARK    3  A    between atoms: O_9  and  C_10
REMARK    4  A    between atoms: C_10  and  C_11
REMARK    5  A    between atoms: C_11  and  C_12
REMARK    6  A    between atoms: C_14  and  N_15
REMARK                            x       y       z     vdW  Elec       q    Type
REMARK                         _______ _______ _______ _____ _____    ______ ____
ROOT
ATOM      1  C   UNL     1      46.078   3.588  13.054  0.00  0.00    +0.000 C 
ENDROOT
BRANCH   1   2
ATOM      2  C   UNL     1      45.334   4.750  12.430  0.00  0.00    +0.000 A 
ATOM      3  C   UNL     1      45.736   6.069  12.743  0.00  0.00    +0.000 A 
ATOM      4  C   UNL     1      45.085   7.206  12.231  0.00  0.00    +0.000 A 
ATOM      5  C   UNL     1      44.018   6.976  11.354  0.00  0.00    +0.000 A 
ATOM      6  C   UNL     1      43.616   5.684  11.005  0.00  0.00    +0.000 A 
ATOM      7  C   UNL     1      44.268   4.575  11.540  0.00  0.00    +0.000 A 
ATOM      8 CL   UNL     1      43.716   3.012  11.059  0.00  0.00    +0.000 Cl
BRANCH   4   9
ATOM      9  N   UNL     1      45.477   8.485  12.570  0.00  0.00    +0.000 N 
ATOM     10  C   UNL     1      44.707   9.679  12.184  0.00  0.00    +0.000 C 
ATOM     11  C   UNL     1      45.614  10.697  11.460  0.00  0.00    +0.000 C 
ATOM     12  N   UNL     1      46.822  11.060  12.235  0.00  0.00    +0.000 NA
ATOM     13  C   UNL     1      47.558   9.821  12.568  0.00  0.00    +0.000 C 
ATOM     14  C   UNL     1      46.712   8.760  13.316  0.00  0.00    +0.000 C 
ATOM     15  H   UNL     1      46.517  11.488  13.110  0.00  0.00    +0.000 HD
ENDBRANCH   4   9
ENDBRANCH   1   2
BRANCH   1  16
ATOM     16  C   UNL     1      46.947   4.027  14.232  0.00  0.00    +0.000 C 
BRANCH  16  17
ATOM     17  O   UNL     1      47.584   2.880  14.816  0.00  0.00    +0.000 OA
BRANCH  17  22
ATOM     18  C   UNL     1      48.303   4.486  17.926  0.00  0.00    +0.000 A 
ATOM     19  C   UNL     1      49.298   3.691  18.476  0.00  0.00    +0.000 A 
ATOM     20  C   UNL     1      49.715   2.577  17.753  0.00  0.00    +0.000 A 
ATOM     21  C   UNL     1      49.131   2.310  16.514  0.00  0.00    +0.000 A 
ATOM     22  C   UNL     1      48.146   3.166  16.046  0.00  0.00    +0.000 A 
ATOM     23  N   UNL     1      47.712   4.246  16.726  0.00  0.00    +0.000 NA
BRANCH  18  25
ATOM     24  N   UNL     1      46.465   5.707  18.920  0.00  0.00    +0.000 N 
ATOM     25  C   UNL     1      47.811   5.695  18.659  0.00  0.00    +0.000 C 
ATOM     26  O   UNL     1      48.548   6.606  19.006  0.00  0.00    +0.000 OA
ATOM     27  H   UNL     1      46.057   6.494  19.404  0.00  0.00    +0.000 HD
ATOM     28  H   UNL     1      45.889   4.932  18.614  0.00  0.00    +0.000 HD
ENDBRANCH  18  25
ENDBRANCH  17  22
ENDBRANCH  16  17
ENDBRANCH   1  16
TORSDOF 6
ENDMDL
MODEL 8
REMARK VINA RESULT:    -5.667      3.947      7.490
REMARK INTER + INTRA:          -8.654
REMARK INTER:                  -7.866
REMARK INTRA:                  -0.789
REMARK UNBOUND:                -0.999
REMARK  Name = 
REMARK  6 active torsions:
REMARK  status: ('A' for Active; 'I' for Inactive)
REMARK    1  A    between atoms: C_2  and  C_4
REMARK    2  A    between atoms: C_8  and  O_9
REMARK    3  A    between atoms: O_9  and  C_10
REMARK    4  A    between atoms: C_10  and  C_11
REMARK    5  A    between atoms: C_11  and  C_12
REMARK    6  A    between atoms: C_14  and  N_15
REMARK                            x       y       z     vdW  Elec       q    Type
REMARK                         _______ _______ _______ _____ _____    ______ ____
ROOT
ATOM      1  C   UNL     1      45.346   7.607  12.842  0.00  0.00    +0.000 C 
ENDROOT
BRANCH   1   2
ATOM      2  C   UNL     1      46.821   7.796  12.556  0.00  0.00    +0.000 A 
ATOM      3  C   UNL     1      47.274   9.052  12.090  0.00  0.00    +0.000 A 
ATOM      4  C   UNL     1      48.621   9.308  11.775  0.00  0.00    +0.000 A 
ATOM      5  C   UNL     1      49.522   8.255  11.975  0.00  0.00    +0.000 A 
ATOM      6  C   UNL     1      49.108   7.012  12.461  0.00  0.00    +0.000 A 
ATOM      7  C   UNL     1      47.765   6.781  12.750  0.00  0.00    +0.000 A 
ATOM      8 CL   UNL     1      47.332   5.221  13.349  0.00  0.00    +0.000 Cl
BRANCH   4   9
ATOM      9  N   UNL     1      49.038  10.532  11.295  0.00  0.00    +0.000 N 
ATOM     10  C   UNL     1      48.102  11.534  10.759  0.00  0.00    +0.000 C 
ATOM     11  C   UNL     1      48.543  11.985   9.349  0.00  0.00    +0.000 C 
ATOM     12  N   UNL     1      49.940  12.470   9.300  0.00  0.00    +0.000 NA
ATOM     13  C   UNL     1      50.826  11.410   9.829  0.00  0.00    +0.000 C 
ATOM     14  C   UNL     1      50.454  10.923  11.252  0.00  0.00    +0.000 C 
ATOM     15  H   UNL     1      50.014  13.278   9.918  0.00  0.00    +0.000 HD
ENDBRANCH   4   9
ENDBRANCH   1   2
BRANCH   1  16
ATOM     16  C   UNL     1      44.585   7.092  11.622  0.00  0.00    +0.000 C 
BRANCH  16  17
ATOM     17  O   UNL     1      45.516   6.659  10.618  0.00  0.00    +0.000 OA
BRANCH  17  22
ATOM     18  C   UNL     1      45.533   3.688   8.633  0.00  0.00    +0.000 A 
ATOM     19  C   UNL     1      44.620   2.865   9.277  0.00  0.00    +0.000 A 
ATOM     20  C   UNL     1      43.998   3.354  10.423  0.00  0.00    +0.000 A 
ATOM     21  C   UNL     1      44.306   4.641  10.870  0.00  0.00    +0.000 A 
ATOM     22  C   UNL     1      45.230   5.388  10.155  0.00  0.00    +0.000 A 
ATOM     23  N   UNL     1      45.856   4.940   9.049  0.00  0.00    +0.000 NA
BRANCH  18  25
ATOM     24  N   UNL     1      46.650   1.909   7.432  0.00  0.00    +0.000 N 
ATOM     25  C   UNL     1      46.235   3.215   7.399  0.00  0.00    +0.000 C 
ATOM     26  O   UNL     1      46.424   3.933   6.427  0.00  0.00    +0.000 OA
ATOM     27  H   UNL     1      47.140   1.520   6.638  0.00  0.00    +0.000 HD
ATOM     28  H   UNL     1      46.475   1.349   8.257  0.00  0.00    +0.000 HD
ENDBRANCH  18  25
ENDBRANCH  17  22
ENDBRANCH  16  17
ENDBRANCH   1  16
TORSDOF 6
ENDMDL
MODEL 9
REMARK VINA RESULT:    -5.654      2.523      6.619
REMARK INTER + INTRA:          -8.636
REMARK INTER:                  -7.735
REMARK INTRA:                  -0.901
REMARK UNBOUND:                -0.999
REMARK  Name = 
REMARK  6 active torsions:
REMARK  status: ('A' for Active; 'I' for Inactive)
REMARK    1  A    between atoms: C_2  and  C_4
REMARK    2  A    between atoms: C_8  and  O_9
REMARK    3  A    between atoms: O_9  and  C_10
REMARK    4  A    between atoms: C_10  and  C_11
REMARK    5  A    between atoms: C_11  and  C_12
REMARK    6  A    between atoms: C_14  and  N_15
REMARK                            x       y       z     vdW  Elec       q    Type
REMARK                         _______ _______ _______ _____ _____    ______ ____
ROOT
ATOM      1  C   UNL     1      49.236   8.908  16.702  0.00  0.00    +0.000 C 
ENDROOT
BRANCH   1   2
ATOM      2  C   UNL     1      48.792   7.902  17.743  0.00  0.00    +0.000 A 
ATOM      3  C   UNL     1      49.276   6.576  17.664  0.00  0.00    +0.000 A 
ATOM      4  C   UNL     1      48.896   5.570  18.572  0.00  0.00    +0.000 A 
ATOM      5  C   UNL     1      48.023   5.950  19.598  0.00  0.00    +0.000 A 
ATOM      6  C   UNL     1      47.549   7.259  19.717  0.00  0.00    +0.000 A 
ATOM      7  C   UNL     1      47.930   8.232  18.795  0.00  0.00    +0.000 A 
ATOM      8 CL   UNL     1      47.307   9.827  19.011  0.00  0.00    +0.000 Cl
BRANCH   4   9
ATOM      9  N   UNL     1      49.359   4.275  18.461  0.00  0.00    +0.000 N 
ATOM     10  C   UNL     1      50.779   3.924  18.624  0.00  0.00    +0.000 C 
ATOM     11  C   UNL     1      51.280   3.117  17.406  0.00  0.00    +0.000 C 
ATOM     12  N   UNL     1      50.457   1.920  17.118  0.00  0.00    +0.000 NA
ATOM     13  C   UNL     1      49.051   2.346  16.943  0.00  0.00    +0.000 C 
ATOM     14  C   UNL     1      48.475   3.146  18.140  0.00  0.00    +0.000 C 
ATOM     15  H   UNL     1      50.500   1.307  17.932  0.00  0.00    +0.000 HD
ENDBRANCH   4   9
ENDBRANCH   1   2
BRANCH   1  16
ATOM     16  C   UNL     1      48.442   8.782  15.403  0.00  0.00    +0.000 C 
BRANCH  16  17
ATOM     17  O   UNL     1      49.063   7.809  14.550  0.00  0.00    +0.000 OA
BRANCH  17  22
ATOM     18  C   UNL     1      46.957   5.257  13.201  0.00  0.00    +0.000 A 
ATOM     19  C   UNL     1      46.319   5.891  12.145  0.00  0.00    +0.000 A 
ATOM     20  C   UNL     1      46.623   7.228  11.909  0.00  0.00    +0.000 A 
ATOM     21  C   UNL     1      47.555   7.871  12.727  0.00  0.00    +0.000 A 
ATOM     22  C   UNL     1      48.143   7.150  13.755  0.00  0.00    +0.000 A 
ATOM     23  N   UNL     1      47.863   5.859  14.016  0.00  0.00    +0.000 NA
BRANCH  18  25
ATOM     24  N   UNL     1      45.537   3.319  12.914  0.00  0.00    +0.000 N 
ATOM     25  C   UNL     1      46.668   3.820  13.505  0.00  0.00    +0.000 C 
ATOM     26  O   UNL     1      47.383   3.136  14.223  0.00  0.00    +0.000 OA
ATOM     27  H   UNL     1      45.270   2.358  13.079  0.00  0.00    +0.000 HD
ATOM     28  H   UNL     1      44.970   3.920  12.328  0.00  0.00    +0.000 HD
ENDBRANCH  18  25
ENDBRANCH  17  22
ENDBRANCH  16  17
ENDBRANCH   1  16
TORSDOF 6
ENDMDL
