MODEL 1
REMARK VINA RESULT:    -8.024      0.000      0.000
REMARK INTER + INTRA:         -11.488
REMARK INTER:                 -10.369
REMARK INTRA:                  -1.119
REMARK UNBOUND:                -1.119
REMARK  Name = 
REMARK  5 active torsions:
REMARK  status: ('A' for Active; 'I' for Inactive)
REMARK    1  A    between atoms: C_2  and  C_3
REMARK    2  A    between atoms: C_6  and  O_7
REMARK    3  A    between atoms: O_7  and  C_8
REMARK    4  A    between atoms: C_8  and  C_9
REMARK    5  A    between atoms: C_13  and  C_14
REMARK                            x       y       z     vdW  Elec       q    Type
REMARK                         _______ _______ _______ _____ _____    ______ ____
ROOT
ATOM      1  C   UNL     1      43.873   4.905  11.222  0.00  0.00    +0.000 C 
ATOM      2  C   UNL     1      42.499   5.252  11.777  0.00  0.00    +0.000 C 
ATOM      3  C   UNL     1      43.219   6.245  10.931  0.00  0.00    +0.000 C 
ENDROOT
BRANCH   1   4
ATOM      4  C   UNL     1      45.109   4.875  12.094  0.00  0.00    +0.000 A 
ATOM      5  C   UNL     1      45.433   3.746  12.848  0.00  0.00    +0.000 A 
ATOM      6  C   UNL     1      46.654   3.697  13.499  0.00  0.00    +0.000 A 
ATOM      7  N   UNL     1      47.564   4.693  13.471  0.00  0.00    +0.000 NA
ATOM      8  C   UNL     1      47.257   5.810  12.772  0.00  0.00    +0.000 A 
ATOM      9  C   UNL     1      46.049   5.920  12.082  0.00  0.00    +0.000 A 
BRANCH   8  10
ATOM     10  C   UNL     1      48.281   6.870  12.757  0.00  0.00    +0.000 A 
ATOM     11  C   UNL     1      48.492   7.684  11.635  0.00  0.00    +0.000 A 
ATOM     12  C   UNL     1      49.467   8.683  11.649  0.00  0.00    +0.000 A 
ATOM     13  C   UNL     1      50.217   8.849  12.799  0.00  0.00    +0.000 A 
ATOM     14  N   UNL     1      50.058   8.099  13.907  0.00  0.00    +0.000 NA
ATOM     15  C   UNL     1      49.107   7.132  13.853  0.00  0.00    +0.000 A 
ENDBRANCH   8  10
ENDBRANCH   1   4
BRANCH   1  16
ATOM     16  O   UNL     1      43.734   3.779  10.333  0.00  0.00    +0.000 OA
BRANCH  16  20
ATOM     17  C   UNL     1      46.529   2.526   7.545  0.00  0.00    +0.000 A 
ATOM     18  C   UNL     1      46.280   3.899   7.655  0.00  0.00    +0.000 A 
ATOM     19  C   UNL     1      45.377   4.372   8.607  0.00  0.00    +0.000 A 
ATOM     20  C   UNL     1      44.716   3.472   9.438  0.00  0.00    +0.000 A 
ATOM     21  C   UNL     1      45.017   2.109   9.374  0.00  0.00    +0.000 A 
ATOM     22  C   UNL     1      45.917   1.631   8.426  0.00  0.00    +0.000 A 
BRANCH  17  24
ATOM     23  N   UNL     1      48.101   1.621   5.701  0.00  0.00    +0.000 NA
ATOM     24  C   UNL     1      47.390   2.037   6.511  0.00  0.00    +0.000 C 
ENDBRANCH  17  24
ENDBRANCH  16  20
ENDBRANCH   1  16
TORSDOF 5
ENDMDL
MODEL 2
REMARK VINA RESULT:    -7.170      2.078      3.275
REMARK INTER + INTRA:         -10.385
REMARK INTER:                  -9.756
REMARK INTRA:                  -0.629
REMARK UNBOUND:                -1.119
REMARK  Name = 
REMARK  5 active torsions:
REMARK  status: ('A' for Active; 'I' for Inactive)
REMARK    1  A    between atoms: C_2  and  C_3
REMARK    2  A    between atoms: C_6  and  O_7
REMARK    3  A    between atoms: O_7  and  C_8
REMARK    4  A    between atoms: C_8  and  C_9
REMARK    5  A    between atoms: C_13  and  C_14
REMARK                            x       y       z     vdW  Elec       q    Type
REMARK                         _______ _______ _______ _____ _____    ______ ____
ROOT
ATOM      1  C   UNL     1      44.433   5.152  11.811  0.00  0.00    +0.000 C 
ATOM      2  C   UNL     1      43.115   5.384  12.536  0.00  0.00    +0.000 C 
ATOM      3  C   UNL     1      43.541   6.332  11.469  0.00  0.00    +0.000 C 
ENDROOT
BRANCH   1   4
ATOM      4  C   UNL     1      45.771   5.418  12.466  0.00  0.00    +0.000 A 
ATOM      5  C   UNL     1      46.671   6.336  11.924  0.00  0.00    +0.000 A 
ATOM      6  C   UNL     1      47.806   6.672  12.642  0.00  0.00    +0.000 A 
ATOM      7  N   UNL     1      48.121   6.148  13.845  0.00  0.00    +0.000 NA
ATOM      8  C   UNL     1      47.277   5.230  14.375  0.00  0.00    +0.000 A 
ATOM      9  C   UNL     1      46.108   4.857  13.710  0.00  0.00    +0.000 A 
BRANCH   8  10
ATOM     10  C   UNL     1      47.650   4.691  15.694  0.00  0.00    +0.000 A 
ATOM     11  C   UNL     1      47.219   3.429  16.130  0.00  0.00    +0.000 A 
ATOM     12  C   UNL     1      47.590   2.941  17.384  0.00  0.00    +0.000 A 
ATOM     13  C   UNL     1      48.394   3.733  18.184  0.00  0.00    +0.000 A 
ATOM     14  N   UNL     1      48.839   4.951  17.818  0.00  0.00    +0.000 NA
ATOM     15  C   UNL     1      48.450   5.396  16.596  0.00  0.00    +0.000 A 
ENDBRANCH   8  10
ENDBRANCH   1   4
BRANCH   1  16
ATOM     16  O   UNL     1      44.347   3.900  11.100  0.00  0.00    +0.000 OA
BRANCH  16  20
ATOM     17  C   UNL     1      46.155   3.049   7.473  0.00  0.00    +0.000 A 
ATOM     18  C   UNL     1      46.066   4.389   7.864  0.00  0.00    +0.000 A 
ATOM     19  C   UNL     1      45.502   4.723   9.096  0.00  0.00    +0.000 A 
ATOM     20  C   UNL     1      45.017   3.717   9.927  0.00  0.00    +0.000 A 
ATOM     21  C   UNL     1      45.169   2.376   9.566  0.00  0.00    +0.000 A 
ATOM     22  C   UNL     1      45.731   2.037   8.338  0.00  0.00    +0.000 A 
BRANCH  17  24
ATOM     23  N   UNL     1      47.092   2.445   5.138  0.00  0.00    +0.000 NA
ATOM     24  C   UNL     1      46.655   2.716   6.174  0.00  0.00    +0.000 C 
ENDBRANCH  17  24
ENDBRANCH  16  20
ENDBRANCH   1  16
TORSDOF 5
ENDMDL
MODEL 3
REMARK VINA RESULT:    -6.568      2.656      7.103
REMARK INTER + INTRA:          -9.607
REMARK INTER:                  -8.784
REMARK INTRA:                  -0.823
REMARK UNBOUND:                -1.119
REMARK  Name = 
REMARK  5 active torsions:
REMARK  status: ('A' for Active; 'I' for Inactive)
REMARK    1  A    between atoms: C_2  and  C_3
REMARK    2  A    between atoms: C_6  and  O_7
REMARK    3  A    between atoms: O_7  and  C_8
REMARK    4  A    between atoms: C_8  and  C_9
REMARK    5  A    between atoms: C_13  and  C_14
REMARK                            x       y       z     vdW  Elec       q    Type
REMARK                         _______ _______ _______ _____ _____    ______ ____
ROOT
ATOM      1  C   UNL     1      46.155   7.421  12.320  0.00  0.00    +0.000 C 
ATOM      2  C   UNL     1      46.280   8.843  11.791  0.00  0.00    +0.000 C 
ATOM      3  C   UNL     1      45.480   8.587  13.021  0.00  0.00    +0.000 C 
ENDROOT
BRANCH   1   4
ATOM      4  C   UNL     1      45.291   6.381  11.641  0.00  0.00    +0.000 A 
ATOM      5  C   UNL     1      43.903   6.393  11.781  0.00  0.00    +0.000 A 
ATOM      6  C   UNL     1      43.140   5.531  11.012  0.00  0.00    +0.000 A 
ATOM      7  N   UNL     1      43.657   4.647  10.132  0.00  0.00    +0.000 NA
ATOM      8  C   UNL     1      45.003   4.596  10.005  0.00  0.00    +0.000 A 
ATOM      9  C   UNL     1      45.830   5.447  10.739  0.00  0.00    +0.000 A 
BRANCH   8  10
ATOM     10  C   UNL     1      45.528   3.627   9.026  0.00  0.00    +0.000 A 
ATOM     11  C   UNL     1      46.155   4.033   7.840  0.00  0.00    +0.000 A 
ATOM     12  C   UNL     1      46.646   3.093   6.932  0.00  0.00    +0.000 A 
ATOM     13  C   UNL     1      46.498   1.752   7.235  0.00  0.00    +0.000 A 
ATOM     14  N   UNL     1      45.905   1.302   8.358  0.00  0.00    +0.000 NA
ATOM     15  C   UNL     1      45.433   2.246   9.213  0.00  0.00    +0.000 A 
ENDBRANCH   8  10
ENDBRANCH   1   4
BRANCH   1  16
ATOM     16  O   UNL     1      47.468   6.960  12.700  0.00  0.00    +0.000 OA
BRANCH  16  20
ATOM     17  C   UNL     1      48.045   5.079  16.344  0.00  0.00    +0.000 A 
ATOM     18  C   UNL     1      47.213   4.456  15.407  0.00  0.00    +0.000 A 
ATOM     19  C   UNL     1      47.020   5.031  14.150  0.00  0.00    +0.000 A 
ATOM     20  C   UNL     1      47.649   6.232  13.839  0.00  0.00    +0.000 A 
ATOM     21  C   UNL     1      48.534   6.818  14.749  0.00  0.00    +0.000 A 
ATOM     22  C   UNL     1      48.730   6.249  16.004  0.00  0.00    +0.000 A 
BRANCH  17  24
ATOM     23  N   UNL     1      48.307   4.076  18.714  0.00  0.00    +0.000 NA
ATOM     24  C   UNL     1      48.173   4.532  17.661  0.00  0.00    +0.000 C 
ENDBRANCH  17  24
ENDBRANCH  16  20
ENDBRANCH   1  16
TORSDOF 5
ENDMDL
MODEL 4
REMARK VINA RESULT:    -5.967      2.362      7.126
REMARK INTER + INTRA:          -8.831
REMARK INTER:                  -8.077
REMARK INTRA:                  -0.754
REMARK UNBOUND:                -1.119
REMARK  Name = 
REMARK  5 active torsions:
REMARK  status: ('A' for Active; 'I' for Inactive)
REMARK    1  A    between atoms: C_2  and  C_3
REMARK    2  A    between atoms: C_6  and  O_7
REMARK    3  A    between atoms: O_7  and  C_8
REMARK    4  A    between atoms: C_8  and  C_9
REMARK    5  A    between atoms: C_13  and  C_14
REMARK                            x       y       z     vdW  Elec       q    Type
REMARK                         _______ _______ _______ _____ _____    ______ ____
ROOT
ATOM      1  C   UNL     1      45.877   7.828  11.893  0.00  0.00    +0.000 C 
ATOM      2  C   UNL     1      45.460   9.245  11.524  0.00  0.00    +0.000 C 
ATOM      3  C   UNL     1      45.209   8.744  12.904  0.00  0.00    +0.000 C 
ENDROOT
BRANCH   1   4
ATOM      4  C   UNL     1      45.121   6.613  11.402  0.00  0.00    +0.000 A 
ATOM      5  C   UNL     1      43.765   6.443  11.685  0.00  0.00    +0.000 A 
ATOM      6  C   UNL     1      43.074   5.407  11.080  0.00  0.00    +0.000 A 
ATOM      7  N   UNL     1      43.636   4.520  10.232  0.00  0.00    +0.000 NA
ATOM      8  C   UNL     1      44.957   4.647   9.969  0.00  0.00    +0.000 A 
ATOM      9  C   UNL     1      45.710   5.676  10.535  0.00  0.00    +0.000 A 
BRANCH   8  10
ATOM     10  C   UNL     1      45.530   3.666   9.031  0.00  0.00    +0.000 A 
ATOM     11  C   UNL     1      46.201   4.057   7.863  0.00  0.00    +0.000 A 
ATOM     12  C   UNL     1      46.737   3.106   6.994  0.00  0.00    +0.000 A 
ATOM     13  C   UNL     1      46.591   1.769   7.314  0.00  0.00    +0.000 A 
ATOM     14  N   UNL     1      45.958   1.333   8.422  0.00  0.00    +0.000 NA
ATOM     15  C   UNL     1      45.443   2.287   9.239  0.00  0.00    +0.000 A 
ENDBRANCH   8  10
ENDBRANCH   1   4
BRANCH   1  16
ATOM     16  O   UNL     1      47.311   7.733  11.780  0.00  0.00    +0.000 OA
BRANCH  16  20
ATOM     17  C   UNL     1      49.741   7.146  15.083  0.00  0.00    +0.000 A 
ATOM     18  C   UNL     1      48.567   6.389  14.988  0.00  0.00    +0.000 A 
ATOM     19  C   UNL     1      47.737   6.522  13.874  0.00  0.00    +0.000 A 
ATOM     20  C   UNL     1      48.076   7.420  12.866  0.00  0.00    +0.000 A 
ATOM     21  C   UNL     1      49.282   8.123  12.929  0.00  0.00    +0.000 A 
ATOM     22  C   UNL     1      50.113   7.994  14.037  0.00  0.00    +0.000 A 
BRANCH  17  24
ATOM     23  N   UNL     1      51.221   6.997  17.199  0.00  0.00    +0.000 NA
ATOM     24  C   UNL     1      50.545   7.070  16.265  0.00  0.00    +0.000 C 
ENDBRANCH  17  24
ENDBRANCH  16  20
ENDBRANCH   1  16
TORSDOF 5
ENDMDL
MODEL 5
REMARK VINA RESULT:    -5.884      3.585      8.271
REMARK INTER + INTRA:          -8.722
REMARK INTER:                  -7.651
REMARK INTRA:                  -1.072
REMARK UNBOUND:                -1.119
REMARK  Name = 
REMARK  5 active torsions:
REMARK  status: ('A' for Active; 'I' for Inactive)
REMARK    1  A    between atoms: C_2  and  C_3
REMARK    2  A    between atoms: C_6  and  O_7
REMARK    3  A    between atoms: O_7  and  C_8
REMARK    4  A    between atoms: C_8  and  C_9
REMARK    5  A    between atoms: C_13  and  C_14
REMARK                            x       y       z     vdW  Elec       q    Type
REMARK                         _______ _______ _______ _____ _____    ______ ____
ROOT
ATOM      1  C   UNL     1      48.986   7.540  13.697  0.00  0.00    +0.000 C 
ATOM      2  C   UNL     1      50.061   7.612  12.621  0.00  0.00    +0.000 C 
ATOM      3  C   UNL     1      49.765   8.819  13.442  0.00  0.00    +0.000 C 
ENDROOT
BRANCH   1   4
ATOM      4  C   UNL     1      47.511   7.507  13.360  0.00  0.00    +0.000 A 
ATOM      5  C   UNL     1      46.768   8.684  13.256  0.00  0.00    +0.000 A 
ATOM      6  C   UNL     1      45.468   8.621  12.784  0.00  0.00    +0.000 A 
ATOM      7  N   UNL     1      44.849   7.475  12.429  0.00  0.00    +0.000 NA
ATOM      8  C   UNL     1      45.541   6.319  12.554  0.00  0.00    +0.000 A 
ATOM      9  C   UNL     1      46.859   6.312  13.009  0.00  0.00    +0.000 A 
BRANCH   8  10
ATOM     10  C   UNL     1      44.834   5.092  12.145  0.00  0.00    +0.000 A 
ATOM     11  C   UNL     1      44.749   4.694  10.803  0.00  0.00    +0.000 A 
ATOM     12  C   UNL     1      44.076   3.525  10.445  0.00  0.00    +0.000 A 
ATOM     13  C   UNL     1      43.498   2.769  11.448  0.00  0.00    +0.000 A 
ATOM     14  N   UNL     1      43.548   3.100  12.754  0.00  0.00    +0.000 NA
ATOM     15  C   UNL     1      44.204   4.247  13.062  0.00  0.00    +0.000 A 
ENDBRANCH   8  10
ENDBRANCH   1   4
BRANCH   1  16
ATOM     16  O   UNL     1      49.400   6.580  14.690  0.00  0.00    +0.000 OA
BRANCH  16  20
ATOM     17  C   UNL     1      47.974   6.349  18.572  0.00  0.00    +0.000 A 
ATOM     18  C   UNL     1      48.424   7.590  18.110  0.00  0.00    +0.000 A 
ATOM     19  C   UNL     1      48.875   7.727  16.796  0.00  0.00    +0.000 A 
ATOM     20  C   UNL     1      48.888   6.620  15.954  0.00  0.00    +0.000 A 
ATOM     21  C   UNL     1      48.375   5.398  16.394  0.00  0.00    +0.000 A 
ATOM     22  C   UNL     1      47.923   5.256  17.703  0.00  0.00    +0.000 A 
BRANCH  17  24
ATOM     23  N   UNL     1      47.275   6.100  21.050  0.00  0.00    +0.000 NA
ATOM     24  C   UNL     1      47.592   6.192  19.942  0.00  0.00    +0.000 C 
ENDBRANCH  17  24
ENDBRANCH  16  20
ENDBRANCH   1  16
TORSDOF 5
ENDMDL
MODEL 6
REMARK VINA RESULT:    -5.629      3.255      5.826
REMARK INTER + INTRA:          -8.393
REMARK INTER:                  -7.523
REMARK INTRA:                  -0.870
REMARK UNBOUND:                -1.119
REMARK  Name = 
REMARK  5 active torsions:
REMARK  status: ('A' for Active; 'I' for Inactive)
REMARK    1  A    between atoms: C_2  and  C_3
REMARK    2  A    between atoms: C_6  and  O_7
REMARK    3  A    between atoms: O_7  and  C_8
REMARK    4  A    between atoms: C_8  and  C_9
REMARK    5  A    between atoms: C_13  and  C_14
REMARK                            x       y       z     vdW  Elec       q    Type
REMARK                         _______ _______ _______ _____ _____    ______ ____
ROOT
ATOM      1  C   UNL     1      48.314   8.070  12.409  0.00  0.00    +0.000 C 
ATOM      2  C   UNL     1      49.209   8.968  11.567  0.00  0.00    +0.000 C 
ATOM      3  C   UNL     1      49.343   7.488  11.456  0.00  0.00    +0.000 C 
ENDROOT
BRANCH   1   4
ATOM      4  C   UNL     1      48.520   7.895  13.898  0.00  0.00    +0.000 A 
ATOM      5  C   UNL     1      48.623   8.997  14.747  0.00  0.00    +0.000 A 
ATOM      6  C   UNL     1      48.644   8.793  16.117  0.00  0.00    +0.000 A 
ATOM      7  N   UNL     1      48.590   7.577  16.700  0.00  0.00    +0.000 NA
ATOM      8  C   UNL     1      48.523   6.492  15.893  0.00  0.00    +0.000 A 
ATOM      9  C   UNL     1      48.485   6.627  14.505  0.00  0.00    +0.000 A 
BRANCH   8  10
ATOM     10  C   UNL     1      48.455   5.184  16.567  0.00  0.00    +0.000 A 
ATOM     11  C   UNL     1      49.528   4.674  17.311  0.00  0.00    +0.000 A 
ATOM     12  C   UNL     1      49.435   3.433  17.943  0.00  0.00    +0.000 A 
ATOM     13  C   UNL     1      48.256   2.721  17.817  0.00  0.00    +0.000 A 
ATOM     14  N   UNL     1      47.191   3.161  17.118  0.00  0.00    +0.000 NA
ATOM     15  C   UNL     1      47.322   4.368  16.511  0.00  0.00    +0.000 A 
ENDBRANCH   8  10
ENDBRANCH   1   4
BRANCH   1  16
ATOM     16  O   UNL     1      46.945   8.291  12.012  0.00  0.00    +0.000 OA
BRANCH  16  20
ATOM     17  C   UNL     1      44.515   4.952  11.703  0.00  0.00    +0.000 A 
ATOM     18  C   UNL     1      44.367   5.771  12.828  0.00  0.00    +0.000 A 
ATOM     19  C   UNL     1      45.135   6.929  12.957  0.00  0.00    +0.000 A 
ATOM     20  C   UNL     1      46.056   7.258  11.968  0.00  0.00    +0.000 A 
ATOM     21  C   UNL     1      46.154   6.478  10.813  0.00  0.00    +0.000 A 
ATOM     22  C   UNL     1      45.390   5.321  10.679  0.00  0.00    +0.000 A 
BRANCH  17  24
ATOM     23  N   UNL     1      43.232   2.712  11.539  0.00  0.00    +0.000 NA
ATOM     24  C   UNL     1      43.788   3.722  11.615  0.00  0.00    +0.000 C 
ENDBRANCH  17  24
ENDBRANCH  16  20
ENDBRANCH   1  16
TORSDOF 5
ENDMDL
MODEL 7
REMARK VINA RESULT:    -5.519      2.807      4.583
REMARK INTER + INTRA:          -8.251
REMARK INTER:                  -7.377
REMARK INTRA:                  -0.874
REMARK UNBOUND:                -1.119
REMARK  Name = 
REMARK  5 active torsions:
REMARK  status: ('A' for Active; 'I' for Inactive)
REMARK    1  A    between atoms: C_2  and  C_3
REMARK    2  A    between atoms: C_6  and  O_7
REMARK    3  A    between atoms: O_7  and  C_8
REMARK    4  A    between atoms: C_8  and  C_9
REMARK    5  A    between atoms: C_13  and  C_14
REMARK                            x       y       z     vdW  Elec       q    Type
REMARK                         _______ _______ _______ _____ _____    ______ ____
ROOT
ATOM      1  C   UNL     1      46.155   7.784  12.713  0.00  0.00    +0.000 C 
ATOM      2  C   UNL     1      45.539   9.155  12.956  0.00  0.00    +0.000 C 
ATOM      3  C   UNL     1      46.289   8.902  11.693  0.00  0.00    +0.000 C 
ENDROOT
BRANCH   1   4
ATOM      4  C   UNL     1      47.393   7.316  13.445  0.00  0.00    +0.000 A 
ATOM      5  C   UNL     1      48.629   7.931  13.240  0.00  0.00    +0.000 A 
ATOM      6  C   UNL     1      49.697   7.584  14.050  0.00  0.00    +0.000 A 
ATOM      7  N   UNL     1      49.632   6.661  15.031  0.00  0.00    +0.000 NA
ATOM      8  C   UNL     1      48.450   6.029  15.226  0.00  0.00    +0.000 A 
ATOM      9  C   UNL     1      47.330   6.340  14.454  0.00  0.00    +0.000 A 
BRANCH   8  10
ATOM     10  C   UNL     1      48.416   5.036  16.314  0.00  0.00    +0.000 A 
ATOM     11  C   UNL     1      47.328   4.171  16.498  0.00  0.00    +0.000 A 
ATOM     12  C   UNL     1      47.323   3.238  17.535  0.00  0.00    +0.000 A 
ATOM     13  C   UNL     1      48.421   3.186  18.375  0.00  0.00    +0.000 A 
ATOM     14  N   UNL     1      49.496   3.990  18.246  0.00  0.00    +0.000 NA
ATOM     15  C   UNL     1      49.460   4.890  17.231  0.00  0.00    +0.000 A 
ENDBRANCH   8  10
ENDBRANCH   1   4
BRANCH   1  16
ATOM     16  O   UNL     1      45.090   6.813  12.645  0.00  0.00    +0.000 OA
BRANCH  16  20
ATOM     17  C   UNL     1      45.013   3.468  10.205  0.00  0.00    +0.000 A 
ATOM     18  C   UNL     1      45.366   4.693   9.630  0.00  0.00    +0.000 A 
ATOM     19  C   UNL     1      45.446   5.841  10.419  0.00  0.00    +0.000 A 
ATOM     20  C   UNL     1      45.160   5.762  11.779  0.00  0.00    +0.000 A 
ATOM     21  C   UNL     1      44.875   4.527  12.365  0.00  0.00    +0.000 A 
ATOM     22  C   UNL     1      44.794   3.379  11.582  0.00  0.00    +0.000 A 
BRANCH  17  24
ATOM     23  N   UNL     1      44.691   1.367   8.731  0.00  0.00    +0.000 NA
ATOM     24  C   UNL     1      44.850   2.311   9.378  0.00  0.00    +0.000 C 
ENDBRANCH  17  24
ENDBRANCH  16  20
ENDBRANCH   1  16
TORSDOF 5
ENDMDL
MODEL 8
REMARK VINA RESULT:    -5.291      5.018      8.356
REMARK INTER + INTRA:          -7.957
REMARK INTER:                  -7.323
REMARK INTRA:                  -0.634
REMARK UNBOUND:                -1.119
REMARK  Name = 
REMARK  5 active torsions:
REMARK  status: ('A' for Active; 'I' for Inactive)
REMARK    1  A    between atoms: C_2  and  C_3
REMARK    2  A    between atoms: C_6  and  O_7
REMARK    3  A    between atoms: O_7  and  C_8
REMARK    4  A    between atoms: C_8  and  C_9
REMARK    5  A    between atoms: C_13  and  C_14
REMARK                            x       y       z     vdW  Elec       q    Type
REMARK                         _______ _______ _______ _____ _____    ______ ____
ROOT
ATOM      1  C   UNL     1      48.813   5.316  17.568  0.00  0.00    +0.000 C 
ATOM      2  C   UNL     1      47.912   5.726  18.725  0.00  0.00    +0.000 C 
ATOM      3  C   UNL     1      47.679   4.423  18.042  0.00  0.00    +0.000 C 
ENDROOT
BRANCH   1   4
ATOM      4  C   UNL     1      48.710   5.957  16.202  0.00  0.00    +0.000 A 
ATOM      5  C   UNL     1      49.677   6.857  15.752  0.00  0.00    +0.000 A 
ATOM      6  C   UNL     1      49.636   7.291  14.438  0.00  0.00    +0.000 A 
ATOM      7  N   UNL     1      48.695   6.911  13.547  0.00  0.00    +0.000 NA
ATOM      8  C   UNL     1      47.729   6.064  13.972  0.00  0.00    +0.000 A 
ATOM      9  C   UNL     1      47.719   5.578  15.280  0.00  0.00    +0.000 A 
BRANCH   8  10
ATOM     10  C   UNL     1      46.728   5.664  12.967  0.00  0.00    +0.000 A 
ATOM     11  C   UNL     1      46.620   6.310  11.727  0.00  0.00    +0.000 A 
ATOM     12  C   UNL     1      45.664   5.909  10.792  0.00  0.00    +0.000 A 
ATOM     13  C   UNL     1      44.828   4.857  11.121  0.00  0.00    +0.000 A 
ATOM     14  N   UNL     1      44.885   4.199  12.296  0.00  0.00    +0.000 NA
ATOM     15  C   UNL     1      45.822   4.623  13.182  0.00  0.00    +0.000 A 
ENDBRANCH   8  10
ENDBRANCH   1   4
BRANCH   1  16
ATOM     16  O   UNL     1      50.158   5.172  18.068  0.00  0.00    +0.000 OA
BRANCH  16  20
ATOM     17  C   UNL     1      52.486   1.762  17.740  0.00  0.00    +0.000 A 
ATOM     18  C   UNL     1      51.158   1.696  17.305  0.00  0.00    +0.000 A 
ATOM     19  C   UNL     1      50.346   2.829  17.358  0.00  0.00    +0.000 A 
ATOM     20  C   UNL     1      50.860   4.022  17.857  0.00  0.00    +0.000 A 
ATOM     21  C   UNL     1      52.205   4.106  18.226  0.00  0.00    +0.000 A 
ATOM     22  C   UNL     1      53.019   2.978  18.175  0.00  0.00    +0.000 A 
BRANCH  17  24
ATOM     23  N   UNL     1      53.909  -0.397  17.786  0.00  0.00    +0.000 NA
ATOM     24  C   UNL     1      53.289   0.578  17.764  0.00  0.00    +0.000 C 
ENDBRANCH  17  24
ENDBRANCH  16  20
ENDBRANCH   1  16
TORSDOF 5
ENDMDL
MODEL 9
REMARK VINA RESULT:    -5.171      3.075      7.046
REMARK INTER + INTRA:          -7.801
REMARK INTER:                  -6.932
REMARK INTRA:                  -0.869
REMARK UNBOUND:                -1.119
REMARK  Name = 
REMARK  5 active torsions:
REMARK  status: ('A' for Active; 'I' for Inactive)
REMARK    1  A    between atoms: C_2  and  C_3
REMARK    2  A    between atoms: C_6  and  O_7
REMARK    3  A    between atoms: O_7  and  C_8
REMARK    4  A    between atoms: C_8  and  C_9
REMARK    5  A    between atoms: C_13  and  C_14
REMARK                            x       y       z     vdW  Elec       q    Type
REMARK                         _______ _______ _______ _____ _____    ______ ____
ROOT
ATOM      1  C   UNL     1      48.398   8.021  13.740  0.00  0.00    +0.000 C 
ATOM      2  C   UNL     1      48.455   8.169  15.254  0.00  0.00    +0.000 C 
ATOM      3  C   UNL     1      48.905   6.895  14.625  0.00  0.00    +0.000 C 
ENDROOT
BRANCH   1   4
ATOM      4  C   UNL     1      47.094   7.831  12.998  0.00  0.00    +0.000 A 
ATOM      5  C   UNL     1      46.218   8.897  12.793  0.00  0.00    +0.000 A 
ATOM      6  C   UNL     1      45.120   8.719  11.968  0.00  0.00    +0.000 A 
ATOM      7  N   UNL     1      44.819   7.557  11.352  0.00  0.00    +0.000 NA
ATOM      8  C   UNL     1      45.638   6.500  11.563  0.00  0.00    +0.000 A 
ATOM      9  C   UNL     1      46.770   6.614  12.371  0.00  0.00    +0.000 A 
BRANCH   8  10
ATOM     10  C   UNL     1      45.283   5.253  10.863  0.00  0.00    +0.000 A 
ATOM     11  C   UNL     1      45.536   5.068   9.496  0.00  0.00    +0.000 A 
ATOM     12  C   UNL     1      45.193   3.875   8.860  0.00  0.00    +0.000 A 
ATOM     13  C   UNL     1      44.597   2.879   9.612  0.00  0.00    +0.000 A 
ATOM     14  N   UNL     1      44.331   2.998  10.928  0.00  0.00    +0.000 NA
ATOM     15  C   UNL     1      44.672   4.176  11.511  0.00  0.00    +0.000 A 
ENDBRANCH   8  10
ENDBRANCH   1   4
BRANCH   1  16
ATOM     16  O   UNL     1      49.290   8.991  13.154  0.00  0.00    +0.000 OA
BRANCH  16  20
ATOM     17  C   UNL     1      52.674   7.871  11.045  0.00  0.00    +0.000 A 
ATOM     18  C   UNL     1      52.849   8.496  12.284  0.00  0.00    +0.000 A 
ATOM     19  C   UNL     1      51.739   8.855  13.051  0.00  0.00    +0.000 A 
ATOM     20  C   UNL     1      50.459   8.600  12.569  0.00  0.00    +0.000 A 
ATOM     21  C   UNL     1      50.286   7.914  11.364  0.00  0.00    +0.000 A 
ATOM     22  C   UNL     1      51.389   7.554  10.596  0.00  0.00    +0.000 A 
BRANCH  17  24
ATOM     23  N   UNL     1      54.737   7.382   9.563  0.00  0.00    +0.000 NA
ATOM     24  C   UNL     1      53.810   7.581  10.224  0.00  0.00    +0.000 C 
ENDBRANCH  17  24
ENDBRANCH  16  20
ENDBRANCH   1  16
TORSDOF 5
ENDMDL
