MODEL 1
REMARK VINA RESULT:    -8.126      0.000      0.000
REMARK INTER + INTRA:         -12.504
REMARK INTER:                 -11.451
REMARK INTRA:                  -1.053
REMARK UNBOUND:                -1.053
REMARK  Name = 
REMARK  8 active torsions:
REMARK  status: ('A' for Active; 'I' for Inactive)
REMARK    1  A    between atoms: C_1  and  C_2
REMARK    2  A    between atoms: C_5  and  C_6
REMARK    3  A    between atoms: C_6  and  O_7
REMARK    4  A    between atoms: O_7  and  C_8
REMARK    5  A    between atoms: C_8  and  C_9
REMARK    6  A    between atoms: C_12  and  C_13
REMARK    7  A    between atoms: C_13  and  N_14
REMARK    8  A    between atoms: C_15  and  C_17
REMARK                            x       y       z     vdW  Elec       q    Type
REMARK                         _______ _______ _______ _____ _____    ______ ____
ROOT
ATOM      1  C   UNL     1      44.724   5.495  11.914  0.00  0.00    +0.000 A 
ATOM      2  C   UNL     1      45.139   4.799  13.058  0.00  0.00    +0.000 A 
ATOM      3  C   UNL     1      46.326   5.144  13.706  0.00  0.00    +0.000 A 
ATOM      4  C   UNL     1      47.117   6.194  13.224  0.00  0.00    +0.000 A 
ATOM      5  C   UNL     1      46.724   6.859  12.054  0.00  0.00    +0.000 A 
ATOM      6  C   UNL     1      45.534   6.518  11.407  0.00  0.00    +0.000 A 
ENDROOT
BRANCH   1   7
ATOM      7  C   UNL     1      43.398   5.174  11.269  0.00  0.00    +0.000 C 
BRANCH   7   8
ATOM      8  O   UNL     1      43.568   4.576   9.982  0.00  0.00    +0.000 OA
BRANCH   8   9
ATOM      9  C   UNL     1      44.021   3.223  10.059  0.00  0.00    +0.000 C 
BRANCH   9  14
ATOM     10  C   UNL     1      48.001   1.970   6.096  0.00  0.00    +0.000 C 
ATOM     11  C   UNL     1      46.962   2.352   7.104  0.00  0.00    +0.000 A 
ATOM     12  C   UNL     1      46.540   3.671   7.235  0.00  0.00    +0.000 A 
ATOM     13  C   UNL     1      45.581   3.978   8.198  0.00  0.00    +0.000 A 
ATOM     14  C   UNL     1      45.073   2.969   9.017  0.00  0.00    +0.000 A 
ATOM     15  C   UNL     1      45.543   1.679   8.799  0.00  0.00    +0.000 A 
ATOM     16  N   UNL     1      46.469   1.351   7.870  0.00  0.00    +0.000 NA
ENDBRANCH   9  14
ENDBRANCH   8   9
ENDBRANCH   7   8
ENDBRANCH   1   7
BRANCH   4  17
ATOM     17  C   UNL     1      48.380   6.595  13.938  0.00  0.00    +0.000 C 
BRANCH  17  18
ATOM     18  N   UNL     1      48.142   6.842  15.336  0.00  0.00    +0.000 N 
ATOM     19  C   UNL     1      49.110   6.568  16.267  0.00  0.00    +0.000 C 
ATOM     20  O   UNL     1      50.227   6.167  15.947  0.00  0.00    +0.000 OA
ATOM     21  H   UNL     1      47.179   6.968  15.630  0.00  0.00    +0.000 HD
BRANCH  19  22
ATOM     22  C   UNL     1      48.764   6.827  17.669  0.00  0.00    +0.000 A 
ATOM     23  C   UNL     1      48.489   8.125  18.080  0.00  0.00    +0.000 A 
ATOM     24  S   UNL     1      48.081   8.249  19.730  0.00  0.00    +0.000 S 
ATOM     25  C   UNL     1      48.299   6.577  19.965  0.00  0.00    +0.000 A 
ATOM     26  N   UNL     1      48.127   6.016  21.191  0.00  0.00    +0.000 NA
ATOM     27  C   UNL     1      48.350   4.744  21.232  0.00  0.00    +0.000 A 
ATOM     28  N   UNL     1      48.725   3.982  20.155  0.00  0.00    +0.000 N 
ATOM     29  C   UNL     1      48.885   4.502  18.892  0.00  0.00    +0.000 A 
ATOM     30  O   UNL     1      49.177   3.783  17.941  0.00  0.00    +0.000 OA
ATOM     31  C   UNL     1      48.659   5.931  18.795  0.00  0.00    +0.000 A 
ATOM     32  H   UNL     1      48.873   2.989  20.252  0.00  0.00    +0.000 HD
ENDBRANCH  19  22
ENDBRANCH  17  18
ENDBRANCH   4  17
TORSDOF 7
ENDMDL
MODEL 2
REMARK VINA RESULT:    -7.706      1.767      2.742
REMARK INTER + INTRA:         -11.913
REMARK INTER:                 -10.607
REMARK INTRA:                  -1.306
REMARK UNBOUND:                -1.053
REMARK  Name = 
REMARK  8 active torsions:
REMARK  status: ('A' for Active; 'I' for Inactive)
REMARK    1  A    between atoms: C_1  and  C_2
REMARK    2  A    between atoms: C_5  and  C_6
REMARK    3  A    between atoms: C_6  and  O_7
REMARK    4  A    between atoms: O_7  and  C_8
REMARK    5  A    between atoms: C_8  and  C_9
REMARK    6  A    between atoms: C_12  and  C_13
REMARK    7  A    between atoms: C_13  and  N_14
REMARK    8  A    between atoms: C_15  and  C_17
REMARK                            x       y       z     vdW  Elec       q    Type
REMARK                         _______ _______ _______ _____ _____    ______ ____
ROOT
ATOM      1  C   UNL     1      44.777   4.817  11.930  0.00  0.00    +0.000 A 
ATOM      2  C   UNL     1      45.323   4.363  13.139  0.00  0.00    +0.000 A 
ATOM      3  C   UNL     1      46.471   4.957  13.666  0.00  0.00    +0.000 A 
ATOM      4  C   UNL     1      47.092   6.018  12.995  0.00  0.00    +0.000 A 
ATOM      5  C   UNL     1      46.571   6.441  11.764  0.00  0.00    +0.000 A 
ATOM      6  C   UNL     1      45.419   5.851  11.239  0.00  0.00    +0.000 A 
ENDROOT
BRANCH   1   7
ATOM      7  C   UNL     1      43.489   4.229  11.410  0.00  0.00    +0.000 C 
BRANCH   7   8
ATOM      8  O   UNL     1      43.626   3.760  10.067  0.00  0.00    +0.000 OA
BRANCH   8   9
ATOM      9  C   UNL     1      44.322   2.515   9.987  0.00  0.00    +0.000 C 
BRANCH   9  14
ATOM     10  C   UNL     1      47.887   2.233   5.479  0.00  0.00    +0.000 C 
ATOM     11  C   UNL     1      46.943   2.361   6.634  0.00  0.00    +0.000 A 
ATOM     12  C   UNL     1      46.321   3.573   6.920  0.00  0.00    +0.000 A 
ATOM     13  C   UNL     1      45.462   3.645   8.015  0.00  0.00    +0.000 A 
ATOM     14  C   UNL     1      45.251   2.516   8.808  0.00  0.00    +0.000 A 
ATOM     15  C   UNL     1      45.903   1.347   8.431  0.00  0.00    +0.000 A 
ATOM     16  N   UNL     1      46.738   1.246   7.372  0.00  0.00    +0.000 NA
ENDBRANCH   9  14
ENDBRANCH   8   9
ENDBRANCH   7   8
ENDBRANCH   1   7
BRANCH   4  17
ATOM     17  C   UNL     1      48.309   6.686  13.576  0.00  0.00    +0.000 C 
BRANCH  17  18
ATOM     18  N   UNL     1      48.055   7.194  14.898  0.00  0.00    +0.000 N 
ATOM     19  C   UNL     1      48.853   6.829  15.951  0.00  0.00    +0.000 C 
ATOM     20  O   UNL     1      49.844   6.116  15.801  0.00  0.00    +0.000 OA
ATOM     21  H   UNL     1      47.142   7.601  15.074  0.00  0.00    +0.000 HD
BRANCH  19  22
ATOM     22  C   UNL     1      48.499   7.376  17.265  0.00  0.00    +0.000 A 
ATOM     23  C   UNL     1      48.373   6.522  18.353  0.00  0.00    +0.000 A 
ATOM     24  S   UNL     1      47.984   7.321  19.808  0.00  0.00    +0.000 S 
ATOM     25  C   UNL     1      47.927   8.831  19.026  0.00  0.00    +0.000 A 
ATOM     26  N   UNL     1      47.616   9.962  19.715  0.00  0.00    +0.000 NA
ATOM     27  C   UNL     1      47.585  11.034  18.993  0.00  0.00    +0.000 A 
ATOM     28  N   UNL     1      47.841  11.077  17.647  0.00  0.00    +0.000 N 
ATOM     29  C   UNL     1      48.186   9.964  16.916  0.00  0.00    +0.000 A 
ATOM     30  O   UNL     1      48.453  10.045  15.721  0.00  0.00    +0.000 OA
ATOM     31  C   UNL     1      48.222   8.731  17.678  0.00  0.00    +0.000 A 
ATOM     32  H   UNL     1      47.811  11.950  17.143  0.00  0.00    +0.000 HD
ENDBRANCH  19  22
ENDBRANCH  17  18
ENDBRANCH   4  17
TORSDOF 7
ENDMDL
MODEL 3
REMARK VINA RESULT:    -7.644      1.192      1.633
REMARK INTER + INTRA:         -11.825
REMARK INTER:                 -11.010
REMARK INTRA:                  -0.815
REMARK UNBOUND:                -1.053
REMARK  Name = 
REMARK  8 active torsions:
REMARK  status: ('A' for Active; 'I' for Inactive)
REMARK    1  A    between atoms: C_1  and  C_2
REMARK    2  A    between atoms: C_5  and  C_6
REMARK    3  A    between atoms: C_6  and  O_7
REMARK    4  A    between atoms: O_7  and  C_8
REMARK    5  A    between atoms: C_8  and  C_9
REMARK    6  A    between atoms: C_12  and  C_13
REMARK    7  A    between atoms: C_13  and  N_14
REMARK    8  A    between atoms: C_15  and  C_17
REMARK                            x       y       z     vdW  Elec       q    Type
REMARK                         _______ _______ _______ _____ _____    ______ ____
ROOT
ATOM      1  C   UNL     1      44.190   5.503  12.397  0.00  0.00    +0.000 A 
ATOM      2  C   UNL     1      44.775   6.718  12.017  0.00  0.00    +0.000 A 
ATOM      3  C   UNL     1      46.043   7.072  12.482  0.00  0.00    +0.000 A 
ATOM      4  C   UNL     1      46.750   6.214  13.333  0.00  0.00    +0.000 A 
ATOM      5  C   UNL     1      46.145   5.019  13.748  0.00  0.00    +0.000 A 
ATOM      6  C   UNL     1      44.879   4.662  13.279  0.00  0.00    +0.000 A 
ENDROOT
BRANCH   1   7
ATOM      7  C   UNL     1      42.858   5.087  11.822  0.00  0.00    +0.000 C 
BRANCH   7   8
ATOM      8  O   UNL     1      43.012   4.369  10.596  0.00  0.00    +0.000 OA
BRANCH   8   9
ATOM      9  C   UNL     1      43.897   3.253  10.719  0.00  0.00    +0.000 C 
BRANCH   9  14
ATOM     10  C   UNL     1      47.195   3.080   6.006  0.00  0.00    +0.000 C 
ATOM     11  C   UNL     1      46.352   3.068   7.244  0.00  0.00    +0.000 A 
ATOM     12  C   UNL     1      46.111   1.885   7.935  0.00  0.00    +0.000 A 
ATOM     13  C   UNL     1      45.308   1.923   9.073  0.00  0.00    +0.000 A 
ATOM     14  C   UNL     1      44.752   3.134   9.490  0.00  0.00    +0.000 A 
ATOM     15  C   UNL     1      45.065   4.264   8.744  0.00  0.00    +0.000 A 
ATOM     16  N   UNL     1      45.845   4.258   7.640  0.00  0.00    +0.000 NA
ENDBRANCH   9  14
ENDBRANCH   8   9
ENDBRANCH   7   8
ENDBRANCH   1   7
BRANCH   4  17
ATOM     17  C   UNL     1      48.131   6.573  13.809  0.00  0.00    +0.000 C 
BRANCH  17  18
ATOM     18  N   UNL     1      48.122   7.007  15.181  0.00  0.00    +0.000 N 
ATOM     19  C   UNL     1      49.261   6.939  15.942  0.00  0.00    +0.000 C 
ATOM     20  O   UNL     1      50.336   6.572  15.473  0.00  0.00    +0.000 OA
ATOM     21  H   UNL     1      47.219   7.110  15.632  0.00  0.00    +0.000 HD
BRANCH  19  22
ATOM     22  C   UNL     1      49.146   7.379  17.337  0.00  0.00    +0.000 A 
ATOM     23  C   UNL     1      49.822   8.517  17.756  0.00  0.00    +0.000 A 
ATOM     24  S   UNL     1      49.561   8.904  19.395  0.00  0.00    +0.000 S 
ATOM     25  C   UNL     1      48.569   7.539  19.615  0.00  0.00    +0.000 A 
ATOM     26  N   UNL     1      48.023   7.260  20.829  0.00  0.00    +0.000 NA
ATOM     27  C   UNL     1      47.313   6.181  20.859  0.00  0.00    +0.000 A 
ATOM     28  N   UNL     1      47.097   5.358  19.785  0.00  0.00    +0.000 N 
ATOM     29  C   UNL     1      47.605   5.615  18.533  0.00  0.00    +0.000 A 
ATOM     30  O   UNL     1      47.354   4.881  17.581  0.00  0.00    +0.000 OA
ATOM     31  C   UNL     1      48.422   6.809  18.448  0.00  0.00    +0.000 A 
ATOM     32  H   UNL     1      46.522   4.534  19.872  0.00  0.00    +0.000 HD
ENDBRANCH  19  22
ENDBRANCH  17  18
ENDBRANCH   4  17
TORSDOF 7
ENDMDL
MODEL 4
REMARK VINA RESULT:    -7.205      2.166      2.687
REMARK INTER + INTRA:         -11.207
REMARK INTER:                  -9.963
REMARK INTRA:                  -1.244
REMARK UNBOUND:                -1.053
REMARK  Name = 
REMARK  8 active torsions:
REMARK  status: ('A' for Active; 'I' for Inactive)
REMARK    1  A    between atoms: C_1  and  C_2
REMARK    2  A    between atoms: C_5  and  C_6
REMARK    3  A    between atoms: C_6  and  O_7
REMARK    4  A    between atoms: O_7  and  C_8
REMARK    5  A    between atoms: C_8  and  C_9
REMARK    6  A    between atoms: C_12  and  C_13
REMARK    7  A    between atoms: C_13  and  N_14
REMARK    8  A    between atoms: C_15  and  C_17
REMARK                            x       y       z     vdW  Elec       q    Type
REMARK                         _______ _______ _______ _____ _____    ______ ____
ROOT
ATOM      1  C   UNL     1      45.452   5.407  12.256  0.00  0.00    +0.000 A 
ATOM      2  C   UNL     1      45.618   6.600  11.539  0.00  0.00    +0.000 A 
ATOM      3  C   UNL     1      46.772   7.369  11.700  0.00  0.00    +0.000 A 
ATOM      4  C   UNL     1      47.782   6.957  12.578  0.00  0.00    +0.000 A 
ATOM      5  C   UNL     1      47.593   5.788  13.329  0.00  0.00    +0.000 A 
ATOM      6  C   UNL     1      46.442   5.015  13.165  0.00  0.00    +0.000 A 
ENDROOT
BRANCH   1   7
ATOM      7  C   UNL     1      44.244   4.537  12.013  0.00  0.00    +0.000 C 
BRANCH   7   8
ATOM      8  O   UNL     1      44.608   3.268  11.464  0.00  0.00    +0.000 OA
BRANCH   8   9
ATOM      9  C   UNL     1      44.000   3.023  10.194  0.00  0.00    +0.000 C 
BRANCH   9  14
ATOM     10  C   UNL     1      47.997   2.330   6.112  0.00  0.00    +0.000 C 
ATOM     11  C   UNL     1      46.951   2.568   7.157  0.00  0.00    +0.000 A 
ATOM     12  C   UNL     1      46.481   3.851   7.423  0.00  0.00    +0.000 A 
ATOM     13  C   UNL     1      45.518   4.022   8.415  0.00  0.00    +0.000 A 
ATOM     14  C   UNL     1      45.053   2.917   9.129  0.00  0.00    +0.000 A 
ATOM     15  C   UNL     1      45.569   1.675   8.779  0.00  0.00    +0.000 A 
ATOM     16  N   UNL     1      46.500   1.478   7.818  0.00  0.00    +0.000 NA
ENDBRANCH   9  14
ENDBRANCH   8   9
ENDBRANCH   7   8
ENDBRANCH   1   7
BRANCH   4  17
ATOM     17  C   UNL     1      49.043   7.763  12.730  0.00  0.00    +0.000 C 
BRANCH  17  18
ATOM     18  N   UNL     1      49.947   7.160  13.673  0.00  0.00    +0.000 N 
ATOM     19  C   UNL     1      50.194   7.757  14.882  0.00  0.00    +0.000 C 
ATOM     20  O   UNL     1      49.612   8.781  15.234  0.00  0.00    +0.000 OA
ATOM     21  H   UNL     1      50.579   6.447  13.323  0.00  0.00    +0.000 HD
BRANCH  19  22
ATOM     22  C   UNL     1      51.151   7.081  15.765  0.00  0.00    +0.000 A 
ATOM     23  C   UNL     1      52.495   7.430  15.716  0.00  0.00    +0.000 A 
ATOM     24  S   UNL     1      53.465   6.571  16.823  0.00  0.00    +0.000 S 
ATOM     25  C   UNL     1      52.131   5.671  17.377  0.00  0.00    +0.000 A 
ATOM     26  N   UNL     1      52.281   4.716  18.334  0.00  0.00    +0.000 NA
ATOM     27  C   UNL     1      51.192   4.093  18.642  0.00  0.00    +0.000 A 
ATOM     28  N   UNL     1      49.966   4.342  18.082  0.00  0.00    +0.000 N 
ATOM     29  C   UNL     1      49.761   5.315  17.132  0.00  0.00    +0.000 A 
ATOM     30  O   UNL     1      48.642   5.543  16.684  0.00  0.00    +0.000 OA
ATOM     31  C   UNL     1      50.957   6.036  16.741  0.00  0.00    +0.000 A 
ATOM     32  H   UNL     1      49.150   3.827  18.375  0.00  0.00    +0.000 HD
ENDBRANCH  19  22
ENDBRANCH  17  18
ENDBRANCH   4  17
TORSDOF 7
ENDMDL
MODEL 5
REMARK VINA RESULT:    -7.024      5.510      9.508
REMARK INTER + INTRA:         -10.951
REMARK INTER:                 -10.007
REMARK INTRA:                  -0.945
REMARK UNBOUND:                -1.053
REMARK  Name = 
REMARK  8 active torsions:
REMARK  status: ('A' for Active; 'I' for Inactive)
REMARK    1  A    between atoms: C_1  and  C_2
REMARK    2  A    between atoms: C_5  and  C_6
REMARK    3  A    between atoms: C_6  and  O_7
REMARK    4  A    between atoms: O_7  and  C_8
REMARK    5  A    between atoms: C_8  and  C_9
REMARK    6  A    between atoms: C_12  and  C_13
REMARK    7  A    between atoms: C_13  and  N_14
REMARK    8  A    between atoms: C_15  and  C_17
REMARK                            x       y       z     vdW  Elec       q    Type
REMARK                         _______ _______ _______ _____ _____    ______ ____
ROOT
ATOM      1  C   UNL     1      51.327   2.240  17.440  0.00  0.00    +0.000 A 
ATOM      2  C   UNL     1      49.963   2.104  17.151  0.00  0.00    +0.000 A 
ATOM      3  C   UNL     1      49.132   3.225  17.105  0.00  0.00    +0.000 A 
ATOM      4  C   UNL     1      49.653   4.503  17.344  0.00  0.00    +0.000 A 
ATOM      5  C   UNL     1      51.008   4.632  17.679  0.00  0.00    +0.000 A 
ATOM      6  C   UNL     1      51.841   3.512  17.720  0.00  0.00    +0.000 A 
ENDROOT
BRANCH   1   7
ATOM      7  C   UNL     1      52.236   1.036  17.403  0.00  0.00    +0.000 C 
BRANCH   7   8
ATOM      8  O   UNL     1      53.118   1.004  18.528  0.00  0.00    +0.000 OA
BRANCH   8   9
ATOM      9  C   UNL     1      54.480   0.789  18.153  0.00  0.00    +0.000 C 
BRANCH   9  14
ATOM     10  C   UNL     1      55.120  -4.763  16.783  0.00  0.00    +0.000 C 
ATOM     11  C   UNL     1      54.960  -3.304  17.081  0.00  0.00    +0.000 A 
ATOM     12  C   UNL     1      55.206  -2.342  16.106  0.00  0.00    +0.000 A 
ATOM     13  C   UNL     1      55.058  -0.997  16.437  0.00  0.00    +0.000 A 
ATOM     14  C   UNL     1      54.682  -0.638  17.732  0.00  0.00    +0.000 A 
ATOM     15  C   UNL     1      54.441  -1.671  18.631  0.00  0.00    +0.000 A 
ATOM     16  N   UNL     1      54.573  -2.984  18.337  0.00  0.00    +0.000 NA
ENDBRANCH   9  14
ENDBRANCH   8   9
ENDBRANCH   7   8
ENDBRANCH   1   7
BRANCH   4  17
ATOM     17  C   UNL     1      48.771   5.719  17.261  0.00  0.00    +0.000 C 
BRANCH  17  18
ATOM     18  N   UNL     1      47.920   5.678  16.102  0.00  0.00    +0.000 N 
ATOM     19  C   UNL     1      48.322   6.248  14.921  0.00  0.00    +0.000 C 
ATOM     20  O   UNL     1      49.436   6.750  14.786  0.00  0.00    +0.000 OA
ATOM     21  H   UNL     1      46.940   5.461  16.250  0.00  0.00    +0.000 HD
BRANCH  19  22
ATOM     22  C   UNL     1      47.375   6.180  13.803  0.00  0.00    +0.000 A 
ATOM     23  C   UNL     1      47.029   7.341  13.124  0.00  0.00    +0.000 A 
ATOM     24  S   UNL     1      45.941   7.084  11.838  0.00  0.00    +0.000 S 
ATOM     25  C   UNL     1      45.860   5.416  12.169  0.00  0.00    +0.000 A 
ATOM     26  N   UNL     1      45.065   4.596  11.431  0.00  0.00    +0.000 NA
ATOM     27  C   UNL     1      45.080   3.360  11.807  0.00  0.00    +0.000 A 
ATOM     28  N   UNL     1      45.821   2.870  12.851  0.00  0.00    +0.000 N 
ATOM     29  C   UNL     1      46.658   3.657  13.607  0.00  0.00    +0.000 A 
ATOM     30  O   UNL     1      47.342   3.177  14.506  0.00  0.00    +0.000 OA
ATOM     31  C   UNL     1      46.668   5.058  13.233  0.00  0.00    +0.000 A 
ATOM     32  H   UNL     1      45.796   1.890  13.087  0.00  0.00    +0.000 HD
ENDBRANCH  19  22
ENDBRANCH  17  18
ENDBRANCH   4  17
TORSDOF 7
ENDMDL
MODEL 6
REMARK VINA RESULT:    -6.925      5.213      9.705
REMARK INTER + INTRA:         -10.812
REMARK INTER:                  -9.901
REMARK INTRA:                  -0.911
REMARK UNBOUND:                -1.053
REMARK  Name = 
REMARK  8 active torsions:
REMARK  status: ('A' for Active; 'I' for Inactive)
REMARK    1  A    between atoms: C_1  and  C_2
REMARK    2  A    between atoms: C_5  and  C_6
REMARK    3  A    between atoms: C_6  and  O_7
REMARK    4  A    between atoms: O_7  and  C_8
REMARK    5  A    between atoms: C_8  and  C_9
REMARK    6  A    between atoms: C_12  and  C_13
REMARK    7  A    between atoms: C_13  and  N_14
REMARK    8  A    between atoms: C_15  and  C_17
REMARK                            x       y       z     vdW  Elec       q    Type
REMARK                         _______ _______ _______ _____ _____    ______ ____
ROOT
ATOM      1  C   UNL     1      51.473   3.151  17.785  0.00  0.00    +0.000 A 
ATOM      2  C   UNL     1      50.799   2.041  17.259  0.00  0.00    +0.000 A 
ATOM      3  C   UNL     1      49.425   2.095  17.014  0.00  0.00    +0.000 A 
ATOM      4  C   UNL     1      48.703   3.263  17.288  0.00  0.00    +0.000 A 
ATOM      5  C   UNL     1      49.370   4.357  17.857  0.00  0.00    +0.000 A 
ATOM      6  C   UNL     1      50.745   4.305  18.097  0.00  0.00    +0.000 A 
ENDROOT
BRANCH   1   7
ATOM      7  C   UNL     1      52.971   3.115  17.965  0.00  0.00    +0.000 C 
BRANCH   7   8
ATOM      8  O   UNL     1      53.368   2.090  18.879  0.00  0.00    +0.000 OA
BRANCH   8   9
ATOM      9  C   UNL     1      54.738   1.712  18.720  0.00  0.00    +0.000 C 
BRANCH   9  14
ATOM     10  C   UNL     1      55.025  -3.588  16.497  0.00  0.00    +0.000 C 
ATOM     11  C   UNL     1      54.942  -2.187  17.020  0.00  0.00    +0.000 A 
ATOM     12  C   UNL     1      54.930  -1.098  16.154  0.00  0.00    +0.000 A 
ATOM     13  C   UNL     1      54.866   0.186  16.690  0.00  0.00    +0.000 A 
ATOM     14  C   UNL     1      54.830   0.360  18.074  0.00  0.00    +0.000 A 
ATOM     15  C   UNL     1      54.829  -0.789  18.856  0.00  0.00    +0.000 A 
ATOM     16  N   UNL     1      54.885  -2.047  18.365  0.00  0.00    +0.000 NA
ENDBRANCH   9  14
ENDBRANCH   8   9
ENDBRANCH   7   8
ENDBRANCH   1   7
BRANCH   4  17
ATOM     17  C   UNL     1      47.229   3.340  16.994  0.00  0.00    +0.000 C 
BRANCH  17  18
ATOM     18  N   UNL     1      46.934   4.373  16.036  0.00  0.00    +0.000 N 
ATOM     19  C   UNL     1      47.056   4.132  14.692  0.00  0.00    +0.000 C 
ATOM     20  O   UNL     1      47.354   3.024  14.252  0.00  0.00    +0.000 OA
ATOM     21  H   UNL     1      46.893   5.327  16.377  0.00  0.00    +0.000 HD
BRANCH  19  22
ATOM     22  C   UNL     1      46.759   5.254  13.794  0.00  0.00    +0.000 A 
ATOM     23  C   UNL     1      47.693   6.269  13.632  0.00  0.00    +0.000 A 
ATOM     24  S   UNL     1      47.204   7.480  12.537  0.00  0.00    +0.000 S 
ATOM     25  C   UNL     1      45.708   6.713  12.273  0.00  0.00    +0.000 A 
ATOM     26  N   UNL     1      44.782   7.256  11.438  0.00  0.00    +0.000 NA
ATOM     27  C   UNL     1      43.682   6.583  11.350  0.00  0.00    +0.000 A 
ATOM     28  N   UNL     1      43.427   5.414  12.019  0.00  0.00    +0.000 N 
ATOM     29  C   UNL     1      44.343   4.814  12.851  0.00  0.00    +0.000 A 
ATOM     30  O   UNL     1      44.100   3.743  13.399  0.00  0.00    +0.000 OA
ATOM     31  C   UNL     1      45.591   5.538  12.995  0.00  0.00    +0.000 A 
ATOM     32  H   UNL     1      42.551   4.930  11.898  0.00  0.00    +0.000 HD
ENDBRANCH  19  22
ENDBRANCH  17  18
ENDBRANCH   4  17
TORSDOF 7
ENDMDL
MODEL 7
REMARK VINA RESULT:    -6.873      2.979      8.913
REMARK INTER + INTRA:         -10.739
REMARK INTER:                  -9.148
REMARK INTRA:                  -1.591
REMARK UNBOUND:                -1.053
REMARK  Name = 
REMARK  8 active torsions:
REMARK  status: ('A' for Active; 'I' for Inactive)
REMARK    1  A    between atoms: C_1  and  C_2
REMARK    2  A    between atoms: C_5  and  C_6
REMARK    3  A    between atoms: C_6  and  O_7
REMARK    4  A    between atoms: O_7  and  C_8
REMARK    5  A    between atoms: C_8  and  C_9
REMARK    6  A    between atoms: C_12  and  C_13
REMARK    7  A    between atoms: C_13  and  N_14
REMARK    8  A    between atoms: C_15  and  C_17
REMARK                            x       y       z     vdW  Elec       q    Type
REMARK                         _______ _______ _______ _____ _____    ______ ____
ROOT
ATOM      1  C   UNL     1      49.363   8.541  15.845  0.00  0.00    +0.000 A 
ATOM      2  C   UNL     1      48.314   9.305  15.317  0.00  0.00    +0.000 A 
ATOM      3  C   UNL     1      47.882   9.105  14.004  0.00  0.00    +0.000 A 
ATOM      4  C   UNL     1      48.490   8.135  13.198  0.00  0.00    +0.000 A 
ATOM      5  C   UNL     1      49.570   7.403  13.713  0.00  0.00    +0.000 A 
ATOM      6  C   UNL     1      49.999   7.599  15.028  0.00  0.00    +0.000 A 
ENDROOT
BRANCH   1   7
ATOM      7  C   UNL     1      49.767   8.701  17.290  0.00  0.00    +0.000 C 
BRANCH   7   8
ATOM      8  O   UNL     1      48.766   8.199  18.178  0.00  0.00    +0.000 OA
BRANCH   8   9
ATOM      9  C   UNL     1      49.244   7.131  18.999  0.00  0.00    +0.000 C 
BRANCH   9  14
ATOM     10  C   UNL     1      48.798   2.032  16.370  0.00  0.00    +0.000 C 
ATOM     11  C   UNL     1      48.854   3.358  17.063  0.00  0.00    +0.000 A 
ATOM     12  C   UNL     1      47.690   4.056  17.372  0.00  0.00    +0.000 A 
ATOM     13  C   UNL     1      47.796   5.293  18.003  0.00  0.00    +0.000 A 
ATOM     14  C   UNL     1      49.055   5.816  18.300  0.00  0.00    +0.000 A 
ATOM     15  C   UNL     1      50.158   5.037  17.968  0.00  0.00    +0.000 A 
ATOM     16  N   UNL     1      50.086   3.832  17.360  0.00  0.00    +0.000 NA
ENDBRANCH   9  14
ENDBRANCH   8   9
ENDBRANCH   7   8
ENDBRANCH   1   7
BRANCH   4  17
ATOM     17  C   UNL     1      48.007   7.890  11.795  0.00  0.00    +0.000 C 
BRANCH  17  18
ATOM     18  N   UNL     1      47.225   6.686  11.706  0.00  0.00    +0.000 N 
ATOM     19  C   UNL     1      45.855   6.740  11.734  0.00  0.00    +0.000 C 
ATOM     20  O   UNL     1      45.246   7.807  11.769  0.00  0.00    +0.000 OA
ATOM     21  H   UNL     1      47.699   5.807  11.885  0.00  0.00    +0.000 HD
BRANCH  19  22
ATOM     22  C   UNL     1      45.145   5.457  11.666  0.00  0.00    +0.000 A 
ATOM     23  C   UNL     1      44.476   4.982  12.786  0.00  0.00    +0.000 A 
ATOM     24  S   UNL     1      43.683   3.496  12.530  0.00  0.00    +0.000 S 
ATOM     25  C   UNL     1      44.242   3.412  10.925  0.00  0.00    +0.000 A 
ATOM     26  N   UNL     1      43.936   2.350  10.133  0.00  0.00    +0.000 NA
ATOM     27  C   UNL     1      44.446   2.404   8.947  0.00  0.00    +0.000 A 
ATOM     28  N   UNL     1      45.231   3.427   8.481  0.00  0.00    +0.000 N 
ATOM     29  C   UNL     1      45.544   4.532   9.236  0.00  0.00    +0.000 A 
ATOM     30  O   UNL     1      46.213   5.451   8.773  0.00  0.00    +0.000 OA
ATOM     31  C   UNL     1      45.006   4.514  10.582  0.00  0.00    +0.000 A 
ATOM     32  H   UNL     1      45.590   3.414   7.538  0.00  0.00    +0.000 HD
ENDBRANCH  19  22
ENDBRANCH  17  18
ENDBRANCH   4  17
TORSDOF 7
ENDMDL
MODEL 8
REMARK VINA RESULT:    -6.829      4.156      9.029
REMARK INTER + INTRA:         -10.677
REMARK INTER:                  -9.350
REMARK INTRA:                  -1.327
REMARK UNBOUND:                -1.053
REMARK  Name = 
REMARK  8 active torsions:
REMARK  status: ('A' for Active; 'I' for Inactive)
REMARK    1  A    between atoms: C_1  and  C_2
REMARK    2  A    between atoms: C_5  and  C_6
REMARK    3  A    between atoms: C_6  and  O_7
REMARK    4  A    between atoms: O_7  and  C_8
REMARK    5  A    between atoms: C_8  and  C_9
REMARK    6  A    between atoms: C_12  and  C_13
REMARK    7  A    between atoms: C_13  and  N_14
REMARK    8  A    between atoms: C_15  and  C_17
REMARK                            x       y       z     vdW  Elec       q    Type
REMARK                         _______ _______ _______ _____ _____    ______ ____
ROOT
ATOM      1  C   UNL     1      51.401   3.050  17.809  0.00  0.00    +0.000 A 
ATOM      2  C   UNL     1      50.742   2.034  17.105  0.00  0.00    +0.000 A 
ATOM      3  C   UNL     1      49.378   2.135  16.825  0.00  0.00    +0.000 A 
ATOM      4  C   UNL     1      48.650   3.257  17.241  0.00  0.00    +0.000 A 
ATOM      5  C   UNL     1      49.301   4.251  17.984  0.00  0.00    +0.000 A 
ATOM      6  C   UNL     1      50.666   4.154  18.260  0.00  0.00    +0.000 A 
ENDROOT
BRANCH   1   7
ATOM      7  C   UNL     1      52.891   2.976  18.033  0.00  0.00    +0.000 C 
BRANCH   7   8
ATOM      8  O   UNL     1      53.435   4.247  18.396  0.00  0.00    +0.000 OA
BRANCH   8   9
ATOM      9  C   UNL     1      54.516   4.646  17.550  0.00  0.00    +0.000 C 
BRANCH   9  14
ATOM     10  C   UNL     1      52.986   8.680  13.742  0.00  0.00    +0.000 C 
ATOM     11  C   UNL     1      53.329   7.635  14.758  0.00  0.00    +0.000 A 
ATOM     12  C   UNL     1      52.486   7.376  15.834  0.00  0.00    +0.000 A 
ATOM     13  C   UNL     1      52.857   6.404  16.761  0.00  0.00    +0.000 A 
ATOM     14  C   UNL     1      54.064   5.721  16.605  0.00  0.00    +0.000 A 
ATOM     15  C   UNL     1      54.830   6.037  15.489  0.00  0.00    +0.000 A 
ATOM     16  N   UNL     1      54.494   6.971  14.572  0.00  0.00    +0.000 NA
ENDBRANCH   9  14
ENDBRANCH   8   9
ENDBRANCH   7   8
ENDBRANCH   1   7
BRANCH   4  17
ATOM     17  C   UNL     1      47.188   3.388  16.911  0.00  0.00    +0.000 C 
BRANCH  17  18
ATOM     18  N   UNL     1      46.950   4.446  15.965  0.00  0.00    +0.000 N 
ATOM     19  C   UNL     1      47.056   4.214  14.618  0.00  0.00    +0.000 C 
ATOM     20  O   UNL     1      47.288   3.095  14.166  0.00  0.00    +0.000 OA
ATOM     21  H   UNL     1      46.966   5.398  16.317  0.00  0.00    +0.000 HD
BRANCH  19  22
ATOM     22  C   UNL     1      46.823   5.361  13.734  0.00  0.00    +0.000 A 
ATOM     23  C   UNL     1      47.844   6.277  13.513  0.00  0.00    +0.000 A 
ATOM     24  S   UNL     1      47.417   7.531  12.442  0.00  0.00    +0.000 S 
ATOM     25  C   UNL     1      45.838   6.920  12.268  0.00  0.00    +0.000 A 
ATOM     26  N   UNL     1      44.926   7.555  11.485  0.00  0.00    +0.000 NA
ATOM     27  C   UNL     1      43.761   6.997  11.464  0.00  0.00    +0.000 A 
ATOM     28  N   UNL     1      43.428   5.859  12.152  0.00  0.00    +0.000 N 
ATOM     29  C   UNL     1      44.325   5.169  12.934  0.00  0.00    +0.000 A 
ATOM     30  O   UNL     1      44.006   4.127  13.500  0.00  0.00    +0.000 OA
ATOM     31  C   UNL     1      45.646   5.762  13.002  0.00  0.00    +0.000 A 
ATOM     32  H   UNL     1      42.501   5.467  12.084  0.00  0.00    +0.000 HD
ENDBRANCH  19  22
ENDBRANCH  17  18
ENDBRANCH   4  17
TORSDOF 7
ENDMDL
MODEL 9
REMARK VINA RESULT:    -6.702      4.256      8.827
REMARK INTER + INTRA:         -10.498
REMARK INTER:                  -8.599
REMARK INTRA:                  -1.899
REMARK UNBOUND:                -1.053
REMARK  Name = 
REMARK  8 active torsions:
REMARK  status: ('A' for Active; 'I' for Inactive)
REMARK    1  A    between atoms: C_1  and  C_2
REMARK    2  A    between atoms: C_5  and  C_6
REMARK    3  A    between atoms: C_6  and  O_7
REMARK    4  A    between atoms: O_7  and  C_8
REMARK    5  A    between atoms: C_8  and  C_9
REMARK    6  A    between atoms: C_12  and  C_13
REMARK    7  A    between atoms: C_13  and  N_14
REMARK    8  A    between atoms: C_15  and  C_17
REMARK                            x       y       z     vdW  Elec       q    Type
REMARK                         _______ _______ _______ _____ _____    ______ ____
ROOT
ATOM      1  C   UNL     1      51.404   3.046  17.790  0.00  0.00    +0.000 A 
ATOM      2  C   UNL     1      50.712   2.039  17.103  0.00  0.00    +0.000 A 
ATOM      3  C   UNL     1      49.355   2.187  16.807  0.00  0.00    +0.000 A 
ATOM      4  C   UNL     1      48.669   3.346  17.189  0.00  0.00    +0.000 A 
ATOM      5  C   UNL     1      49.352   4.332  17.915  0.00  0.00    +0.000 A 
ATOM      6  C   UNL     1      50.710   4.187  18.207  0.00  0.00    +0.000 A 
ENDROOT
BRANCH   1   7
ATOM      7  C   UNL     1      52.888   2.919  18.030  0.00  0.00    +0.000 C 
BRANCH   7   8
ATOM      8  O   UNL     1      53.474   4.170  18.397  0.00  0.00    +0.000 OA
BRANCH   8   9
ATOM      9  C   UNL     1      54.555   4.544  17.540  0.00  0.00    +0.000 C 
BRANCH   9  14
ATOM     10  C   UNL     1      53.117   8.722  13.853  0.00  0.00    +0.000 C 
ATOM     11  C   UNL     1      53.438   7.643  14.841  0.00  0.00    +0.000 A 
ATOM     12  C   UNL     1      52.638   7.433  15.960  0.00  0.00    +0.000 A 
ATOM     13  C   UNL     1      52.988   6.426  16.857  0.00  0.00    +0.000 A 
ATOM     14  C   UNL     1      54.131   5.660  16.629  0.00  0.00    +0.000 A 
ATOM     15  C   UNL     1      54.856   5.932  15.475  0.00  0.00    +0.000 A 
ATOM     16  N   UNL     1      54.539   6.899  14.585  0.00  0.00    +0.000 NA
ENDBRANCH   9  14
ENDBRANCH   8   9
ENDBRANCH   7   8
ENDBRANCH   1   7
BRANCH   4  17
ATOM     17  C   UNL     1      47.216   3.527  16.842  0.00  0.00    +0.000 C 
BRANCH  17  18
ATOM     18  N   UNL     1      47.031   4.559  15.857  0.00  0.00    +0.000 N 
ATOM     19  C   UNL     1      47.094   4.267  14.519  0.00  0.00    +0.000 C 
ATOM     20  O   UNL     1      47.243   3.117  14.110  0.00  0.00    +0.000 OA
ATOM     21  H   UNL     1      47.117   5.522  16.168  0.00  0.00    +0.000 HD
BRANCH  19  22
ATOM     22  C   UNL     1      46.920   5.390  13.591  0.00  0.00    +0.000 A 
ATOM     23  C   UNL     1      45.875   5.370  12.677  0.00  0.00    +0.000 A 
ATOM     24  S   UNL     1      45.800   6.761  11.695  0.00  0.00    +0.000 S 
ATOM     25  C   UNL     1      47.188   7.419  12.426  0.00  0.00    +0.000 A 
ATOM     26  N   UNL     1      47.690   8.617  12.022  0.00  0.00    +0.000 NA
ATOM     27  C   UNL     1      48.760   8.985  12.645  0.00  0.00    +0.000 A 
ATOM     28  N   UNL     1      49.371   8.265  13.639  0.00  0.00    +0.000 N 
ATOM     29  C   UNL     1      48.885   7.064  14.099  0.00  0.00    +0.000 A 
ATOM     30  O   UNL     1      49.431   6.467  15.022  0.00  0.00    +0.000 OA
ATOM     31  C   UNL     1      47.690   6.599  13.422  0.00  0.00    +0.000 A 
ATOM     32  H   UNL     1      50.200   8.615  14.095  0.00  0.00    +0.000 HD
ENDBRANCH  19  22
ENDBRANCH  17  18
ENDBRANCH   4  17
TORSDOF 7
ENDMDL
