MODEL 1
REMARK VINA RESULT:    -7.940      0.000      0.000
REMARK INTER + INTRA:         -11.529
REMARK INTER:                 -10.725
REMARK INTRA:                  -0.805
REMARK UNBOUND:                -0.805
REMARK  Name = 
REMARK  6 active torsions:
REMARK  status: ('A' for Active; 'I' for Inactive)
REMARK    1  A    between atoms: C_2  and  C_4
REMARK    2  A    between atoms: C_7  and  O_8
REMARK    3  A    between atoms: O_8  and  C_9
REMARK    4  A    between atoms: C_9  and  C_10
REMARK    5  A    between atoms: C_10  and  C_11
REMARK    6  A    between atoms: C_15  and  C_16
REMARK                            x       y       z     vdW  Elec       q    Type
REMARK                         _______ _______ _______ _____ _____    ______ ____
ROOT
ATOM      1  C   UNL     1      45.051   4.831  12.713  0.00  0.00    +0.000 A 
ATOM      2  C   UNL     1      46.041   4.050  13.287  0.00  0.00    +0.000 A 
ATOM      3  N   UNL     1      47.282   4.499  13.570  0.00  0.00    +0.000 NA
ATOM      4  C   UNL     1      47.546   5.793  13.262  0.00  0.00    +0.000 A 
ATOM      5  C   UNL     1      46.648   6.684  12.668  0.00  0.00    +0.000 A 
ATOM      6  C   UNL     1      45.375   6.158  12.394  0.00  0.00    +0.000 A 
ENDROOT
BRANCH   5   7
ATOM      7  C   UNL     1      47.007   8.082  12.350  0.00  0.00    +0.000 A 
ATOM      8  C   UNL     1      48.299   8.444  11.946  0.00  0.00    +0.000 A 
ATOM      9  C   UNL     1      48.572   9.772  11.653  0.00  0.00    +0.000 A 
ATOM     10  N   UNL     1      47.659  10.762  11.720  0.00  0.00    +0.000 NA
ATOM     11  C   UNL     1      46.421  10.423  12.100  0.00  0.00    +0.000 A 
ATOM     12  N   UNL     1      45.465  11.435  12.097  0.00  0.00    +0.000 N 
ATOM     13  C   UNL     1      46.062   9.120  12.422  0.00  0.00    +0.000 A 
ATOM     14  H   UNL     1      45.953  12.304  11.893  0.00  0.00    +0.000 HD
ATOM     15  H   UNL     1      44.947  11.479  12.965  0.00  0.00    +0.000 HD
ENDBRANCH   5   7
BRANCH   1  16
ATOM     16  C   UNL     1      43.689   4.272  12.419  0.00  0.00    +0.000 C 
BRANCH  16  17
ATOM     17  C   UNL     1      43.727   3.148  11.386  0.00  0.00    +0.000 C 
BRANCH  17  18
ATOM     18  O   UNL     1      43.649   3.751  10.094  0.00  0.00    +0.000 OA
BRANCH  18  22
ATOM     19  C   UNL     1      46.533   2.425   7.540  0.00  0.00    +0.000 A 
ATOM     20  C   UNL     1      45.854   1.597   8.404  0.00  0.00    +0.000 A 
ATOM     21  N   UNL     1      44.905   2.029   9.262  0.00  0.00    +0.000 NA
ATOM     22  C   UNL     1      44.668   3.349   9.263  0.00  0.00    +0.000 A 
ATOM     23  N   UNL     1      45.285   4.253   8.482  0.00  0.00    +0.000 NA
ATOM     24  C   UNL     1      46.219   3.763   7.634  0.00  0.00    +0.000 A 
BRANCH  19  26
ATOM     25  N   UNL     1      48.610   2.778   6.333  0.00  0.00    +0.000 N 
ATOM     26  C   UNL     1      47.542   1.960   6.580  0.00  0.00    +0.000 C 
ATOM     27  O   UNL     1      47.450   0.859   6.052  0.00  0.00    +0.000 OA
ATOM     28  H   UNL     1      49.344   2.391   5.750  0.00  0.00    +0.000 HD
ATOM     29  H   UNL     1      48.858   3.564   6.917  0.00  0.00    +0.000 HD
ENDBRANCH  19  26
ENDBRANCH  18  22
ENDBRANCH  17  18
ENDBRANCH  16  17
ENDBRANCH   1  16
TORSDOF 6
ENDMDL
MODEL 2
REMARK VINA RESULT:    -7.911      2.125      4.040
REMARK INTER + INTRA:         -11.491
REMARK INTER:                 -10.752
REMARK INTRA:                  -0.739
REMARK UNBOUND:                -0.805
REMARK  Name = 
REMARK  6 active torsions:
REMARK  status: ('A' for Active; 'I' for Inactive)
REMARK    1  A    between atoms: C_2  and  C_4
REMARK    2  A    between atoms: C_7  and  O_8
REMARK    3  A    between atoms: O_8  and  C_9
REMARK    4  A    between atoms: C_9  and  C_10
REMARK    5  A    between atoms: C_10  and  C_11
REMARK    6  A    between atoms: C_15  and  C_16
REMARK                            x       y       z     vdW  Elec       q    Type
REMARK                         _______ _______ _______ _____ _____    ______ ____
ROOT
ATOM      1  C   UNL     1      45.057   5.254  12.377  0.00  0.00    +0.000 A 
ATOM      2  C   UNL     1      45.778   6.044  11.496  0.00  0.00    +0.000 A 
ATOM      3  N   UNL     1      47.005   6.537  11.763  0.00  0.00    +0.000 NA
ATOM      4  C   UNL     1      47.536   6.228  12.971  0.00  0.00    +0.000 A 
ATOM      5  C   UNL     1      46.914   5.458  13.957  0.00  0.00    +0.000 A 
ATOM      6  C   UNL     1      45.638   4.975  13.623  0.00  0.00    +0.000 A 
ENDROOT
BRANCH   5   7
ATOM      7  C   UNL     1      47.550   5.167  15.259  0.00  0.00    +0.000 A 
ATOM      8  C   UNL     1      48.573   5.969  15.782  0.00  0.00    +0.000 A 
ATOM      9  C   UNL     1      49.124   5.649  17.014  0.00  0.00    +0.000 A 
ATOM     10  N   UNL     1      48.729   4.603  17.769  0.00  0.00    +0.000 NA
ATOM     11  C   UNL     1      47.749   3.835  17.277  0.00  0.00    +0.000 A 
ATOM     12  N   UNL     1      47.295   2.801  18.092  0.00  0.00    +0.000 N 
ATOM     13  C   UNL     1      47.147   4.076  16.049  0.00  0.00    +0.000 A 
ATOM     14  H   UNL     1      47.908   2.771  18.903  0.00  0.00    +0.000 HD
ATOM     15  H   UNL     1      47.258   1.915  17.605  0.00  0.00    +0.000 HD
ENDBRANCH   5   7
BRANCH   1  16
ATOM     16  C   UNL     1      43.692   4.737  12.024  0.00  0.00    +0.000 C 
BRANCH  16  17
ATOM     17  C   UNL     1      43.746   3.463  11.184  0.00  0.00    +0.000 C 
BRANCH  17  18
ATOM     18  O   UNL     1      43.636   3.850   9.814  0.00  0.00    +0.000 OA
BRANCH  18  22
ATOM     19  C   UNL     1      46.655   2.416   7.483  0.00  0.00    +0.000 A 
ATOM     20  C   UNL     1      45.960   1.636   8.379  0.00  0.00    +0.000 A 
ATOM     21  N   UNL     1      44.965   2.104   9.164  0.00  0.00    +0.000 NA
ATOM     22  C   UNL     1      44.698   3.414   9.056  0.00  0.00    +0.000 A 
ATOM     23  N   UNL     1      45.327   4.274   8.236  0.00  0.00    +0.000 NA
ATOM     24  C   UNL     1      46.306   3.749   7.465  0.00  0.00    +0.000 A 
BRANCH  19  26
ATOM     25  N   UNL     1      48.721   2.767   6.258  0.00  0.00    +0.000 N 
ATOM     26  C   UNL     1      47.715   1.908   6.602  0.00  0.00    +0.000 C 
ATOM     27  O   UNL     1      47.716   0.744   6.224  0.00  0.00    +0.000 OA
ATOM     28  H   UNL     1      49.493   2.365   5.739  0.00  0.00    +0.000 HD
ATOM     29  H   UNL     1      48.899   3.640   6.736  0.00  0.00    +0.000 HD
ENDBRANCH  19  26
ENDBRANCH  18  22
ENDBRANCH  17  18
ENDBRANCH  16  17
ENDBRANCH   1  16
TORSDOF 6
ENDMDL
MODEL 3
REMARK VINA RESULT:    -7.753      1.962      2.491
REMARK INTER + INTRA:         -11.277
REMARK INTER:                 -10.446
REMARK INTRA:                  -0.831
REMARK UNBOUND:                -0.805
REMARK  Name = 
REMARK  6 active torsions:
REMARK  status: ('A' for Active; 'I' for Inactive)
REMARK    1  A    between atoms: C_2  and  C_4
REMARK    2  A    between atoms: C_7  and  O_8
REMARK    3  A    between atoms: O_8  and  C_9
REMARK    4  A    between atoms: C_9  and  C_10
REMARK    5  A    between atoms: C_10  and  C_11
REMARK    6  A    between atoms: C_15  and  C_16
REMARK                            x       y       z     vdW  Elec       q    Type
REMARK                         _______ _______ _______ _____ _____    ______ ____
ROOT
ATOM      1  C   UNL     1      44.823   5.416  12.554  0.00  0.00    +0.000 A 
ATOM      2  C   UNL     1      45.009   4.278  13.322  0.00  0.00    +0.000 A 
ATOM      3  N   UNL     1      46.169   3.970  13.938  0.00  0.00    +0.000 NA
ATOM      4  C   UNL     1      47.195   4.843  13.777  0.00  0.00    +0.000 A 
ATOM      5  C   UNL     1      47.149   6.016  13.019  0.00  0.00    +0.000 A 
ATOM      6  C   UNL     1      45.917   6.281  12.399  0.00  0.00    +0.000 A 
ENDROOT
BRANCH   5   7
ATOM      7  C   UNL     1      48.311   6.919  12.879  0.00  0.00    +0.000 A 
ATOM      8  C   UNL     1      48.545   7.651  11.708  0.00  0.00    +0.000 A 
ATOM      9  C   UNL     1      49.648   8.490  11.640  0.00  0.00    +0.000 A 
ATOM     10  N   UNL     1      50.526   8.664  12.649  0.00  0.00    +0.000 NA
ATOM     11  C   UNL     1      50.305   7.970  13.772  0.00  0.00    +0.000 A 
ATOM     12  N   UNL     1      51.173   8.209  14.836  0.00  0.00    +0.000 N 
ATOM     13  C   UNL     1      49.233   7.101  13.924  0.00  0.00    +0.000 A 
ATOM     14  H   UNL     1      51.907   8.822  14.489  0.00  0.00    +0.000 HD
ATOM     15  H   UNL     1      51.541   7.354  15.232  0.00  0.00    +0.000 HD
ENDBRANCH   5   7
BRANCH   1  16
ATOM     16  C   UNL     1      43.508   5.702  11.889  0.00  0.00    +0.000 C 
BRANCH  16  17
ATOM     17  C   UNL     1      43.099   4.611  10.903  0.00  0.00    +0.000 C 
BRANCH  17  18
ATOM     18  O   UNL     1      43.621   4.974   9.624  0.00  0.00    +0.000 OA
BRANCH  18  22
ATOM     19  C   UNL     1      46.100   2.148   8.052  0.00  0.00    +0.000 A 
ATOM     20  C   UNL     1      46.128   3.470   7.671  0.00  0.00    +0.000 A 
ATOM     21  N   UNL     1      45.304   4.412   8.178  0.00  0.00    +0.000 NA
ATOM     22  C   UNL     1      44.400   3.983   9.073  0.00  0.00    +0.000 A 
ATOM     23  N   UNL     1      44.265   2.716   9.500  0.00  0.00    +0.000 NA
ATOM     24  C   UNL     1      45.125   1.817   8.967  0.00  0.00    +0.000 A 
BRANCH  19  26
ATOM     25  N   UNL     1      48.072   1.542   6.771  0.00  0.00    +0.000 N 
ATOM     26  C   UNL     1      47.015   1.124   7.531  0.00  0.00    +0.000 C 
ATOM     27  O   UNL     1      46.858  -0.059   7.804  0.00  0.00    +0.000 OA
ATOM     28  H   UNL     1      48.746   0.831   6.513  0.00  0.00    +0.000 HD
ATOM     29  H   UNL     1      48.384   2.503   6.729  0.00  0.00    +0.000 HD
ENDBRANCH  19  26
ENDBRANCH  18  22
ENDBRANCH  17  18
ENDBRANCH  16  17
ENDBRANCH   1  16
TORSDOF 6
ENDMDL
MODEL 4
REMARK VINA RESULT:    -7.355      3.191      7.844
REMARK INTER + INTRA:         -10.739
REMARK INTER:                 -10.087
REMARK INTRA:                  -0.652
REMARK UNBOUND:                -0.805
REMARK  Name = 
REMARK  6 active torsions:
REMARK  status: ('A' for Active; 'I' for Inactive)
REMARK    1  A    between atoms: C_2  and  C_4
REMARK    2  A    between atoms: C_7  and  O_8
REMARK    3  A    between atoms: O_8  and  C_9
REMARK    4  A    between atoms: C_9  and  C_10
REMARK    5  A    between atoms: C_10  and  C_11
REMARK    6  A    between atoms: C_15  and  C_16
REMARK                            x       y       z     vdW  Elec       q    Type
REMARK                         _______ _______ _______ _____ _____    ______ ____
ROOT
ATOM      1  C   UNL     1      44.491   5.111  10.913  0.00  0.00    +0.000 A 
ATOM      2  C   UNL     1      43.502   4.335  11.496  0.00  0.00    +0.000 A 
ATOM      3  N   UNL     1      43.239   3.061  11.139  0.00  0.00    +0.000 NA
ATOM      4  C   UNL     1      44.001   2.537  10.147  0.00  0.00    +0.000 A 
ATOM      5  C   UNL     1      45.017   3.210   9.464  0.00  0.00    +0.000 A 
ATOM      6  C   UNL     1      45.241   4.534   9.877  0.00  0.00    +0.000 A 
ENDROOT
BRANCH   5   7
ATOM      7  C   UNL     1      45.803   2.579   8.383  0.00  0.00    +0.000 A 
ATOM      8  C   UNL     1      46.131   1.217   8.402  0.00  0.00    +0.000 A 
ATOM      9  C   UNL     1      46.864   0.680   7.353  0.00  0.00    +0.000 A 
ATOM     10  N   UNL     1      47.285   1.390   6.287  0.00  0.00    +0.000 NA
ATOM     11  C   UNL     1      46.971   2.691   6.260  0.00  0.00    +0.000 A 
ATOM     12  N   UNL     1      47.344   3.402   5.122  0.00  0.00    +0.000 N 
ATOM     13  C   UNL     1      46.249   3.313   7.270  0.00  0.00    +0.000 A 
ATOM     14  H   UNL     1      47.906   2.776   4.551  0.00  0.00    +0.000 HD
ATOM     15  H   UNL     1      47.832   4.260   5.347  0.00  0.00    +0.000 HD
ENDBRANCH   5   7
BRANCH   1  16
ATOM     16  C   UNL     1      44.734   6.525  11.352  0.00  0.00    +0.000 C 
BRANCH  16  17
ATOM     17  C   UNL     1      45.448   6.608  12.699  0.00  0.00    +0.000 C 
BRANCH  17  18
ATOM     18  O   UNL     1      46.656   5.854  12.589  0.00  0.00    +0.000 OA
BRANCH  18  22
ATOM     19  C   UNL     1      47.969   4.740  16.282  0.00  0.00    +0.000 A 
ATOM     20  C   UNL     1      48.483   5.815  15.593  0.00  0.00    +0.000 A 
ATOM     21  N   UNL     1      48.062   6.185  14.364  0.00  0.00    +0.000 NA
ATOM     22  C   UNL     1      47.115   5.414  13.809  0.00  0.00    +0.000 A 
ATOM     23  N   UNL     1      46.559   4.330  14.377  0.00  0.00    +0.000 NA
ATOM     24  C   UNL     1      47.011   4.012  15.612  0.00  0.00    +0.000 A 
BRANCH  19  26
ATOM     25  N   UNL     1      49.139   3.209  17.759  0.00  0.00    +0.000 N 
ATOM     26  C   UNL     1      48.397   4.350  17.632  0.00  0.00    +0.000 C 
ATOM     27  O   UNL     1      48.132   5.047  18.602  0.00  0.00    +0.000 OA
ATOM     28  H   UNL     1      49.511   3.019  18.682  0.00  0.00    +0.000 HD
ATOM     29  H   UNL     1      49.590   2.746  16.981  0.00  0.00    +0.000 HD
ENDBRANCH  19  26
ENDBRANCH  18  22
ENDBRANCH  17  18
ENDBRANCH  16  17
ENDBRANCH   1  16
TORSDOF 6
ENDMDL
MODEL 5
REMARK VINA RESULT:    -7.116      3.494      7.772
REMARK INTER + INTRA:         -10.416
REMARK INTER:                  -9.566
REMARK INTRA:                  -0.850
REMARK UNBOUND:                -0.805
REMARK  Name = 
REMARK  6 active torsions:
REMARK  status: ('A' for Active; 'I' for Inactive)
REMARK    1  A    between atoms: C_2  and  C_4
REMARK    2  A    between atoms: C_7  and  O_8
REMARK    3  A    between atoms: O_8  and  C_9
REMARK    4  A    between atoms: C_9  and  C_10
REMARK    5  A    between atoms: C_10  and  C_11
REMARK    6  A    between atoms: C_15  and  C_16
REMARK                            x       y       z     vdW  Elec       q    Type
REMARK                         _______ _______ _______ _____ _____    ______ ____
ROOT
ATOM      1  C   UNL     1      47.328   8.219  12.158  0.00  0.00    +0.000 A 
ATOM      2  C   UNL     1      46.397   9.245  12.159  0.00  0.00    +0.000 A 
ATOM      3  N   UNL     1      45.102   9.084  11.816  0.00  0.00    +0.000 NA
ATOM      4  C   UNL     1      44.719   7.834  11.453  0.00  0.00    +0.000 A 
ATOM      5  C   UNL     1      45.555   6.716  11.392  0.00  0.00    +0.000 A 
ATOM      6  C   UNL     1      46.891   6.947  11.757  0.00  0.00    +0.000 A 
ENDROOT
BRANCH   5   7
ATOM      7  C   UNL     1      45.071   5.383  10.978  0.00  0.00    +0.000 A 
ATOM      8  C   UNL     1      45.150   4.944   9.649  0.00  0.00    +0.000 A 
ATOM      9  C   UNL     1      44.688   3.677   9.324  0.00  0.00    +0.000 A 
ATOM     10  N   UNL     1      44.165   2.812  10.217  0.00  0.00    +0.000 NA
ATOM     11  C   UNL     1      44.092   3.223  11.489  0.00  0.00    +0.000 A 
ATOM     12  N   UNL     1      43.620   2.300  12.419  0.00  0.00    +0.000 N 
ATOM     13  C   UNL     1      44.521   4.478  11.902  0.00  0.00    +0.000 A 
ATOM     14  H   UNL     1      43.309   1.484  11.897  0.00  0.00    +0.000 HD
ATOM     15  H   UNL     1      42.889   2.683  13.005  0.00  0.00    +0.000 HD
ENDBRANCH   5   7
BRANCH   1  16
ATOM     16  C   UNL     1      48.757   8.462  12.547  0.00  0.00    +0.000 C 
BRANCH  16  17
ATOM     17  C   UNL     1      49.395   7.252  13.227  0.00  0.00    +0.000 C 
BRANCH  17  18
ATOM     18  O   UNL     1      49.557   7.576  14.609  0.00  0.00    +0.000 OA
BRANCH  18  22
ATOM     19  C   UNL     1      48.055   4.590  16.938  0.00  0.00    +0.000 A 
ATOM     20  C   UNL     1      47.692   4.775  15.624  0.00  0.00    +0.000 A 
ATOM     21  N   UNL     1      48.175   5.768  14.847  0.00  0.00    +0.000 NA
ATOM     22  C   UNL     1      49.027   6.618  15.440  0.00  0.00    +0.000 A 
ATOM     23  N   UNL     1      49.433   6.550  16.720  0.00  0.00    +0.000 NA
ATOM     24  C   UNL     1      48.925   5.529  17.448  0.00  0.00    +0.000 A 
BRANCH  19  26
ATOM     25  N   UNL     1      48.209   3.256  18.961  0.00  0.00    +0.000 N 
ATOM     26  C   UNL     1      47.560   3.494  17.781  0.00  0.00    +0.000 C 
ATOM     27  O   UNL     1      46.575   2.845  17.455  0.00  0.00    +0.000 OA
ATOM     28  H   UNL     1      47.785   2.567  19.572  0.00  0.00    +0.000 HD
ATOM     29  H   UNL     1      48.852   3.909  19.387  0.00  0.00    +0.000 HD
ENDBRANCH  19  26
ENDBRANCH  18  22
ENDBRANCH  17  18
ENDBRANCH  16  17
ENDBRANCH   1  16
TORSDOF 6
ENDMDL
MODEL 6
REMARK VINA RESULT:    -6.745      5.094      8.266
REMARK INTER + INTRA:          -9.916
REMARK INTER:                  -9.301
REMARK INTRA:                  -0.615
REMARK UNBOUND:                -0.805
REMARK  Name = 
REMARK  6 active torsions:
REMARK  status: ('A' for Active; 'I' for Inactive)
REMARK    1  A    between atoms: C_2  and  C_4
REMARK    2  A    between atoms: C_7  and  O_8
REMARK    3  A    between atoms: O_8  and  C_9
REMARK    4  A    between atoms: C_9  and  C_10
REMARK    5  A    between atoms: C_10  and  C_11
REMARK    6  A    between atoms: C_15  and  C_16
REMARK                            x       y       z     vdW  Elec       q    Type
REMARK                         _______ _______ _______ _____ _____    ______ ____
ROOT
ATOM      1  C   UNL     1      48.098   6.526  14.257  0.00  0.00    +0.000 A 
ATOM      2  C   UNL     1      48.552   7.562  13.456  0.00  0.00    +0.000 A 
ATOM      3  N   UNL     1      48.081   7.815  12.218  0.00  0.00    +0.000 NA
ATOM      4  C   UNL     1      47.109   6.990  11.755  0.00  0.00    +0.000 A 
ATOM      5  C   UNL     1      46.573   5.902  12.448  0.00  0.00    +0.000 A 
ATOM      6  C   UNL     1      47.106   5.686  13.730  0.00  0.00    +0.000 A 
ENDROOT
BRANCH   5   7
ATOM      7  C   UNL     1      45.519   5.036  11.878  0.00  0.00    +0.000 A 
ATOM      8  C   UNL     1      44.697   4.238  12.685  0.00  0.00    +0.000 A 
ATOM      9  C   UNL     1      43.718   3.454  12.092  0.00  0.00    +0.000 A 
ATOM     10  N   UNL     1      43.488   3.412  10.764  0.00  0.00    +0.000 NA
ATOM     11  C   UNL     1      44.266   4.176   9.988  0.00  0.00    +0.000 A 
ATOM     12  N   UNL     1      43.976   4.185   8.625  0.00  0.00    +0.000 N 
ATOM     13  C   UNL     1      45.276   4.984  10.495  0.00  0.00    +0.000 A 
ATOM     14  H   UNL     1      43.253   3.487   8.471  0.00  0.00    +0.000 HD
ATOM     15  H   UNL     1      44.797   4.023   8.056  0.00  0.00    +0.000 HD
ENDBRANCH   5   7
BRANCH   1  16
ATOM     16  C   UNL     1      48.665   6.292  15.627  0.00  0.00    +0.000 C 
BRANCH  16  17
ATOM     17  C   UNL     1      48.044   5.083  16.321  0.00  0.00    +0.000 C 
BRANCH  17  18
ATOM     18  O   UNL     1      48.699   4.931  17.581  0.00  0.00    +0.000 OA
BRANCH  18  22
ATOM     19  C   UNL     1      51.763   2.246  17.652  0.00  0.00    +0.000 A 
ATOM     20  C   UNL     1      51.886   3.541  18.102  0.00  0.00    +0.000 A 
ATOM     21  N   UNL     1      50.879   4.441  18.073  0.00  0.00    +0.000 NA
ATOM     22  C   UNL     1      49.726   4.017  17.535  0.00  0.00    +0.000 A 
ATOM     23  N   UNL     1      49.500   2.787  17.043  0.00  0.00    +0.000 NA
ATOM     24  C   UNL     1      50.539   1.923  17.108  0.00  0.00    +0.000 A 
BRANCH  19  26
ATOM     25  N   UNL     1      52.518  -0.014  18.116  0.00  0.00    +0.000 N 
ATOM     26  C   UNL     1      52.841   1.251  17.711  0.00  0.00    +0.000 C 
ATOM     27  O   UNL     1      53.981   1.536  17.369  0.00  0.00    +0.000 OA
ATOM     28  H   UNL     1      53.254  -0.708  18.047  0.00  0.00    +0.000 HD
ATOM     29  H   UNL     1      51.569  -0.361  18.164  0.00  0.00    +0.000 HD
ENDBRANCH  19  26
ENDBRANCH  18  22
ENDBRANCH  17  18
ENDBRANCH  16  17
ENDBRANCH   1  16
TORSDOF 6
ENDMDL
MODEL 7
REMARK VINA RESULT:    -6.392      4.715     11.088
REMARK INTER + INTRA:          -9.438
REMARK INTER:                  -8.927
REMARK INTRA:                  -0.511
REMARK UNBOUND:                -0.805
REMARK  Name = 
REMARK  6 active torsions:
REMARK  status: ('A' for Active; 'I' for Inactive)
REMARK    1  A    between atoms: C_2  and  C_4
REMARK    2  A    between atoms: C_7  and  O_8
REMARK    3  A    between atoms: O_8  and  C_9
REMARK    4  A    between atoms: C_9  and  C_10
REMARK    5  A    between atoms: C_10  and  C_11
REMARK    6  A    between atoms: C_15  and  C_16
REMARK                            x       y       z     vdW  Elec       q    Type
REMARK                         _______ _______ _______ _____ _____    ______ ____
ROOT
ATOM      1  C   UNL     1      46.885   0.715   4.263  0.00  0.00    +0.000 A 
ATOM      2  C   UNL     1      46.244   1.277   3.170  0.00  0.00    +0.000 A 
ATOM      3  N   UNL     1      45.698   0.556   2.169  0.00  0.00    +0.000 NA
ATOM      4  C   UNL     1      45.800  -0.793   2.263  0.00  0.00    +0.000 A 
ATOM      5  C   UNL     1      46.431  -1.487   3.298  0.00  0.00    +0.000 A 
ATOM      6  C   UNL     1      46.983  -0.684   4.309  0.00  0.00    +0.000 A 
ENDROOT
BRANCH   5   7
ATOM      7  C   UNL     1      46.513  -2.963   3.332  0.00  0.00    +0.000 A 
ATOM      8  C   UNL     1      46.429  -3.738   2.168  0.00  0.00    +0.000 A 
ATOM      9  C   UNL     1      46.522  -5.119   2.264  0.00  0.00    +0.000 A 
ATOM     10  N   UNL     1      46.704  -5.784   3.424  0.00  0.00    +0.000 NA
ATOM     11  C   UNL     1      46.789  -5.048   4.539  0.00  0.00    +0.000 A 
ATOM     12  N   UNL     1      47.050  -5.734   5.723  0.00  0.00    +0.000 N 
ATOM     13  C   UNL     1      46.697  -3.663   4.537  0.00  0.00    +0.000 A 
ATOM     14  H   UNL     1      47.017  -6.727   5.505  0.00  0.00    +0.000 HD
ATOM     15  H   UNL     1      46.408  -5.481   6.463  0.00  0.00    +0.000 HD
ENDBRANCH   5   7
BRANCH   1  16
ATOM     16  C   UNL     1      47.477   1.571   5.345  0.00  0.00    +0.000 C 
BRANCH  16  17
ATOM     17  C   UNL     1      46.611   2.786   5.672  0.00  0.00    +0.000 C 
BRANCH  17  18
ATOM     18  O   UNL     1      47.118   3.358   6.879  0.00  0.00    +0.000 OA
BRANCH  18  22
ATOM     19  C   UNL     1      44.447   3.366   9.955  0.00  0.00    +0.000 A 
ATOM     20  C   UNL     1      44.870   2.216   9.329  0.00  0.00    +0.000 A 
ATOM     21  N   UNL     1      45.747   2.204   8.301  0.00  0.00    +0.000 NA
ATOM     22  C   UNL     1      46.174   3.403   7.878  0.00  0.00    +0.000 A 
ATOM     23  N   UNL     1      45.810   4.589   8.396  0.00  0.00    +0.000 NA
ATOM     24  C   UNL     1      44.939   4.541   9.430  0.00  0.00    +0.000 A 
BRANCH  19  26
ATOM     25  N   UNL     1      43.486   2.288  11.906  0.00  0.00    +0.000 N 
ATOM     26  C   UNL     1      43.520   3.387  11.094  0.00  0.00    +0.000 C 
ATOM     27  O   UNL     1      42.832   4.372  11.329  0.00  0.00    +0.000 OA
ATOM     28  H   UNL     1      42.919   2.368  12.743  0.00  0.00    +0.000 HD
ATOM     29  H   UNL     1      44.197   1.569  11.905  0.00  0.00    +0.000 HD
ENDBRANCH  19  26
ENDBRANCH  18  22
ENDBRANCH  17  18
ENDBRANCH  16  17
ENDBRANCH   1  16
TORSDOF 6
ENDMDL
MODEL 8
REMARK VINA RESULT:    -6.292      4.915      7.598
REMARK INTER + INTRA:          -9.303
REMARK INTER:                  -8.660
REMARK INTRA:                  -0.643
REMARK UNBOUND:                -0.805
REMARK  Name = 
REMARK  6 active torsions:
REMARK  status: ('A' for Active; 'I' for Inactive)
REMARK    1  A    between atoms: C_2  and  C_4
REMARK    2  A    between atoms: C_7  and  O_8
REMARK    3  A    between atoms: O_8  and  C_9
REMARK    4  A    between atoms: C_9  and  C_10
REMARK    5  A    between atoms: C_10  and  C_11
REMARK    6  A    between atoms: C_15  and  C_16
REMARK                            x       y       z     vdW  Elec       q    Type
REMARK                         _______ _______ _______ _____ _____    ______ ____
ROOT
ATOM      1  C   UNL     1      48.444   5.282  16.297  0.00  0.00    +0.000 A 
ATOM      2  C   UNL     1      47.329   4.471  16.437  0.00  0.00    +0.000 A 
ATOM      3  N   UNL     1      47.362   3.237  16.981  0.00  0.00    +0.000 NA
ATOM      4  C   UNL     1      48.571   2.790  17.403  0.00  0.00    +0.000 A 
ATOM      5  C   UNL     1      49.774   3.494  17.308  0.00  0.00    +0.000 A 
ATOM      6  C   UNL     1      49.676   4.771  16.731  0.00  0.00    +0.000 A 
ENDROOT
BRANCH   5   7
ATOM      7  C   UNL     1      51.060   2.941  17.782  0.00  0.00    +0.000 A 
ATOM      8  C   UNL     1      52.005   3.729  18.453  0.00  0.00    +0.000 A 
ATOM      9  C   UNL     1      53.190   3.150  18.882  0.00  0.00    +0.000 A 
ATOM     10  N   UNL     1      53.501   1.849  18.706  0.00  0.00    +0.000 NA
ATOM     11  C   UNL     1      52.601   1.090  18.070  0.00  0.00    +0.000 A 
ATOM     12  N   UNL     1      52.895  -0.267  17.955  0.00  0.00    +0.000 N 
ATOM     13  C   UNL     1      51.393   1.588  17.598  0.00  0.00    +0.000 A 
ATOM     14  H   UNL     1      53.840  -0.397  18.308  0.00  0.00    +0.000 HD
ATOM     15  H   UNL     1      52.787  -0.606  17.008  0.00  0.00    +0.000 HD
ENDBRANCH   5   7
BRANCH   1  16
ATOM     16  C   UNL     1      48.343   6.646  15.680  0.00  0.00    +0.000 C 
BRANCH  16  17
ATOM     17  C   UNL     1      48.327   6.601  14.154  0.00  0.00    +0.000 C 
BRANCH  17  18
ATOM     18  O   UNL     1      47.109   7.209  13.722  0.00  0.00    +0.000 OA
BRANCH  18  22
ATOM     19  C   UNL     1      44.879   4.888  11.223  0.00  0.00    +0.000 A 
ATOM     20  C   UNL     1      45.136   4.553  12.532  0.00  0.00    +0.000 A 
ATOM     21  N   UNL     1      45.883   5.310  13.365  0.00  0.00    +0.000 NA
ATOM     22  C   UNL     1      46.412   6.422  12.834  0.00  0.00    +0.000 A 
ATOM     23  N   UNL     1      46.249   6.835  11.565  0.00  0.00    +0.000 NA
ATOM     24  C   UNL     1      45.483   6.045  10.779  0.00  0.00    +0.000 A 
BRANCH  19  26
ATOM     25  N   UNL     1      44.074   4.392   8.987  0.00  0.00    +0.000 N 
ATOM     26  C   UNL     1      44.042   4.089  10.320  0.00  0.00    +0.000 C 
ATOM     27  O   UNL     1      43.370   3.157  10.743  0.00  0.00    +0.000 OA
ATOM     28  H   UNL     1      43.572   3.761   8.373  0.00  0.00    +0.000 HD
ATOM     29  H   UNL     1      44.786   4.970   8.562  0.00  0.00    +0.000 HD
ENDBRANCH  19  26
ENDBRANCH  18  22
ENDBRANCH  17  18
ENDBRANCH  16  17
ENDBRANCH   1  16
TORSDOF 6
ENDMDL
MODEL 9
REMARK VINA RESULT:    -6.226      4.164      8.407
REMARK INTER + INTRA:          -9.215
REMARK INTER:                  -8.584
REMARK INTRA:                  -0.631
REMARK UNBOUND:                -0.805
REMARK  Name = 
REMARK  6 active torsions:
REMARK  status: ('A' for Active; 'I' for Inactive)
REMARK    1  A    between atoms: C_2  and  C_4
REMARK    2  A    between atoms: C_7  and  O_8
REMARK    3  A    between atoms: O_8  and  C_9
REMARK    4  A    between atoms: C_9  and  C_10
REMARK    5  A    between atoms: C_10  and  C_11
REMARK    6  A    between atoms: C_15  and  C_16
REMARK                            x       y       z     vdW  Elec       q    Type
REMARK                         _______ _______ _______ _____ _____    ______ ____
ROOT
ATOM      1  C   UNL     1      47.610   7.867  12.251  0.00  0.00    +0.000 A 
ATOM      2  C   UNL     1      46.761   8.961  12.303  0.00  0.00    +0.000 A 
ATOM      3  N   UNL     1      45.446   8.905  12.009  0.00  0.00    +0.000 NA
ATOM      4  C   UNL     1      44.955   7.695  11.643  0.00  0.00    +0.000 A 
ATOM      5  C   UNL     1      45.699   6.518  11.534  0.00  0.00    +0.000 A 
ATOM      6  C   UNL     1      47.063   6.640  11.849  0.00  0.00    +0.000 A 
ENDROOT
BRANCH   5   7
ATOM      7  C   UNL     1      45.100   5.232  11.119  0.00  0.00    +0.000 A 
ATOM      8  C   UNL     1      44.539   4.342  12.044  0.00  0.00    +0.000 A 
ATOM      9  C   UNL     1      43.982   3.154  11.592  0.00  0.00    +0.000 A 
ATOM     10  N   UNL     1      43.931   2.791  10.294  0.00  0.00    +0.000 NA
ATOM     11  C   UNL     1      44.461   3.640   9.405  0.00  0.00    +0.000 A 
ATOM     12  N   UNL     1      44.340   3.294   8.061  0.00  0.00    +0.000 N 
ATOM     13  C   UNL     1      45.047   4.845   9.769  0.00  0.00    +0.000 A 
ATOM     14  H   UNL     1      43.941   2.359   8.029  0.00  0.00    +0.000 HD
ATOM     15  H   UNL     1      45.221   3.354   7.567  0.00  0.00    +0.000 HD
ENDBRANCH   5   7
BRANCH   1  16
ATOM     16  C   UNL     1      49.068   7.994  12.587  0.00  0.00    +0.000 C 
BRANCH  16  17
ATOM     17  C   UNL     1      49.445   7.242  13.862  0.00  0.00    +0.000 C 
BRANCH  17  18
ATOM     18  O   UNL     1      48.508   7.619  14.872  0.00  0.00    +0.000 OA
BRANCH  18  22
ATOM     19  C   UNL     1      49.087   5.329  18.192  0.00  0.00    +0.000 A 
ATOM     20  C   UNL     1      48.834   4.800  16.947  0.00  0.00    +0.000 A 
ATOM     21  N   UNL     1      48.630   5.551  15.843  0.00  0.00    +0.000 NA
ATOM     22  C   UNL     1      48.648   6.880  16.023  0.00  0.00    +0.000 A 
ATOM     23  N   UNL     1      48.861   7.506  17.194  0.00  0.00    +0.000 NA
ATOM     24  C   UNL     1      49.070   6.705  18.263  0.00  0.00    +0.000 A 
BRANCH  19  26
ATOM     25  N   UNL     1      48.480   3.495  19.663  0.00  0.00    +0.000 N 
ATOM     26  C   UNL     1      49.343   4.520  19.391  0.00  0.00    +0.000 C 
ATOM     27  O   UNL     1      50.319   4.733  20.097  0.00  0.00    +0.000 OA
ATOM     28  H   UNL     1      48.737   2.888  20.433  0.00  0.00    +0.000 HD
ATOM     29  H   UNL     1      47.821   3.126  18.991  0.00  0.00    +0.000 HD
ENDBRANCH  19  26
ENDBRANCH  18  22
ENDBRANCH  17  18
ENDBRANCH  16  17
ENDBRANCH   1  16
TORSDOF 6
ENDMDL
