MODEL 1
REMARK VINA RESULT:    -7.656      0.000      0.000
REMARK INTER + INTRA:         -10.099
REMARK INTER:                  -9.446
REMARK INTRA:                  -0.653
REMARK UNBOUND:                -0.653
REMARK  Name = 
REMARK  4 active torsions:
REMARK  status: ('A' for Active; 'I' for Inactive)
REMARK    1  A    between atoms: C_6  and  C_7
REMARK    2  A    between atoms: C_7  and  N_8
REMARK    3  A    between atoms: N_8  and  C_9
REMARK    4  A    between atoms: C_13  and  C_14
REMARK                            x       y       z     vdW  Elec       q    Type
REMARK                         _______ _______ _______ _____ _____    ______ ____
ROOT
ATOM      1  C   UNL     1      44.254   5.040  10.503  0.00  0.00    +0.000 A 
ATOM      2  C   UNL     1      43.526   4.083  11.211  0.00  0.00    +0.000 A 
ATOM      3  N   UNL     1      43.491   2.763  10.925  0.00  0.00    +0.000 NA
ATOM      4  C   UNL     1      44.261   2.353   9.891  0.00  0.00    +0.000 A 
ATOM      5  C   UNL     1      45.072   3.183   9.114  0.00  0.00    +0.000 A 
ATOM      6  C   UNL     1      45.053   4.547   9.465  0.00  0.00    +0.000 A 
ENDROOT
BRANCH   5   7
ATOM      7  C   UNL     1      45.906   2.664   8.004  0.00  0.00    +0.000 A 
ATOM      8  C   UNL     1      46.440   1.367   8.026  0.00  0.00    +0.000 A 
ATOM      9  C   UNL     1      47.221   0.928   6.965  0.00  0.00    +0.000 A 
ATOM     10  N   UNL     1      47.499   1.675   5.878  0.00  0.00    +0.000 NA
ATOM     11  C   UNL     1      46.982   2.917   5.858  0.00  0.00    +0.000 A 
ATOM     12  C   UNL     1      46.201   3.446   6.877  0.00  0.00    +0.000 A 
ENDBRANCH   5   7
BRANCH   1  13
ATOM     13  N   UNL     1      44.268   6.375  10.918  0.00  0.00    +0.000 N 
ATOM     14  H   UNL     1      44.680   6.996  10.224  0.00  0.00    +0.000 HD
BRANCH  13  15
ATOM     15  C   UNL     1      44.689   6.719  12.274  0.00  0.00    +0.000 C 
BRANCH  15  21
ATOM     16  F   UNL     1      49.161   8.599  11.357  0.00  0.00    +0.000 F 
ATOM     17  C   UNL     1      48.372   7.705  11.968  0.00  0.00    +0.000 A 
ATOM     18  C   UNL     1      48.911   6.735  12.789  0.00  0.00    +0.000 A 
ATOM     19  N   UNL     1      48.169   5.804  13.432  0.00  0.00    +0.000 NA
ATOM     20  C   UNL     1      46.832   5.860  13.230  0.00  0.00    +0.000 A 
ATOM     21  C   UNL     1      46.186   6.797  12.422  0.00  0.00    +0.000 A 
ATOM     22  C   UNL     1      46.997   7.742  11.778  0.00  0.00    +0.000 A 
ENDBRANCH  15  21
ENDBRANCH  13  15
ENDBRANCH   1  13
TORSDOF 4
ENDMDL
MODEL 2
REMARK VINA RESULT:    -7.428      2.500      6.558
REMARK INTER + INTRA:          -9.818
REMARK INTER:                  -9.324
REMARK INTRA:                  -0.494
REMARK UNBOUND:                -0.653
REMARK  Name = 
REMARK  4 active torsions:
REMARK  status: ('A' for Active; 'I' for Inactive)
REMARK    1  A    between atoms: C_6  and  C_7
REMARK    2  A    between atoms: C_7  and  N_8
REMARK    3  A    between atoms: N_8  and  C_9
REMARK    4  A    between atoms: C_13  and  C_14
REMARK                            x       y       z     vdW  Elec       q    Type
REMARK                         _______ _______ _______ _____ _____    ______ ____
ROOT
ATOM      1  C   UNL     1      44.652   4.124  10.832  0.00  0.00    +0.000 A 
ATOM      2  C   UNL     1      44.329   3.553  12.064  0.00  0.00    +0.000 A 
ATOM      3  N   UNL     1      44.692   4.047  13.269  0.00  0.00    +0.000 NA
ATOM      4  C   UNL     1      45.389   5.206  13.257  0.00  0.00    +0.000 A 
ATOM      5  C   UNL     1      45.753   5.913  12.109  0.00  0.00    +0.000 A 
ATOM      6  C   UNL     1      45.348   5.336  10.890  0.00  0.00    +0.000 A 
ENDROOT
BRANCH   5   7
ATOM      7  C   UNL     1      46.503   7.190  12.168  0.00  0.00    +0.000 A 
ATOM      8  C   UNL     1      47.863   7.264  11.828  0.00  0.00    +0.000 A 
ATOM      9  C   UNL     1      48.525   8.482  11.904  0.00  0.00    +0.000 A 
ATOM     10  N   UNL     1      47.936   9.634  12.280  0.00  0.00    +0.000 NA
ATOM     11  C   UNL     1      46.630   9.561  12.601  0.00  0.00    +0.000 A 
ATOM     12  C   UNL     1      45.890   8.388  12.566  0.00  0.00    +0.000 A 
ENDBRANCH   5   7
BRANCH   1  13
ATOM     13  N   UNL     1      44.177   3.564   9.642  0.00  0.00    +0.000 N 
ATOM     14  H   UNL     1      44.080   2.552   9.697  0.00  0.00    +0.000 HD
BRANCH  13  15
ATOM     15  C   UNL     1      44.729   3.988   8.358  0.00  0.00    +0.000 C 
BRANCH  15  21
ATOM     16  F   UNL     1      48.094   2.431   5.099  0.00  0.00    +0.000 F 
ATOM     17  C   UNL     1      47.338   2.227   6.185  0.00  0.00    +0.000 A 
ATOM     18  C   UNL     1      47.385   1.022   6.860  0.00  0.00    +0.000 A 
ATOM     19  N   UNL     1      46.645   0.754   7.960  0.00  0.00    +0.000 NA
ATOM     20  C   UNL     1      45.826   1.744   8.388  0.00  0.00    +0.000 A 
ATOM     21  C   UNL     1      45.702   2.994   7.781  0.00  0.00    +0.000 A 
ATOM     22  C   UNL     1      46.491   3.226   6.644  0.00  0.00    +0.000 A 
ENDBRANCH  15  21
ENDBRANCH  13  15
ENDBRANCH   1  13
TORSDOF 4
ENDMDL
MODEL 3
REMARK VINA RESULT:    -7.278      2.735      6.681
REMARK INTER + INTRA:          -9.633
REMARK INTER:                  -9.018
REMARK INTRA:                  -0.616
REMARK UNBOUND:                -0.653
REMARK  Name = 
REMARK  4 active torsions:
REMARK  status: ('A' for Active; 'I' for Inactive)
REMARK    1  A    between atoms: C_6  and  C_7
REMARK    2  A    between atoms: C_7  and  N_8
REMARK    3  A    between atoms: N_8  and  C_9
REMARK    4  A    between atoms: C_13  and  C_14
REMARK                            x       y       z     vdW  Elec       q    Type
REMARK                         _______ _______ _______ _____ _____    ______ ____
ROOT
ATOM      1  C   UNL     1      45.477   3.721  12.195  0.00  0.00    +0.000 A 
ATOM      2  C   UNL     1      46.244   3.222  13.249  0.00  0.00    +0.000 A 
ATOM      3  N   UNL     1      47.072   3.957  14.025  0.00  0.00    +0.000 NA
ATOM      4  C   UNL     1      47.116   5.284  13.766  0.00  0.00    +0.000 A 
ATOM      5  C   UNL     1      46.380   5.934  12.773  0.00  0.00    +0.000 A 
ATOM      6  C   UNL     1      45.544   5.105  11.999  0.00  0.00    +0.000 A 
ENDROOT
BRANCH   5   7
ATOM      7  C   UNL     1      46.462   7.398  12.554  0.00  0.00    +0.000 A 
ATOM      8  C   UNL     1      45.315   8.206  12.533  0.00  0.00    +0.000 A 
ATOM      9  C   UNL     1      45.442   9.572  12.319  0.00  0.00    +0.000 A 
ATOM     10  N   UNL     1      46.622  10.197  12.137  0.00  0.00    +0.000 NA
ATOM     11  C   UNL     1      47.720   9.420  12.162  0.00  0.00    +0.000 A 
ATOM     12  C   UNL     1      47.691   8.046  12.357  0.00  0.00    +0.000 A 
ENDBRANCH   5   7
BRANCH   1  13
ATOM     13  N   UNL     1      44.606   2.885  11.491  0.00  0.00    +0.000 N 
ATOM     14  H   UNL     1      44.904   1.911  11.501  0.00  0.00    +0.000 HD
BRANCH  13  15
ATOM     15  C   UNL     1      44.102   3.285  10.179  0.00  0.00    +0.000 C 
BRANCH  15  21
ATOM     16  F   UNL     1      47.131   0.547   7.404  0.00  0.00    +0.000 F 
ATOM     17  C   UNL     1      46.587   1.729   7.724  0.00  0.00    +0.000 A 
ATOM     18  C   UNL     1      46.948   2.876   7.045  0.00  0.00    +0.000 A 
ATOM     19  N   UNL     1      46.438   4.098   7.321  0.00  0.00    +0.000 NA
ATOM     20  C   UNL     1      45.532   4.157   8.325  0.00  0.00    +0.000 A 
ATOM     21  C   UNL     1      45.100   3.061   9.074  0.00  0.00    +0.000 A 
ATOM     22  C   UNL     1      45.656   1.815   8.750  0.00  0.00    +0.000 A 
ENDBRANCH  15  21
ENDBRANCH  13  15
ENDBRANCH   1  13
TORSDOF 4
ENDMDL
MODEL 4
REMARK VINA RESULT:    -7.169      2.419      6.449
REMARK INTER + INTRA:          -9.499
REMARK INTER:                  -8.881
REMARK INTRA:                  -0.617
REMARK UNBOUND:                -0.653
REMARK  Name = 
REMARK  4 active torsions:
REMARK  status: ('A' for Active; 'I' for Inactive)
REMARK    1  A    between atoms: C_6  and  C_7
REMARK    2  A    between atoms: C_7  and  N_8
REMARK    3  A    between atoms: N_8  and  C_9
REMARK    4  A    between atoms: C_13  and  C_14
REMARK                            x       y       z     vdW  Elec       q    Type
REMARK                         _______ _______ _______ _____ _____    ______ ____
ROOT
ATOM      1  C   UNL     1      45.082   4.477  11.505  0.00  0.00    +0.000 A 
ATOM      2  C   UNL     1      45.399   3.754  12.656  0.00  0.00    +0.000 A 
ATOM      3  N   UNL     1      46.319   4.121  13.576  0.00  0.00    +0.000 NA
ATOM      4  C   UNL     1      46.939   5.304  13.366  0.00  0.00    +0.000 A 
ATOM      5  C   UNL     1      46.701   6.155  12.285  0.00  0.00    +0.000 A 
ATOM      6  C   UNL     1      45.736   5.706  11.362  0.00  0.00    +0.000 A 
ENDROOT
BRANCH   5   7
ATOM      7  C   UNL     1      47.405   7.450  12.123  0.00  0.00    +0.000 A 
ATOM      8  C   UNL     1      46.733   8.676  12.242  0.00  0.00    +0.000 A 
ATOM      9  C   UNL     1      47.435   9.862  12.077  0.00  0.00    +0.000 A 
ATOM     10  N   UNL     1      48.755   9.923  11.816  0.00  0.00    +0.000 NA
ATOM     11  C   UNL     1      49.399   8.746  11.707  0.00  0.00    +0.000 A 
ATOM     12  C   UNL     1      48.779   7.511  11.845  0.00  0.00    +0.000 A 
ENDBRANCH   5   7
BRANCH   1  13
ATOM     13  N   UNL     1      44.071   4.039  10.645  0.00  0.00    +0.000 N 
ATOM     14  H   UNL     1      43.731   3.108  10.882  0.00  0.00    +0.000 HD
BRANCH  13  15
ATOM     15  C   UNL     1      44.206   4.216   9.201  0.00  0.00    +0.000 C 
BRANCH  15  21
ATOM     16  F   UNL     1      47.927   2.960   6.210  0.00  0.00    +0.000 F 
ATOM     17  C   UNL     1      46.993   2.635   7.113  0.00  0.00    +0.000 A 
ATOM     18  C   UNL     1      46.842   1.326   7.530  0.00  0.00    +0.000 A 
ATOM     19  N   UNL     1      45.918   0.934   8.436  0.00  0.00    +0.000 NA
ATOM     20  C   UNL     1      45.116   1.904   8.933  0.00  0.00    +0.000 A 
ATOM     21  C   UNL     1      45.183   3.253   8.580  0.00  0.00    +0.000 A 
ATOM     22  C   UNL     1      46.158   3.612   7.639  0.00  0.00    +0.000 A 
ENDBRANCH  15  21
ENDBRANCH  13  15
ENDBRANCH   1  13
TORSDOF 4
ENDMDL
MODEL 5
REMARK VINA RESULT:    -7.057      2.534      6.885
REMARK INTER + INTRA:          -9.360
REMARK INTER:                  -8.876
REMARK INTRA:                  -0.485
REMARK UNBOUND:                -0.653
REMARK  Name = 
REMARK  4 active torsions:
REMARK  status: ('A' for Active; 'I' for Inactive)
REMARK    1  A    between atoms: C_6  and  C_7
REMARK    2  A    between atoms: C_7  and  N_8
REMARK    3  A    between atoms: N_8  and  C_9
REMARK    4  A    between atoms: C_13  and  C_14
REMARK                            x       y       z     vdW  Elec       q    Type
REMARK                         _______ _______ _______ _____ _____    ______ ____
ROOT
ATOM      1  C   UNL     1      44.393   4.498  10.328  0.00  0.00    +0.000 A 
ATOM      2  C   UNL     1      43.225   4.412  11.087  0.00  0.00    +0.000 A 
ATOM      3  N   UNL     1      43.050   4.960  12.310  0.00  0.00    +0.000 NA
ATOM      4  C   UNL     1      44.087   5.677  12.800  0.00  0.00    +0.000 A 
ATOM      5  C   UNL     1      45.302   5.885  12.144  0.00  0.00    +0.000 A 
ATOM      6  C   UNL     1      45.416   5.278  10.878  0.00  0.00    +0.000 A 
ENDROOT
BRANCH   5   7
ATOM      7  C   UNL     1      46.393   6.699  12.732  0.00  0.00    +0.000 A 
ATOM      8  C   UNL     1      46.211   8.050  13.061  0.00  0.00    +0.000 A 
ATOM      9  C   UNL     1      47.264   8.773  13.604  0.00  0.00    +0.000 A 
ATOM     10  N   UNL     1      48.480   8.251  13.858  0.00  0.00    +0.000 NA
ATOM     11  C   UNL     1      48.651   6.953  13.545  0.00  0.00    +0.000 A 
ATOM     12  C   UNL     1      47.661   6.155  12.988  0.00  0.00    +0.000 A 
ENDBRANCH   5   7
BRANCH   1  13
ATOM     13  N   UNL     1      44.452   3.943   9.046  0.00  0.00    +0.000 N 
ATOM     14  H   UNL     1      44.251   2.945   9.042  0.00  0.00    +0.000 HD
BRANCH  13  15
ATOM     15  C   UNL     1      45.554   4.280   8.149  0.00  0.00    +0.000 C 
BRANCH  15  21
ATOM     16  F   UNL     1      46.985  -0.442   7.979  0.00  0.00    +0.000 F 
ATOM     17  C   UNL     1      46.878   0.768   7.414  0.00  0.00    +0.000 A 
ATOM     18  C   UNL     1      47.374   0.998   6.145  0.00  0.00    +0.000 A 
ATOM     19  N   UNL     1      47.299   2.196   5.521  0.00  0.00    +0.000 NA
ATOM     20  C   UNL     1      46.702   3.195   6.212  0.00  0.00    +0.000 A 
ATOM     21  C   UNL     1      46.169   3.070   7.496  0.00  0.00    +0.000 A 
ATOM     22  C   UNL     1      46.269   1.809   8.101  0.00  0.00    +0.000 A 
ENDBRANCH  15  21
ENDBRANCH  13  15
ENDBRANCH   1  13
TORSDOF 4
ENDMDL
MODEL 6
REMARK VINA RESULT:    -6.980      2.641      6.725
REMARK INTER + INTRA:          -9.265
REMARK INTER:                  -8.694
REMARK INTRA:                  -0.572
REMARK UNBOUND:                -0.653
REMARK  Name = 
REMARK  4 active torsions:
REMARK  status: ('A' for Active; 'I' for Inactive)
REMARK    1  A    between atoms: C_6  and  C_7
REMARK    2  A    between atoms: C_7  and  N_8
REMARK    3  A    between atoms: N_8  and  C_9
REMARK    4  A    between atoms: C_13  and  C_14
REMARK                            x       y       z     vdW  Elec       q    Type
REMARK                         _______ _______ _______ _____ _____    ______ ____
ROOT
ATOM      1  C   UNL     1      45.300   5.259  11.516  0.00  0.00    +0.000 A 
ATOM      2  C   UNL     1      45.014   4.348  12.534  0.00  0.00    +0.000 A 
ATOM      3  N   UNL     1      45.730   4.202  13.671  0.00  0.00    +0.000 NA
ATOM      4  C   UNL     1      46.778   5.044  13.832  0.00  0.00    +0.000 A 
ATOM      5  C   UNL     1      47.163   6.031  12.923  0.00  0.00    +0.000 A 
ATOM      6  C   UNL     1      46.376   6.120  11.758  0.00  0.00    +0.000 A 
ENDROOT
BRANCH   5   7
ATOM      7  C   UNL     1      48.313   6.932  13.170  0.00  0.00    +0.000 A 
ATOM      8  C   UNL     1      49.206   7.287  12.148  0.00  0.00    +0.000 A 
ATOM      9  C   UNL     1      50.273   8.131  12.429  0.00  0.00    +0.000 A 
ATOM     10  N   UNL     1      50.511   8.658  13.646  0.00  0.00    +0.000 NA
ATOM     11  C   UNL     1      49.650   8.320  14.624  0.00  0.00    +0.000 A 
ATOM     12  C   UNL     1      48.564   7.475  14.439  0.00  0.00    +0.000 A 
ENDBRANCH   5   7
BRANCH   1  13
ATOM     13  N   UNL     1      44.460   5.370  10.404  0.00  0.00    +0.000 N 
ATOM     14  H   UNL     1      43.718   6.054  10.540  0.00  0.00    +0.000 HD
BRANCH  13  15
ATOM     15  C   UNL     1      43.976   4.171   9.725  0.00  0.00    +0.000 C 
BRANCH  15  21
ATOM     16  F   UNL     1      46.605   0.368   7.994  0.00  0.00    +0.000 F 
ATOM     17  C   UNL     1      46.315   1.675   8.013  0.00  0.00    +0.000 A 
ATOM     18  C   UNL     1      47.011   2.562   7.215  0.00  0.00    +0.000 A 
ATOM     19  N   UNL     1      46.767   3.893   7.190  0.00  0.00    +0.000 NA
ATOM     20  C   UNL     1      45.784   4.337   8.008  0.00  0.00    +0.000 A 
ATOM     21  C   UNL     1      45.022   3.528   8.852  0.00  0.00    +0.000 A 
ATOM     22  C   UNL     1      45.310   2.156   8.842  0.00  0.00    +0.000 A 
ENDBRANCH  15  21
ENDBRANCH  13  15
ENDBRANCH   1  13
TORSDOF 4
ENDMDL
MODEL 7
REMARK VINA RESULT:    -6.929      2.499      6.616
REMARK INTER + INTRA:          -9.203
REMARK INTER:                  -8.662
REMARK INTRA:                  -0.540
REMARK UNBOUND:                -0.653
REMARK  Name = 
REMARK  4 active torsions:
REMARK  status: ('A' for Active; 'I' for Inactive)
REMARK    1  A    between atoms: C_6  and  C_7
REMARK    2  A    between atoms: C_7  and  N_8
REMARK    3  A    between atoms: N_8  and  C_9
REMARK    4  A    between atoms: C_13  and  C_14
REMARK                            x       y       z     vdW  Elec       q    Type
REMARK                         _______ _______ _______ _____ _____    ______ ____
ROOT
ATOM      1  C   UNL     1      44.473   3.503  11.465  0.00  0.00    +0.000 A 
ATOM      2  C   UNL     1      43.581   4.547  11.217  0.00  0.00    +0.000 A 
ATOM      3  N   UNL     1      43.623   5.764  11.805  0.00  0.00    +0.000 NA
ATOM      4  C   UNL     1      44.643   5.977  12.669  0.00  0.00    +0.000 A 
ATOM      5  C   UNL     1      45.633   5.045  12.989  0.00  0.00    +0.000 A 
ATOM      6  C   UNL     1      45.520   3.798  12.345  0.00  0.00    +0.000 A 
ENDROOT
BRANCH   5   7
ATOM      7  C   UNL     1      46.734   5.351  13.933  0.00  0.00    +0.000 A 
ATOM      8  C   UNL     1      46.976   4.560  15.066  0.00  0.00    +0.000 A 
ATOM      9  C   UNL     1      48.016   4.890  15.925  0.00  0.00    +0.000 A 
ATOM     10  N   UNL     1      48.843   5.937  15.735  0.00  0.00    +0.000 NA
ATOM     11  C   UNL     1      48.611   6.691  14.644  0.00  0.00    +0.000 A 
ATOM     12  C   UNL     1      47.590   6.446  13.737  0.00  0.00    +0.000 A 
ENDBRANCH   5   7
BRANCH   1  13
ATOM     13  N   UNL     1      44.376   2.301  10.759  0.00  0.00    +0.000 N 
ATOM     14  H   UNL     1      45.133   1.656  10.978  0.00  0.00    +0.000 HD
BRANCH  13  15
ATOM     15  C   UNL     1      44.064   2.309   9.332  0.00  0.00    +0.000 C 
BRANCH  15  21
ATOM     16  F   UNL     1      48.174   1.062   6.897  0.00  0.00    +0.000 F 
ATOM     17  C   UNL     1      47.281   1.981   7.289  0.00  0.00    +0.000 A 
ATOM     18  C   UNL     1      47.433   3.307   6.934  0.00  0.00    +0.000 A 
ATOM     19  N   UNL     1      46.568   4.281   7.299  0.00  0.00    +0.000 NA
ATOM     20  C   UNL     1      45.515   3.894   8.056  0.00  0.00    +0.000 A 
ATOM     21  C   UNL     1      45.269   2.584   8.470  0.00  0.00    +0.000 A 
ATOM     22  C   UNL     1      46.191   1.609   8.065  0.00  0.00    +0.000 A 
ENDBRANCH  15  21
ENDBRANCH  13  15
ENDBRANCH   1  13
TORSDOF 4
ENDMDL
MODEL 8
REMARK VINA RESULT:    -6.453      2.649      6.483
REMARK INTER + INTRA:          -8.616
REMARK INTER:                  -7.972
REMARK INTRA:                  -0.643
REMARK UNBOUND:                -0.653
REMARK  Name = 
REMARK  4 active torsions:
REMARK  status: ('A' for Active; 'I' for Inactive)
REMARK    1  A    between atoms: C_6  and  C_7
REMARK    2  A    between atoms: C_7  and  N_8
REMARK    3  A    between atoms: N_8  and  C_9
REMARK    4  A    between atoms: C_13  and  C_14
REMARK                            x       y       z     vdW  Elec       q    Type
REMARK                         _______ _______ _______ _____ _____    ______ ____
ROOT
ATOM      1  C   UNL     1      45.033   5.908  13.004  0.00  0.00    +0.000 A 
ATOM      2  C   UNL     1      45.810   4.930  13.626  0.00  0.00    +0.000 A 
ATOM      3  N   UNL     1      47.155   4.973  13.760  0.00  0.00    +0.000 NA
ATOM      4  C   UNL     1      47.769   6.079  13.282  0.00  0.00    +0.000 A 
ATOM      5  C   UNL     1      47.124   7.156  12.670  0.00  0.00    +0.000 A 
ATOM      6  C   UNL     1      45.725   7.039  12.558  0.00  0.00    +0.000 A 
ENDROOT
BRANCH   5   7
ATOM      7  C   UNL     1      47.859   8.348  12.182  0.00  0.00    +0.000 A 
ATOM      8  C   UNL     1      47.268   9.621  12.159  0.00  0.00    +0.000 A 
ATOM      9  C   UNL     1      47.994  10.706  11.688  0.00  0.00    +0.000 A 
ATOM     10  N   UNL     1      49.266  10.626  11.251  0.00  0.00    +0.000 NA
ATOM     11  C   UNL     1      49.832   9.404  11.278  0.00  0.00    +0.000 A 
ATOM     12  C   UNL     1      49.181   8.261  11.720  0.00  0.00    +0.000 A 
ENDBRANCH   5   7
BRANCH   1  13
ATOM     13  N   UNL     1      43.640   5.794  12.969  0.00  0.00    +0.000 N 
ATOM     14  H   UNL     1      43.283   5.142  13.665  0.00  0.00    +0.000 HD
BRANCH  13  15
ATOM     15  C   UNL     1      42.944   5.661  11.692  0.00  0.00    +0.000 C 
BRANCH  15  21
ATOM     16  F   UNL     1      45.338   3.999   7.708  0.00  0.00    +0.000 F 
ATOM     17  C   UNL     1      44.695   3.777   8.861  0.00  0.00    +0.000 A 
ATOM     18  C   UNL     1      44.500   2.490   9.322  0.00  0.00    +0.000 A 
ATOM     19  N   UNL     1      43.857   2.200  10.476  0.00  0.00    +0.000 NA
ATOM     20  C   UNL     1      43.393   3.256  11.185  0.00  0.00    +0.000 A 
ATOM     21  C   UNL     1      43.536   4.593  10.810  0.00  0.00    +0.000 A 
ATOM     22  C   UNL     1      44.211   4.843   9.607  0.00  0.00    +0.000 A 
ENDBRANCH  15  21
ENDBRANCH  13  15
ENDBRANCH   1  13
TORSDOF 4
ENDMDL
MODEL 9
REMARK VINA RESULT:    -6.408      2.307      3.064
REMARK INTER + INTRA:          -8.560
REMARK INTER:                  -8.104
REMARK INTRA:                  -0.456
REMARK UNBOUND:                -0.653
REMARK  Name = 
REMARK  4 active torsions:
REMARK  status: ('A' for Active; 'I' for Inactive)
REMARK    1  A    between atoms: C_6  and  C_7
REMARK    2  A    between atoms: C_7  and  N_8
REMARK    3  A    between atoms: N_8  and  C_9
REMARK    4  A    between atoms: C_13  and  C_14
REMARK                            x       y       z     vdW  Elec       q    Type
REMARK                         _______ _______ _______ _____ _____    ______ ____
ROOT
ATOM      1  C   UNL     1      45.204   6.209  11.798  0.00  0.00    +0.000 A 
ATOM      2  C   UNL     1      43.818   6.147  11.943  0.00  0.00    +0.000 A 
ATOM      3  N   UNL     1      42.990   5.385  11.194  0.00  0.00    +0.000 NA
ATOM      4  C   UNL     1      43.577   4.600  10.263  0.00  0.00    +0.000 A 
ATOM      5  C   UNL     1      44.951   4.524  10.025  0.00  0.00    +0.000 A 
ATOM      6  C   UNL     1      45.751   5.350  10.838  0.00  0.00    +0.000 A 
ENDROOT
BRANCH   5   7
ATOM      7  C   UNL     1      45.530   3.626   8.998  0.00  0.00    +0.000 A 
ATOM      8  C   UNL     1      46.161   4.129   7.850  0.00  0.00    +0.000 A 
ATOM      9  C   UNL     1      46.684   3.248   6.912  0.00  0.00    +0.000 A 
ATOM     10  N   UNL     1      46.639   1.907   7.035  0.00  0.00    +0.000 NA
ATOM     11  C   UNL     1      46.037   1.428   8.140  0.00  0.00    +0.000 A 
ATOM     12  C   UNL     1      45.476   2.229   9.124  0.00  0.00    +0.000 A 
ENDBRANCH   5   7
BRANCH   1  13
ATOM     13  N   UNL     1      45.977   6.986  12.664  0.00  0.00    +0.000 N 
ATOM     14  H   UNL     1      45.860   7.985  12.504  0.00  0.00    +0.000 HD
BRANCH  13  15
ATOM     15  C   UNL     1      47.372   6.637  12.920  0.00  0.00    +0.000 C 
BRANCH  15  21
ATOM     16  F   UNL     1      49.245   5.954  17.437  0.00  0.00    +0.000 F 
ATOM     17  C   UNL     1      48.482   5.546  16.414  0.00  0.00    +0.000 A 
ATOM     18  C   UNL     1      47.813   4.339  16.473  0.00  0.00    +0.000 A 
ATOM     19  N   UNL     1      47.030   3.871  15.474  0.00  0.00    +0.000 NA
ATOM     20  C   UNL     1      46.928   4.654  14.375  0.00  0.00    +0.000 A 
ATOM     21  C   UNL     1      47.562   5.887  14.213  0.00  0.00    +0.000 A 
ATOM     22  C   UNL     1      48.360   6.332  15.276  0.00  0.00    +0.000 A 
ENDBRANCH  15  21
ENDBRANCH  13  15
ENDBRANCH   1  13
TORSDOF 4
ENDMDL
