MODEL 1
REMARK VINA RESULT:    -7.065      0.000      0.000
REMARK INTER + INTRA:         -10.079
REMARK INTER:                  -9.130
REMARK INTRA:                  -0.949
REMARK UNBOUND:                -0.949
REMARK  Name = 
REMARK  5 active torsions:
REMARK  status: ('A' for Active; 'I' for Inactive)
REMARK    1  A    between atoms: C_2  and  C_4
REMARK    2  A    between atoms: C_6  and  O_7
REMARK    3  A    between atoms: O_7  and  C_8
REMARK    4  A    between atoms: C_8  and  C_9
REMARK    5  A    between atoms: C_14  and  N_15
REMARK                            x       y       z     vdW  Elec       q    Type
REMARK                         _______ _______ _______ _____ _____    ______ ____
ROOT
ATOM      1  C   UNL     1      43.713   4.425  10.726  0.00  0.00    +0.000 C 
ENDROOT
BRANCH   1   2
ATOM      2  C   UNL     1      44.834   4.808  11.667  0.00  0.00    +0.000 A 
ATOM      3  C   UNL     1      45.267   3.923  12.662  0.00  0.00    +0.000 A 
ATOM      4  C   UNL     1      46.323   4.274  13.500  0.00  0.00    +0.000 A 
ATOM      5  C   UNL     1      46.961   5.504  13.337  0.00  0.00    +0.000 A 
ATOM      6  F   UNL     1      47.964   5.800  14.180  0.00  0.00    +0.000 F 
ATOM      7  C   UNL     1      46.567   6.423  12.350  0.00  0.00    +0.000 A 
ATOM      8  C   UNL     1      45.477   6.054  11.540  0.00  0.00    +0.000 A 
BRANCH   7   9
ATOM      9  N   UNL     1      47.221   7.620  12.101  0.00  0.00    +0.000 N 
ATOM     10  C   UNL     1      48.534   7.650  11.439  0.00  0.00    +0.000 C 
ATOM     11  C   UNL     1      49.638   8.119  12.394  0.00  0.00    +0.000 C 
ATOM     12  O   UNL     1      49.293   9.362  13.028  0.00  0.00    +0.000 OA
ATOM     13  C   UNL     1      48.092   9.199  13.797  0.00  0.00    +0.000 C 
ATOM     14  C   UNL     1      46.898   8.805  12.912  0.00  0.00    +0.000 C 
ENDBRANCH   7   9
ENDBRANCH   1   2
BRANCH   1  15
ATOM     15  O   UNL     1      44.131   4.629   9.379  0.00  0.00    +0.000 OA
BRANCH  15  18
ATOM     16  C   UNL     1      46.430   2.646   7.282  0.00  0.00    +0.000 A 
ATOM     17  C   UNL     1      45.770   3.784   7.746  0.00  0.00    +0.000 A 
ATOM     18  C   UNL     1      44.863   3.632   8.789  0.00  0.00    +0.000 A 
ATOM     19  C   UNL     1      44.655   2.363   9.320  0.00  0.00    +0.000 A 
ATOM     20  C   UNL     1      45.353   1.287   8.788  0.00  0.00    +0.000 A 
ATOM     21  N   UNL     1      46.235   1.393   7.775  0.00  0.00    +0.000 NA
BRANCH  16  23
ATOM     22  N   UNL     1      48.724   2.482   6.456  0.00  0.00    +0.000 N 
ATOM     23  C   UNL     1      47.418   2.770   6.165  0.00  0.00    +0.000 C 
ATOM     24  O   UNL     1      47.080   3.093   5.029  0.00  0.00    +0.000 OA
ATOM     25  H   UNL     1      49.383   2.457   5.693  0.00  0.00    +0.000 HD
ATOM     26  H   UNL     1      48.953   2.028   7.334  0.00  0.00    +0.000 HD
ENDBRANCH  16  23
ENDBRANCH  15  18
ENDBRANCH   1  15
TORSDOF 5
ENDMDL
MODEL 2
REMARK VINA RESULT:    -6.678      3.919      8.002
REMARK INTER + INTRA:          -9.579
REMARK INTER:                  -8.785
REMARK INTRA:                  -0.794
REMARK UNBOUND:                -0.949
REMARK  Name = 
REMARK  5 active torsions:
REMARK  status: ('A' for Active; 'I' for Inactive)
REMARK    1  A    between atoms: C_2  and  C_4
REMARK    2  A    between atoms: C_6  and  O_7
REMARK    3  A    between atoms: O_7  and  C_8
REMARK    4  A    between atoms: C_8  and  C_9
REMARK    5  A    between atoms: C_14  and  N_15
REMARK                            x       y       z     vdW  Elec       q    Type
REMARK                         _______ _______ _______ _____ _____    ______ ____
ROOT
ATOM      1  C   UNL     1      48.310   6.319  13.256  0.00  0.00    +0.000 C 
ENDROOT
BRANCH   1   2
ATOM      2  C   UNL     1      46.987   6.765  12.674  0.00  0.00    +0.000 A 
ATOM      3  C   UNL     1      46.622   8.116  12.680  0.00  0.00    +0.000 A 
ATOM      4  C   UNL     1      45.417   8.519  12.110  0.00  0.00    +0.000 A 
ATOM      5  C   UNL     1      44.577   7.575  11.518  0.00  0.00    +0.000 A 
ATOM      6  F   UNL     1      43.420   8.014  10.995  0.00  0.00    +0.000 F 
ATOM      7  C   UNL     1      44.902   6.209  11.483  0.00  0.00    +0.000 A 
ATOM      8  C   UNL     1      46.111   5.828  12.094  0.00  0.00    +0.000 A 
BRANCH   7   9
ATOM      9  N   UNL     1      44.139   5.248  10.837  0.00  0.00    +0.000 N 
ATOM     10  C   UNL     1      43.016   4.580  11.514  0.00  0.00    +0.000 C 
ATOM     11  C   UNL     1      43.308   3.095  11.761  0.00  0.00    +0.000 C 
ATOM     12  O   UNL     1      43.719   2.431  10.555  0.00  0.00    +0.000 OA
ATOM     13  C   UNL     1      44.922   3.034  10.052  0.00  0.00    +0.000 C 
ATOM     14  C   UNL     1      44.711   4.515   9.696  0.00  0.00    +0.000 C 
ENDBRANCH   7   9
ENDBRANCH   1   2
BRANCH   1  15
ATOM     15  O   UNL     1      48.571   7.045  14.455  0.00  0.00    +0.000 OA
BRANCH  15  18
ATOM     16  C   UNL     1      48.542   4.660  17.271  0.00  0.00    +0.000 A 
ATOM     17  C   UNL     1      48.083   5.293  16.115  0.00  0.00    +0.000 A 
ATOM     18  C   UNL     1      48.855   6.318  15.582  0.00  0.00    +0.000 A 
ATOM     19  C   UNL     1      50.043   6.666  16.216  0.00  0.00    +0.000 A 
ATOM     20  C   UNL     1      50.417   5.984  17.366  0.00  0.00    +0.000 A 
ATOM     21  N   UNL     1      49.694   4.989  17.917  0.00  0.00    +0.000 NA
BRANCH  16  23
ATOM     22  N   UNL     1      48.203   3.015  19.045  0.00  0.00    +0.000 N 
ATOM     23  C   UNL     1      47.742   3.548  17.872  0.00  0.00    +0.000 C 
ATOM     24  O   UNL     1      46.704   3.139  17.356  0.00  0.00    +0.000 OA
ATOM     25  H   UNL     1      47.620   2.340  19.517  0.00  0.00    +0.000 HD
ATOM     26  H   UNL     1      48.939   3.491  19.556  0.00  0.00    +0.000 HD
ENDBRANCH  16  23
ENDBRANCH  15  18
ENDBRANCH   1  15
TORSDOF 5
ENDMDL
MODEL 3
REMARK VINA RESULT:    -6.645      4.310      7.910
REMARK INTER + INTRA:          -9.536
REMARK INTER:                  -8.656
REMARK INTRA:                  -0.880
REMARK UNBOUND:                -0.949
REMARK  Name = 
REMARK  5 active torsions:
REMARK  status: ('A' for Active; 'I' for Inactive)
REMARK    1  A    between atoms: C_2  and  C_4
REMARK    2  A    between atoms: C_6  and  O_7
REMARK    3  A    between atoms: O_7  and  C_8
REMARK    4  A    between atoms: C_8  and  C_9
REMARK    5  A    between atoms: C_14  and  N_15
REMARK                            x       y       z     vdW  Elec       q    Type
REMARK                         _______ _______ _______ _____ _____    ______ ____
ROOT
ATOM      1  C   UNL     1      48.948   6.926  14.975  0.00  0.00    +0.000 C 
ENDROOT
BRANCH   1   2
ATOM      2  C   UNL     1      48.069   6.740  13.758  0.00  0.00    +0.000 A 
ATOM      3  C   UNL     1      48.368   7.387  12.554  0.00  0.00    +0.000 A 
ATOM      4  C   UNL     1      47.570   7.180  11.431  0.00  0.00    +0.000 A 
ATOM      5  C   UNL     1      46.480   6.313  11.502  0.00  0.00    +0.000 A 
ATOM      6  F   UNL     1      45.735   6.160  10.395  0.00  0.00    +0.000 F 
ATOM      7  C   UNL     1      46.142   5.637  12.686  0.00  0.00    +0.000 A 
ATOM      8  C   UNL     1      46.948   5.890  13.812  0.00  0.00    +0.000 A 
BRANCH   7   9
ATOM      9  N   UNL     1      45.118   4.708  12.782  0.00  0.00    +0.000 N 
ATOM     10  C   UNL     1      45.261   3.351  12.231  0.00  0.00    +0.000 C 
ATOM     11  C   UNL     1      44.333   3.127  11.032  0.00  0.00    +0.000 C 
ATOM     12  O   UNL     1      42.973   3.470  11.347  0.00  0.00    +0.000 OA
ATOM     13  C   UNL     1      42.892   4.858  11.707  0.00  0.00    +0.000 C 
ATOM     14  C   UNL     1      43.732   5.172  12.957  0.00  0.00    +0.000 C 
ENDBRANCH   7   9
ENDBRANCH   1   2
BRANCH   1  15
ATOM     15  O   UNL     1      48.173   6.736  16.156  0.00  0.00    +0.000 OA
BRANCH  15  18
ATOM     16  C   UNL     1      49.332   3.496  17.489  0.00  0.00    +0.000 A 
ATOM     17  C   UNL     1      49.081   4.477  16.530  0.00  0.00    +0.000 A 
ATOM     18  C   UNL     1      48.486   5.662  16.948  0.00  0.00    +0.000 A 
ATOM     19  C   UNL     1      48.170   5.818  18.294  0.00  0.00    +0.000 A 
ATOM     20  C   UNL     1      48.450   4.784  19.176  0.00  0.00    +0.000 A 
ATOM     21  N   UNL     1      49.021   3.619  18.809  0.00  0.00    +0.000 NA
BRANCH  16  23
ATOM     22  N   UNL     1      50.929   1.698  17.917  0.00  0.00    +0.000 N 
ATOM     23  C   UNL     1      49.976   2.210  17.079  0.00  0.00    +0.000 C 
ATOM     24  O   UNL     1      49.655   1.619  16.051  0.00  0.00    +0.000 OA
ATOM     25  H   UNL     1      51.296   0.781  17.710  0.00  0.00    +0.000 HD
ATOM     26  H   UNL     1      51.037   2.086  18.849  0.00  0.00    +0.000 HD
ENDBRANCH  16  23
ENDBRANCH  15  18
ENDBRANCH   1  15
TORSDOF 5
ENDMDL
MODEL 4
REMARK VINA RESULT:    -6.360      2.410      3.919
REMARK INTER + INTRA:          -9.168
REMARK INTER:                  -8.236
REMARK INTRA:                  -0.931
REMARK UNBOUND:                -0.949
REMARK  Name = 
REMARK  5 active torsions:
REMARK  status: ('A' for Active; 'I' for Inactive)
REMARK    1  A    between atoms: C_2  and  C_4
REMARK    2  A    between atoms: C_6  and  O_7
REMARK    3  A    between atoms: O_7  and  C_8
REMARK    4  A    between atoms: C_8  and  C_9
REMARK    5  A    between atoms: C_14  and  N_15
REMARK                            x       y       z     vdW  Elec       q    Type
REMARK                         _______ _______ _______ _____ _____    ______ ____
ROOT
ATOM      1  C   UNL     1      46.587   3.860  13.869  0.00  0.00    +0.000 C 
ENDROOT
BRANCH   1   2
ATOM      2  C   UNL     1      47.367   4.883  14.665  0.00  0.00    +0.000 A 
ATOM      3  C   UNL     1      47.724   4.633  15.995  0.00  0.00    +0.000 A 
ATOM      4  C   UNL     1      48.471   5.568  16.707  0.00  0.00    +0.000 A 
ATOM      5  C   UNL     1      48.880   6.749  16.088  0.00  0.00    +0.000 A 
ATOM      6  F   UNL     1      49.587   7.624  16.823  0.00  0.00    +0.000 F 
ATOM      7  C   UNL     1      48.551   7.043  14.754  0.00  0.00    +0.000 A 
ATOM      8  C   UNL     1      47.768   6.094  14.070  0.00  0.00    +0.000 A 
BRANCH   7   9
ATOM      9  N   UNL     1      49.001   8.165  14.074  0.00  0.00    +0.000 N 
ATOM     10  C   UNL     1      48.060   9.126  13.478  0.00  0.00    +0.000 C 
ATOM     11  C   UNL     1      48.123   9.103  11.946  0.00  0.00    +0.000 C 
ATOM     12  O   UNL     1      49.471   9.260  11.472  0.00  0.00    +0.000 OA
ATOM     13  C   UNL     1      50.287   8.183  11.958  0.00  0.00    +0.000 C 
ATOM     14  C   UNL     1      50.354   8.167  13.495  0.00  0.00    +0.000 C 
ENDBRANCH   7   9
ENDBRANCH   1   2
BRANCH   1  15
ATOM     15  O   UNL     1      45.200   4.190  13.898  0.00  0.00    +0.000 OA
BRANCH  15  18
ATOM     16  C   UNL     1      44.345   4.581  10.331  0.00  0.00    +0.000 A 
ATOM     17  C   UNL     1      45.118   4.230  11.438  0.00  0.00    +0.000 A 
ATOM     18  C   UNL     1      44.595   4.474  12.702  0.00  0.00    +0.000 A 
ATOM     19  C   UNL     1      43.333   5.050  12.809  0.00  0.00    +0.000 A 
ATOM     20  C   UNL     1      42.640   5.372  11.651  0.00  0.00    +0.000 A 
ATOM     21  N   UNL     1      43.114   5.157  10.408  0.00  0.00    +0.000 NA
BRANCH  16  23
ATOM     22  N   UNL     1      44.277   3.326   8.235  0.00  0.00    +0.000 N 
ATOM     23  C   UNL     1      44.871   4.329   8.953  0.00  0.00    +0.000 C 
ATOM     24  O   UNL     1      45.779   5.001   8.469  0.00  0.00    +0.000 OA
ATOM     25  H   UNL     1      44.547   3.213   7.269  0.00  0.00    +0.000 HD
ATOM     26  H   UNL     1      43.408   2.920   8.567  0.00  0.00    +0.000 HD
ENDBRANCH  16  23
ENDBRANCH  15  18
ENDBRANCH   1  15
TORSDOF 5
ENDMDL
MODEL 5
REMARK VINA RESULT:    -6.265      4.522      8.910
REMARK INTER + INTRA:          -9.045
REMARK INTER:                  -8.221
REMARK INTRA:                  -0.824
REMARK UNBOUND:                -0.949
REMARK  Name = 
REMARK  5 active torsions:
REMARK  status: ('A' for Active; 'I' for Inactive)
REMARK    1  A    between atoms: C_2  and  C_4
REMARK    2  A    between atoms: C_6  and  O_7
REMARK    3  A    between atoms: O_7  and  C_8
REMARK    4  A    between atoms: C_8  and  C_9
REMARK    5  A    between atoms: C_14  and  N_15
REMARK                            x       y       z     vdW  Elec       q    Type
REMARK                         _______ _______ _______ _____ _____    ______ ____
ROOT
ATOM      1  C   UNL     1      48.931   7.103  14.724  0.00  0.00    +0.000 C 
ENDROOT
BRANCH   1   2
ATOM      2  C   UNL     1      48.034   6.839  13.535  0.00  0.00    +0.000 A 
ATOM      3  C   UNL     1      48.310   7.414  12.289  0.00  0.00    +0.000 A 
ATOM      4  C   UNL     1      47.496   7.137  11.194  0.00  0.00    +0.000 A 
ATOM      5  C   UNL     1      46.411   6.271  11.335  0.00  0.00    +0.000 A 
ATOM      6  F   UNL     1      45.649   6.048  10.252  0.00  0.00    +0.000 F 
ATOM      7  C   UNL     1      46.097   5.666  12.563  0.00  0.00    +0.000 A 
ATOM      8  C   UNL     1      46.919   5.990  13.659  0.00  0.00    +0.000 A 
BRANCH   7   9
ATOM      9  N   UNL     1      45.079   4.739  12.732  0.00  0.00    +0.000 N 
ATOM     10  C   UNL     1      45.205   3.363  12.225  0.00  0.00    +0.000 C 
ATOM     11  C   UNL     1      44.232   3.095  11.071  0.00  0.00    +0.000 C 
ATOM     12  O   UNL     1      42.884   3.448  11.425  0.00  0.00    +0.000 OA
ATOM     13  C   UNL     1      42.814   4.848  11.738  0.00  0.00    +0.000 C 
ATOM     14  C   UNL     1      43.699   5.208  12.942  0.00  0.00    +0.000 C 
ENDBRANCH   7   9
ENDBRANCH   1   2
BRANCH   1  15
ATOM     15  O   UNL     1      49.049   5.916  15.505  0.00  0.00    +0.000 OA
BRANCH  15  18
ATOM     16  C   UNL     1      48.945   5.410  19.158  0.00  0.00    +0.000 A 
ATOM     17  C   UNL     1      48.830   5.075  17.809  0.00  0.00    +0.000 A 
ATOM     18  C   UNL     1      49.100   6.060  16.866  0.00  0.00    +0.000 A 
ATOM     19  C   UNL     1      49.473   7.327  17.305  0.00  0.00    +0.000 A 
ATOM     20  C   UNL     1      49.554   7.570  18.669  0.00  0.00    +0.000 A 
ATOM     21  N   UNL     1      49.295   6.644  19.613  0.00  0.00    +0.000 NA
BRANCH  16  23
ATOM     22  N   UNL     1      48.363   3.115  19.762  0.00  0.00    +0.000 N 
ATOM     23  C   UNL     1      48.667   4.375  20.202  0.00  0.00    +0.000 C 
ATOM     24  O   UNL     1      48.730   4.627  21.403  0.00  0.00    +0.000 OA
ATOM     25  H   UNL     1      48.278   2.383  20.451  0.00  0.00    +0.000 HD
ATOM     26  H   UNL     1      48.512   2.876  18.787  0.00  0.00    +0.000 HD
ENDBRANCH  16  23
ENDBRANCH  15  18
ENDBRANCH   1  15
TORSDOF 5
ENDMDL
MODEL 6
REMARK VINA RESULT:    -6.261      4.902      8.346
REMARK INTER + INTRA:          -9.040
REMARK INTER:                  -8.380
REMARK INTRA:                  -0.660
REMARK UNBOUND:                -0.949
REMARK  Name = 
REMARK  5 active torsions:
REMARK  status: ('A' for Active; 'I' for Inactive)
REMARK    1  A    between atoms: C_2  and  C_4
REMARK    2  A    between atoms: C_6  and  O_7
REMARK    3  A    between atoms: O_7  and  C_8
REMARK    4  A    between atoms: C_8  and  C_9
REMARK    5  A    between atoms: C_14  and  N_15
REMARK                            x       y       z     vdW  Elec       q    Type
REMARK                         _______ _______ _______ _____ _____    ______ ____
ROOT
ATOM      1  C   UNL     1      47.428   3.864  15.655  0.00  0.00    +0.000 C 
ENDROOT
BRANCH   1   2
ATOM      2  C   UNL     1      47.047   4.818  14.545  0.00  0.00    +0.000 A 
ATOM      3  C   UNL     1      47.749   6.015  14.359  0.00  0.00    +0.000 A 
ATOM      4  C   UNL     1      47.411   6.870  13.312  0.00  0.00    +0.000 A 
ATOM      5  C   UNL     1      46.382   6.524  12.436  0.00  0.00    +0.000 A 
ATOM      6  F   UNL     1      46.086   7.389  11.452  0.00  0.00    +0.000 F 
ATOM      7  C   UNL     1      45.653   5.331  12.578  0.00  0.00    +0.000 A 
ATOM      8  C   UNL     1      45.996   4.504  13.664  0.00  0.00    +0.000 A 
BRANCH   7   9
ATOM      9  N   UNL     1      44.677   4.909  11.688  0.00  0.00    +0.000 N 
ATOM     10  C   UNL     1      43.431   4.283  12.158  0.00  0.00    +0.000 C 
ATOM     11  C   UNL     1      43.359   2.803  11.767  0.00  0.00    +0.000 C 
ATOM     12  O   UNL     1      43.591   2.618  10.360  0.00  0.00    +0.000 OA
ATOM     13  C   UNL     1      44.900   3.097  10.015  0.00  0.00    +0.000 C 
ATOM     14  C   UNL     1      45.049   4.601  10.297  0.00  0.00    +0.000 C 
ENDBRANCH   7   9
ENDBRANCH   1   2
BRANCH   1  15
ATOM     15  O   UNL     1      47.877   4.605  16.787  0.00  0.00    +0.000 OA
BRANCH  15  18
ATOM     16  C   UNL     1      51.154   3.180  17.704  0.00  0.00    +0.000 A 
ATOM     17  C   UNL     1      49.830   3.184  17.266  0.00  0.00    +0.000 A 
ATOM     18  C   UNL     1      49.168   4.405  17.199  0.00  0.00    +0.000 A 
ATOM     19  C   UNL     1      49.849   5.561  17.567  0.00  0.00    +0.000 A 
ATOM     20  C   UNL     1      51.165   5.459  17.998  0.00  0.00    +0.000 A 
ATOM     21  N   UNL     1      51.839   4.294  18.082  0.00  0.00    +0.000 NA
BRANCH  16  23
ATOM     22  N   UNL     1      52.960   1.834  18.651  0.00  0.00    +0.000 N 
ATOM     23  C   UNL     1      51.902   1.886  17.785  0.00  0.00    +0.000 C 
ATOM     24  O   UNL     1      51.575   0.903  17.125  0.00  0.00    +0.000 OA
ATOM     25  H   UNL     1      53.407   0.941  18.796  0.00  0.00    +0.000 HD
ATOM     26  H   UNL     1      53.091   2.579  19.327  0.00  0.00    +0.000 HD
ENDBRANCH  16  23
ENDBRANCH  15  18
ENDBRANCH   1  15
TORSDOF 5
ENDMDL
MODEL 7
REMARK VINA RESULT:    -6.218      2.834      3.766
REMARK INTER + INTRA:          -8.985
REMARK INTER:                  -8.107
REMARK INTRA:                  -0.878
REMARK UNBOUND:                -0.949
REMARK  Name = 
REMARK  5 active torsions:
REMARK  status: ('A' for Active; 'I' for Inactive)
REMARK    1  A    between atoms: C_2  and  C_4
REMARK    2  A    between atoms: C_6  and  O_7
REMARK    3  A    between atoms: O_7  and  C_8
REMARK    4  A    between atoms: C_8  and  C_9
REMARK    5  A    between atoms: C_14  and  N_15
REMARK                            x       y       z     vdW  Elec       q    Type
REMARK                         _______ _______ _______ _____ _____    ______ ____
ROOT
ATOM      1  C   UNL     1      44.582   4.961  12.071  0.00  0.00    +0.000 C 
ENDROOT
BRANCH   1   2
ATOM      2  C   UNL     1      45.795   5.252  12.926  0.00  0.00    +0.000 A 
ATOM      3  C   UNL     1      46.669   6.295  12.596  0.00  0.00    +0.000 A 
ATOM      4  C   UNL     1      47.764   6.575  13.410  0.00  0.00    +0.000 A 
ATOM      5  C   UNL     1      47.981   5.826  14.567  0.00  0.00    +0.000 A 
ATOM      6  F   UNL     1      49.059   6.128  15.309  0.00  0.00    +0.000 F 
ATOM      7  C   UNL     1      47.130   4.774  14.943  0.00  0.00    +0.000 A 
ATOM      8  C   UNL     1      46.050   4.494  14.084  0.00  0.00    +0.000 A 
BRANCH   7   9
ATOM      9  N   UNL     1      47.260   4.055  16.121  0.00  0.00    +0.000 N 
ATOM     10  C   UNL     1      47.065   4.694  17.432  0.00  0.00    +0.000 C 
ATOM     11  C   UNL     1      48.376   4.775  18.223  0.00  0.00    +0.000 C 
ATOM     12  O   UNL     1      49.022   3.493  18.306  0.00  0.00    +0.000 OA
ATOM     13  C   UNL     1      49.336   3.019  16.988  0.00  0.00    +0.000 C 
ATOM     14  C   UNL     1      48.071   2.827  16.135  0.00  0.00    +0.000 C 
ENDBRANCH   7   9
ENDBRANCH   1   2
BRANCH   1  15
ATOM     15  O   UNL     1      44.845   5.348  10.724  0.00  0.00    +0.000 OA
BRANCH  15  18
ATOM     16  C   UNL     1      46.054   3.319   7.889  0.00  0.00    +0.000 A 
ATOM     17  C   UNL     1      45.902   4.453   8.688  0.00  0.00    +0.000 A 
ATOM     18  C   UNL     1      45.103   4.351   9.821  0.00  0.00    +0.000 A 
ATOM     19  C   UNL     1      44.496   3.132  10.108  0.00  0.00    +0.000 A 
ATOM     20  C   UNL     1      44.699   2.060   9.251  0.00  0.00    +0.000 A 
ATOM     21  N   UNL     1      45.461   2.121   8.141  0.00  0.00    +0.000 NA
BRANCH  16  23
ATOM     22  N   UNL     1      48.118   2.745   6.715  0.00  0.00    +0.000 N 
ATOM     23  C   UNL     1      46.911   3.388   6.665  0.00  0.00    +0.000 C 
ATOM     24  O   UNL     1      46.548   3.973   5.648  0.00  0.00    +0.000 OA
ATOM     25  H   UNL     1      48.659   2.691   5.865  0.00  0.00    +0.000 HD
ATOM     26  H   UNL     1      48.313   2.106   7.478  0.00  0.00    +0.000 HD
ENDBRANCH  16  23
ENDBRANCH  15  18
ENDBRANCH   1  15
TORSDOF 5
ENDMDL
MODEL 8
REMARK VINA RESULT:    -6.159      2.520      3.094
REMARK INTER + INTRA:          -8.909
REMARK INTER:                  -8.568
REMARK INTRA:                  -0.340
REMARK UNBOUND:                -0.949
REMARK  Name = 
REMARK  5 active torsions:
REMARK  status: ('A' for Active; 'I' for Inactive)
REMARK    1  A    between atoms: C_2  and  C_4
REMARK    2  A    between atoms: C_6  and  O_7
REMARK    3  A    between atoms: O_7  and  C_8
REMARK    4  A    between atoms: C_8  and  C_9
REMARK    5  A    between atoms: C_14  and  N_15
REMARK                            x       y       z     vdW  Elec       q    Type
REMARK                         _______ _______ _______ _____ _____    ______ ____
ROOT
ATOM      1  C   UNL     1      44.079   5.152  10.984  0.00  0.00    +0.000 C 
ENDROOT
BRANCH   1   2
ATOM      2  C   UNL     1      45.000   6.258  11.449  0.00  0.00    +0.000 A 
ATOM      3  C   UNL     1      46.321   5.981  11.818  0.00  0.00    +0.000 A 
ATOM      4  C   UNL     1      47.170   7.013  12.212  0.00  0.00    +0.000 A 
ATOM      5  C   UNL     1      46.707   8.328  12.223  0.00  0.00    +0.000 A 
ATOM      6  F   UNL     1      47.560   9.284  12.625  0.00  0.00    +0.000 F 
ATOM      7  C   UNL     1      45.391   8.657  11.857  0.00  0.00    +0.000 A 
ATOM      8  C   UNL     1      44.548   7.590  11.494  0.00  0.00    +0.000 A 
BRANCH   7   9
ATOM      9  N   UNL     1      44.911   9.956  11.776  0.00  0.00    +0.000 N 
ATOM     10  C   UNL     1      43.561  10.242  11.265  0.00  0.00    +0.000 C 
ATOM     11  C   UNL     1      43.610  10.982   9.923  0.00  0.00    +0.000 C 
ATOM     12  O   UNL     1      44.449  12.146   9.993  0.00  0.00    +0.000 OA
ATOM     13  C   UNL     1      45.792  11.760  10.327  0.00  0.00    +0.000 C 
ATOM     14  C   UNL     1      45.862  11.077  11.703  0.00  0.00    +0.000 C 
ENDBRANCH   7   9
ENDBRANCH   1   2
BRANCH   1  15
ATOM     15  O   UNL     1      44.146   5.042   9.564  0.00  0.00    +0.000 OA
BRANCH  15  18
ATOM     16  C   UNL     1      46.316   2.727   7.682  0.00  0.00    +0.000 A 
ATOM     17  C   UNL     1      45.780   3.952   8.079  0.00  0.00    +0.000 A 
ATOM     18  C   UNL     1      44.781   3.945   9.046  0.00  0.00    +0.000 A 
ATOM     19  C   UNL     1      44.365   2.727   9.574  0.00  0.00    +0.000 A 
ATOM     20  C   UNL     1      44.952   1.557   9.113  0.00  0.00    +0.000 A 
ATOM     21  N   UNL     1      45.917   1.522   8.173  0.00  0.00    +0.000 NA
BRANCH  16  23
ATOM     22  N   UNL     1      47.192   3.434   5.513  0.00  0.00    +0.000 N 
ATOM     23  C   UNL     1      47.396   2.695   6.647  0.00  0.00    +0.000 C 
ATOM     24  O   UNL     1      48.433   2.056   6.807  0.00  0.00    +0.000 OA
ATOM     25  H   UNL     1      47.954   3.508   4.855  0.00  0.00    +0.000 HD
ATOM     26  H   UNL     1      46.433   4.107   5.485  0.00  0.00    +0.000 HD
ENDBRANCH  16  23
ENDBRANCH  15  18
ENDBRANCH   1  15
TORSDOF 5
ENDMDL
MODEL 9
REMARK VINA RESULT:    -6.041      4.042      8.238
REMARK INTER + INTRA:          -8.755
REMARK INTER:                  -8.011
REMARK INTRA:                  -0.744
REMARK UNBOUND:                -0.949
REMARK  Name = 
REMARK  5 active torsions:
REMARK  status: ('A' for Active; 'I' for Inactive)
REMARK    1  A    between atoms: C_2  and  C_4
REMARK    2  A    between atoms: C_6  and  O_7
REMARK    3  A    between atoms: O_7  and  C_8
REMARK    4  A    between atoms: C_8  and  C_9
REMARK    5  A    between atoms: C_14  and  N_15
REMARK                            x       y       z     vdW  Elec       q    Type
REMARK                         _______ _______ _______ _____ _____    ______ ____
ROOT
ATOM      1  C   UNL     1      48.001   6.292  14.163  0.00  0.00    +0.000 C 
ENDROOT
BRANCH   1   2
ATOM      2  C   UNL     1      46.869   6.856  13.332  0.00  0.00    +0.000 A 
ATOM      3  C   UNL     1      46.665   8.238  13.247  0.00  0.00    +0.000 A 
ATOM      4  C   UNL     1      45.641   8.747  12.452  0.00  0.00    +0.000 A 
ATOM      5  C   UNL     1      44.826   7.878  11.726  0.00  0.00    +0.000 A 
ATOM      6  F   UNL     1      43.845   8.419  10.986  0.00  0.00    +0.000 F 
ATOM      7  C   UNL     1      44.995   6.484  11.775  0.00  0.00    +0.000 A 
ATOM      8  C   UNL     1      46.018   5.998  12.611  0.00  0.00    +0.000 A 
BRANCH   7   9
ATOM      9  N   UNL     1      44.263   5.588  11.011  0.00  0.00    +0.000 N 
ATOM     10  C   UNL     1      42.994   5.026  11.498  0.00  0.00    +0.000 C 
ATOM     11  C   UNL     1      43.112   3.523  11.780  0.00  0.00    +0.000 C 
ATOM     12  O   UNL     1      43.650   2.816  10.650  0.00  0.00    +0.000 OA
ATOM     13  C   UNL     1      44.965   3.307  10.348  0.00  0.00    +0.000 C 
ATOM     14  C   UNL     1      44.943   4.798   9.971  0.00  0.00    +0.000 C 
ENDBRANCH   7   9
ENDBRANCH   1   2
BRANCH   1  15
ATOM     15  O   UNL     1      47.653   4.986  14.616  0.00  0.00    +0.000 OA
BRANCH  15  18
ATOM     16  C   UNL     1      48.565   5.081  18.190  0.00  0.00    +0.000 A 
ATOM     17  C   UNL     1      48.385   5.566  16.895  0.00  0.00    +0.000 A 
ATOM     18  C   UNL     1      47.901   4.689  15.931  0.00  0.00    +0.000 A 
ATOM     19  C   UNL     1      47.616   3.377  16.297  0.00  0.00    +0.000 A 
ATOM     20  C   UNL     1      47.834   2.982  17.609  0.00  0.00    +0.000 A 
ATOM     21  N   UNL     1      48.308   3.800  18.570  0.00  0.00    +0.000 NA
BRANCH  16  23
ATOM     22  N   UNL     1      48.308   6.138  20.378  0.00  0.00    +0.000 N 
ATOM     23  C   UNL     1      49.080   5.996  19.257  0.00  0.00    +0.000 C 
ATOM     24  O   UNL     1      50.156   6.579  19.151  0.00  0.00    +0.000 OA
ATOM     25  H   UNL     1      48.690   6.666  21.149  0.00  0.00    +0.000 HD
ATOM     26  H   UNL     1      47.533   5.504  20.536  0.00  0.00    +0.000 HD
ENDBRANCH  16  23
ENDBRANCH  15  18
ENDBRANCH   1  15
TORSDOF 5
ENDMDL
