MODEL 1
REMARK VINA RESULT:    -6.748      0.000      0.000
REMARK INTER + INTRA:          -9.252
REMARK INTER:                  -8.326
REMARK INTRA:                  -0.926
REMARK UNBOUND:                -0.926
REMARK  Name = 
REMARK  6 active torsions:
REMARK  status: ('A' for Active; 'I' for Inactive)
REMARK    1  A    between atoms: C_1  and  C_2
REMARK    2  A    between atoms: C_4  and  C_5
REMARK    3  A    between atoms: C_7  and  O_8
REMARK    4  A    between atoms: O_8  and  C_9
REMARK    5  A    between atoms: C_9  and  C_10
REMARK    6  A    between atoms: C_14  and  C_15
REMARK                            x       y       z     vdW  Elec       q    Type
REMARK                         _______ _______ _______ _____ _____    ______ ____
ROOT
ATOM      1  C   UNL     1      45.972   7.579  12.442  0.00  0.00    +0.000 C 
ATOM      2  C   UNL     1      47.073   7.281  13.462  0.00  0.00    +0.000 C 
ATOM      3  C   UNL     1      47.440   7.627  12.060  0.00  0.00    +0.000 C 
ENDROOT
BRANCH   1   4
ATOM      4  C   UNL     1      45.153   6.428  11.868  0.00  0.00    +0.000 A 
ATOM      5  C   UNL     1      43.805   6.252  12.218  0.00  0.00    +0.000 A 
ATOM      6  C   UNL     1      43.014   5.273  11.619  0.00  0.00    +0.000 A 
ATOM      7  C   UNL     1      43.553   4.461  10.625  0.00  0.00    +0.000 A 
ATOM      8  C   UNL     1      44.892   4.597  10.226  0.00  0.00    +0.000 A 
ATOM      9  C   UNL     1      45.677   5.559  10.893  0.00  0.00    +0.000 A 
BRANCH   8  10
ATOM     10  C   UNL     1      45.445   3.823   9.098  0.00  0.00    +0.000 A 
ATOM     11  C   UNL     1      45.501   2.423   9.101  0.00  0.00    +0.000 A 
ATOM     12  C   UNL     1      46.088   1.733   8.041  0.00  0.00    +0.000 A 
ATOM     13  C   UNL     1      46.597   2.462   6.983  0.00  0.00    +0.000 A 
ATOM     14  N   UNL     1      46.564   3.809   6.922  0.00  0.00    +0.000 NA
ATOM     15  C   UNL     1      46.000   4.448   7.976  0.00  0.00    +0.000 A 
ENDBRANCH   8  10
ENDBRANCH   1   4
BRANCH   1  16
ATOM     16  O   UNL     1      45.280   8.793  12.821  0.00  0.00    +0.000 OA
BRANCH  16  23
ATOM     17  C   UNL     1      42.907  10.772   9.085  0.00  0.00    +0.000 C 
ATOM     18  C   UNL     1      44.042  10.791  10.062  0.00  0.00    +0.000 A 
ATOM     19  C   UNL     1      45.012  11.799  10.037  0.00  0.00    +0.000 A 
ATOM     20  C   UNL     1      46.051  11.762  10.966  0.00  0.00    +0.000 A 
ATOM     21  C   UNL     1      47.131  12.801  10.950  0.00  0.00    +0.000 C 
ATOM     22  N   UNL     1      46.158  10.801  11.912  0.00  0.00    +0.000 NA
ATOM     23  C   UNL     1      45.225   9.827  11.909  0.00  0.00    +0.000 A 
ATOM     24  C   UNL     1      44.154   9.791  11.023  0.00  0.00    +0.000 A 
ENDBRANCH  16  23
ENDBRANCH   1  16
TORSDOF 4
ENDMDL
MODEL 2
REMARK VINA RESULT:    -6.690      0.584      1.761
REMARK INTER + INTRA:          -9.179
REMARK INTER:                  -8.356
REMARK INTRA:                  -0.824
REMARK UNBOUND:                -0.926
REMARK  Name = 
REMARK  6 active torsions:
REMARK  status: ('A' for Active; 'I' for Inactive)
REMARK    1  A    between atoms: C_1  and  C_2
REMARK    2  A    between atoms: C_4  and  C_5
REMARK    3  A    between atoms: C_7  and  O_8
REMARK    4  A    between atoms: O_8  and  C_9
REMARK    5  A    between atoms: C_9  and  C_10
REMARK    6  A    between atoms: C_14  and  C_15
REMARK                            x       y       z     vdW  Elec       q    Type
REMARK                         _______ _______ _______ _____ _____    ______ ____
ROOT
ATOM      1  C   UNL     1      46.018   7.497  12.380  0.00  0.00    +0.000 C 
ATOM      2  C   UNL     1      47.092   7.163  13.418  0.00  0.00    +0.000 C 
ATOM      3  C   UNL     1      47.494   7.508  12.024  0.00  0.00    +0.000 C 
ENDROOT
BRANCH   1   4
ATOM      4  C   UNL     1      45.180   6.372  11.784  0.00  0.00    +0.000 A 
ATOM      5  C   UNL     1      43.819   6.236  12.102  0.00  0.00    +0.000 A 
ATOM      6  C   UNL     1      43.013   5.282  11.483  0.00  0.00    +0.000 A 
ATOM      7  C   UNL     1      43.551   4.456  10.499  0.00  0.00    +0.000 A 
ATOM      8  C   UNL     1      44.902   4.553  10.131  0.00  0.00    +0.000 A 
ATOM      9  C   UNL     1      45.700   5.490  10.819  0.00  0.00    +0.000 A 
BRANCH   8  10
ATOM     10  C   UNL     1      45.457   3.765   9.015  0.00  0.00    +0.000 A 
ATOM     11  C   UNL     1      45.533   2.367   9.043  0.00  0.00    +0.000 A 
ATOM     12  C   UNL     1      46.122   1.664   7.993  0.00  0.00    +0.000 A 
ATOM     13  C   UNL     1      46.613   2.381   6.917  0.00  0.00    +0.000 A 
ATOM     14  N   UNL     1      46.561   3.725   6.830  0.00  0.00    +0.000 NA
ATOM     15  C   UNL     1      45.996   4.376   7.876  0.00  0.00    +0.000 A 
ENDBRANCH   8  10
ENDBRANCH   1   4
BRANCH   1  16
ATOM     16  O   UNL     1      45.353   8.727  12.754  0.00  0.00    +0.000 OA
BRANCH  16  23
ATOM     17  C   UNL     1      47.154  12.781  10.799  0.00  0.00    +0.000 C 
ATOM     18  C   UNL     1      46.106  11.713  10.842  0.00  0.00    +0.000 A 
ATOM     19  C   UNL     1      45.015  11.722   9.964  0.00  0.00    +0.000 A 
ATOM     20  C   UNL     1      44.066  10.706  10.055  0.00  0.00    +0.000 A 
ATOM     21  C   UNL     1      42.863  10.698   9.161  0.00  0.00    +0.000 C 
ATOM     22  N   UNL     1      44.156   9.691  10.945  0.00  0.00    +0.000 NA
ATOM     23  C   UNL     1      45.204   9.708  11.795  0.00  0.00    +0.000 A 
ATOM     24  C   UNL     1      46.198  10.680  11.770  0.00  0.00    +0.000 A 
ENDBRANCH  16  23
ENDBRANCH   1  16
TORSDOF 4
ENDMDL
MODEL 3
REMARK VINA RESULT:    -6.633      3.562      6.295
REMARK INTER + INTRA:          -9.109
REMARK INTER:                  -8.184
REMARK INTRA:                  -0.926
REMARK UNBOUND:                -0.926
REMARK  Name = 
REMARK  6 active torsions:
REMARK  status: ('A' for Active; 'I' for Inactive)
REMARK    1  A    between atoms: C_1  and  C_2
REMARK    2  A    between atoms: C_4  and  C_5
REMARK    3  A    between atoms: C_7  and  O_8
REMARK    4  A    between atoms: O_8  and  C_9
REMARK    5  A    between atoms: C_9  and  C_10
REMARK    6  A    between atoms: C_14  and  C_15
REMARK                            x       y       z     vdW  Elec       q    Type
REMARK                         _______ _______ _______ _____ _____    ______ ____
ROOT
ATOM      1  C   UNL     1      49.072   7.665  14.034  0.00  0.00    +0.000 C 
ATOM      2  C   UNL     1      50.208   8.243  13.187  0.00  0.00    +0.000 C 
ATOM      3  C   UNL     1      49.649   9.040  14.315  0.00  0.00    +0.000 C 
ENDROOT
BRANCH   1   4
ATOM      4  C   UNL     1      47.661   7.619  13.459  0.00  0.00    +0.000 A 
ATOM      5  C   UNL     1      46.812   8.734  13.533  0.00  0.00    +0.000 A 
ATOM      6  C   UNL     1      45.561   8.746  12.918  0.00  0.00    +0.000 A 
ATOM      7  C   UNL     1      45.143   7.641  12.182  0.00  0.00    +0.000 A 
ATOM      8  C   UNL     1      45.953   6.501  12.063  0.00  0.00    +0.000 A 
ATOM      9  C   UNL     1      47.186   6.503  12.747  0.00  0.00    +0.000 A 
BRANCH   8  10
ATOM     10  C   UNL     1      45.573   5.369  11.196  0.00  0.00    +0.000 A 
ATOM     11  C   UNL     1      45.657   5.429   9.799  0.00  0.00    +0.000 A 
ATOM     12  C   UNL     1      45.231   4.359   9.014  0.00  0.00    +0.000 A 
ATOM     13  C   UNL     1      44.738   3.234   9.649  0.00  0.00    +0.000 A 
ATOM     14  N   UNL     1      44.641   3.116  10.988  0.00  0.00    +0.000 NA
ATOM     15  C   UNL     1      45.051   4.181  11.720  0.00  0.00    +0.000 A 
ENDBRANCH   8  10
ENDBRANCH   1   4
BRANCH   1  16
ATOM     16  O   UNL     1      49.556   6.512  14.764  0.00  0.00    +0.000 OA
BRANCH  16  23
ATOM     17  C   UNL     1      48.187   7.861  19.216  0.00  0.00    +0.000 C 
ATOM     18  C   UNL     1      48.237   6.836  18.125  0.00  0.00    +0.000 A 
ATOM     19  C   UNL     1      47.668   5.567  18.287  0.00  0.00    +0.000 A 
ATOM     20  C   UNL     1      47.752   4.650  17.241  0.00  0.00    +0.000 A 
ATOM     21  C   UNL     1      47.191   3.267  17.386  0.00  0.00    +0.000 C 
ATOM     22  N   UNL     1      48.345   4.934  16.058  0.00  0.00    +0.000 NA
ATOM     23  C   UNL     1      48.904   6.154  15.927  0.00  0.00    +0.000 A 
ATOM     24  C   UNL     1      48.861   7.130  16.916  0.00  0.00    +0.000 A 
ENDBRANCH  16  23
ENDBRANCH   1  16
TORSDOF 4
ENDMDL
MODEL 4
REMARK VINA RESULT:    -6.400      2.586      5.148
REMARK INTER + INTRA:          -8.822
REMARK INTER:                  -8.041
REMARK INTRA:                  -0.781
REMARK UNBOUND:                -0.926
REMARK  Name = 
REMARK  6 active torsions:
REMARK  status: ('A' for Active; 'I' for Inactive)
REMARK    1  A    between atoms: C_1  and  C_2
REMARK    2  A    between atoms: C_4  and  C_5
REMARK    3  A    between atoms: C_7  and  O_8
REMARK    4  A    between atoms: O_8  and  C_9
REMARK    5  A    between atoms: C_9  and  C_10
REMARK    6  A    between atoms: C_14  and  C_15
REMARK                            x       y       z     vdW  Elec       q    Type
REMARK                         _______ _______ _______ _____ _____    ______ ____
ROOT
ATOM      1  C   UNL     1      46.599   7.423  12.527  0.00  0.00    +0.000 C 
ATOM      2  C   UNL     1      46.779   8.847  11.995  0.00  0.00    +0.000 C 
ATOM      3  C   UNL     1      46.060   8.624  13.282  0.00  0.00    +0.000 C 
ENDROOT
BRANCH   1   4
ATOM      4  C   UNL     1      45.571   6.506  11.876  0.00  0.00    +0.000 A 
ATOM      5  C   UNL     1      44.196   6.692  12.089  0.00  0.00    +0.000 A 
ATOM      6  C   UNL     1      43.240   5.934  11.416  0.00  0.00    +0.000 A 
ATOM      7  C   UNL     1      43.644   4.984  10.482  0.00  0.00    +0.000 A 
ATOM      8  C   UNL     1      45.004   4.760  10.218  0.00  0.00    +0.000 A 
ATOM      9  C   UNL     1      45.943   5.506  10.959  0.00  0.00    +0.000 A 
BRANCH   8  10
ATOM     10  C   UNL     1      45.444   3.840   9.152  0.00  0.00    +0.000 A 
ATOM     11  C   UNL     1      46.010   4.290   7.953  0.00  0.00    +0.000 A 
ATOM     12  C   UNL     1      46.356   3.389   6.946  0.00  0.00    +0.000 A 
ATOM     13  C   UNL     1      46.141   2.042   7.168  0.00  0.00    +0.000 A 
ATOM     14  N   UNL     1      45.607   1.550   8.304  0.00  0.00    +0.000 NA
ATOM     15  C   UNL     1      45.269   2.455   9.255  0.00  0.00    +0.000 A 
ENDBRANCH   8  10
ENDBRANCH   1   4
BRANCH   1  16
ATOM     16  O   UNL     1      47.893   6.871  12.870  0.00  0.00    +0.000 OA
BRANCH  16  23
ATOM     17  C   UNL     1      49.912   7.927  17.150  0.00  0.00    +0.000 C 
ATOM     18  C   UNL     1      49.114   7.005  16.281  0.00  0.00    +0.000 A 
ATOM     19  C   UNL     1      48.628   5.783  16.761  0.00  0.00    +0.000 A 
ATOM     20  C   UNL     1      47.898   4.961  15.905  0.00  0.00    +0.000 A 
ATOM     21  C   UNL     1      47.392   3.628  16.367  0.00  0.00    +0.000 C 
ATOM     22  N   UNL     1      47.616   5.297  14.624  0.00  0.00    +0.000 NA
ATOM     23  C   UNL     1      48.108   6.469  14.172  0.00  0.00    +0.000 A 
ATOM     24  C   UNL     1      48.840   7.350  14.960  0.00  0.00    +0.000 A 
ENDBRANCH  16  23
ENDBRANCH   1  16
TORSDOF 4
ENDMDL
MODEL 5
REMARK VINA RESULT:    -6.203      3.258      5.815
REMARK INTER + INTRA:          -8.580
REMARK INTER:                  -7.790
REMARK INTRA:                  -0.790
REMARK UNBOUND:                -0.926
REMARK  Name = 
REMARK  6 active torsions:
REMARK  status: ('A' for Active; 'I' for Inactive)
REMARK    1  A    between atoms: C_1  and  C_2
REMARK    2  A    between atoms: C_4  and  C_5
REMARK    3  A    between atoms: C_7  and  O_8
REMARK    4  A    between atoms: O_8  and  C_9
REMARK    5  A    between atoms: C_9  and  C_10
REMARK    6  A    between atoms: C_14  and  C_15
REMARK                            x       y       z     vdW  Elec       q    Type
REMARK                         _______ _______ _______ _____ _____    ______ ____
ROOT
ATOM      1  C   UNL     1      48.644   7.677  13.745  0.00  0.00    +0.000 C 
ATOM      2  C   UNL     1      49.769   8.391  12.991  0.00  0.00    +0.000 C 
ATOM      3  C   UNL     1      49.102   9.069  14.139  0.00  0.00    +0.000 C 
ENDROOT
BRANCH   1   4
ATOM      4  C   UNL     1      47.266   7.567  13.102  0.00  0.00    +0.000 A 
ATOM      5  C   UNL     1      46.347   8.627  13.171  0.00  0.00    +0.000 A 
ATOM      6  C   UNL     1      45.128   8.585  12.497  0.00  0.00    +0.000 A 
ATOM      7  C   UNL     1      44.813   7.484  11.706  0.00  0.00    +0.000 A 
ATOM      8  C   UNL     1      45.696   6.399  11.590  0.00  0.00    +0.000 A 
ATOM      9  C   UNL     1      46.894   6.451  12.332  0.00  0.00    +0.000 A 
BRANCH   8  10
ATOM     10  C   UNL     1      45.426   5.278  10.669  0.00  0.00    +0.000 A 
ATOM     11  C   UNL     1      44.868   4.068  11.098  0.00  0.00    +0.000 A 
ATOM     12  C   UNL     1      44.686   3.012  10.206  0.00  0.00    +0.000 A 
ATOM     13  C   UNL     1      45.057   3.195   8.887  0.00  0.00    +0.000 A 
ATOM     14  N   UNL     1      45.591   4.339   8.415  0.00  0.00    +0.000 NA
ATOM     15  C   UNL     1      45.767   5.339   9.313  0.00  0.00    +0.000 A 
ENDBRANCH   8  10
ENDBRANCH   1   4
BRANCH   1  16
ATOM     16  O   UNL     1      49.181   6.517  14.424  0.00  0.00    +0.000 OA
BRANCH  16  23
ATOM     17  C   UNL     1      47.051   3.345  17.409  0.00  0.00    +0.000 C 
ATOM     18  C   UNL     1      47.695   4.676  17.170  0.00  0.00    +0.000 A 
ATOM     19  C   UNL     1      47.835   5.616  18.198  0.00  0.00    +0.000 A 
ATOM     20  C   UNL     1      48.435   6.842  17.916  0.00  0.00    +0.000 A 
ATOM     21  C   UNL     1      48.571   7.892  18.977  0.00  0.00    +0.000 C 
ATOM     22  N   UNL     1      48.911   7.164  16.691  0.00  0.00    +0.000 NA
ATOM     23  C   UNL     1      48.751   6.254  15.708  0.00  0.00    +0.000 A 
ATOM     24  C   UNL     1      48.169   5.007  15.904  0.00  0.00    +0.000 A 
ENDBRANCH  16  23
ENDBRANCH   1  16
TORSDOF 4
ENDMDL
MODEL 6
REMARK VINA RESULT:    -5.939      4.575      7.634
REMARK INTER + INTRA:          -8.254
REMARK INTER:                  -7.517
REMARK INTRA:                  -0.737
REMARK UNBOUND:                -0.926
REMARK  Name = 
REMARK  6 active torsions:
REMARK  status: ('A' for Active; 'I' for Inactive)
REMARK    1  A    between atoms: C_1  and  C_2
REMARK    2  A    between atoms: C_4  and  C_5
REMARK    3  A    between atoms: C_7  and  O_8
REMARK    4  A    between atoms: O_8  and  C_9
REMARK    5  A    between atoms: C_9  and  C_10
REMARK    6  A    between atoms: C_14  and  C_15
REMARK                            x       y       z     vdW  Elec       q    Type
REMARK                         _______ _______ _______ _____ _____    ______ ____
ROOT
ATOM      1  C   UNL     1      49.459   7.453  15.552  0.00  0.00    +0.000 C 
ATOM      2  C   UNL     1      50.148   8.774  15.902  0.00  0.00    +0.000 C 
ATOM      3  C   UNL     1      48.866   8.410  16.569  0.00  0.00    +0.000 C 
ENDROOT
BRANCH   1   4
ATOM      4  C   UNL     1      48.723   7.324  14.223  0.00  0.00    +0.000 A 
ATOM      5  C   UNL     1      49.301   7.776  13.027  0.00  0.00    +0.000 A 
ATOM      6  C   UNL     1      48.690   7.566  11.792  0.00  0.00    +0.000 A 
ATOM      7  C   UNL     1      47.489   6.865  11.725  0.00  0.00    +0.000 A 
ATOM      8  C   UNL     1      46.868   6.379  12.887  0.00  0.00    +0.000 A 
ATOM      9  C   UNL     1      47.487   6.660  14.122  0.00  0.00    +0.000 A 
BRANCH   8  10
ATOM     10  C   UNL     1      45.657   5.539  12.822  0.00  0.00    +0.000 A 
ATOM     11  C   UNL     1      44.367   6.080  12.756  0.00  0.00    +0.000 A 
ATOM     12  C   UNL     1      43.247   5.251  12.758  0.00  0.00    +0.000 A 
ATOM     13  C   UNL     1      43.442   3.883  12.812  0.00  0.00    +0.000 A 
ATOM     14  N   UNL     1      44.658   3.305  12.870  0.00  0.00    +0.000 NA
ATOM     15  C   UNL     1      45.725   4.142  12.881  0.00  0.00    +0.000 A 
ENDBRANCH   8  10
ENDBRANCH   1   4
BRANCH   1  16
ATOM     16  O   UNL     1      50.286   6.349  15.990  0.00  0.00    +0.000 OA
BRANCH  16  23
ATOM     17  C   UNL     1      47.186   2.930  17.477  0.00  0.00    +0.000 C 
ATOM     18  C   UNL     1      48.301   3.888  17.763  0.00  0.00    +0.000 A 
ATOM     19  C   UNL     1      48.852   4.008  19.044  0.00  0.00    +0.000 A 
ATOM     20  C   UNL     1      49.882   4.922  19.255  0.00  0.00    +0.000 A 
ATOM     21  C   UNL     1      50.474   5.111  20.619  0.00  0.00    +0.000 C 
ATOM     22  N   UNL     1      50.396   5.692  18.268  0.00  0.00    +0.000 NA
ATOM     23  C   UNL     1      49.841   5.577  17.044  0.00  0.00    +0.000 A 
ATOM     24  C   UNL     1      48.815   4.688  16.747  0.00  0.00    +0.000 A 
ENDBRANCH  16  23
ENDBRANCH   1  16
TORSDOF 4
ENDMDL
MODEL 7
REMARK VINA RESULT:    -5.914      4.271      7.169
REMARK INTER + INTRA:          -8.223
REMARK INTER:                  -7.629
REMARK INTRA:                  -0.594
REMARK UNBOUND:                -0.926
REMARK  Name = 
REMARK  6 active torsions:
REMARK  status: ('A' for Active; 'I' for Inactive)
REMARK    1  A    between atoms: C_1  and  C_2
REMARK    2  A    between atoms: C_4  and  C_5
REMARK    3  A    between atoms: C_7  and  O_8
REMARK    4  A    between atoms: O_8  and  C_9
REMARK    5  A    between atoms: C_9  and  C_10
REMARK    6  A    between atoms: C_14  and  C_15
REMARK                            x       y       z     vdW  Elec       q    Type
REMARK                         _______ _______ _______ _____ _____    ______ ____
ROOT
ATOM      1  C   UNL     1      50.098   7.532  15.217  0.00  0.00    +0.000 C 
ATOM      2  C   UNL     1      51.412   8.014  14.599  0.00  0.00    +0.000 C 
ATOM      3  C   UNL     1      50.773   8.808  15.686  0.00  0.00    +0.000 C 
ENDROOT
BRANCH   1   4
ATOM      4  C   UNL     1      48.800   7.694  14.433  0.00  0.00    +0.000 A 
ATOM      5  C   UNL     1      48.360   8.959  14.013  0.00  0.00    +0.000 A 
ATOM      6  C   UNL     1      47.236   9.112  13.204  0.00  0.00    +0.000 A 
ATOM      7  C   UNL     1      46.540   7.989  12.767  0.00  0.00    +0.000 A 
ATOM      8  C   UNL     1      46.939   6.697  13.145  0.00  0.00    +0.000 A 
ATOM      9  C   UNL     1      48.046   6.584  14.011  0.00  0.00    +0.000 A 
BRANCH   8  10
ATOM     10  C   UNL     1      46.281   5.494  12.601  0.00  0.00    +0.000 A 
ATOM     11  C   UNL     1      45.577   5.502  11.390  0.00  0.00    +0.000 A 
ATOM     12  C   UNL     1      44.918   4.358  10.942  0.00  0.00    +0.000 A 
ATOM     13  C   UNL     1      44.991   3.213  11.713  0.00  0.00    +0.000 A 
ATOM     14  N   UNL     1      45.660   3.143  12.882  0.00  0.00    +0.000 NA
ATOM     15  C   UNL     1      46.276   4.278  13.294  0.00  0.00    +0.000 A 
ENDBRANCH   8  10
ENDBRANCH   1   4
BRANCH   1  16
ATOM     16  O   UNL     1      50.325   6.289  15.922  0.00  0.00    +0.000 OA
BRANCH  16  23
ATOM     17  C   UNL     1      47.697   7.345  19.857  0.00  0.00    +0.000 C 
ATOM     18  C   UNL     1      48.076   6.395  18.763  0.00  0.00    +0.000 A 
ATOM     19  C   UNL     1      47.499   5.124  18.664  0.00  0.00    +0.000 A 
ATOM     20  C   UNL     1      47.896   4.279  17.630  0.00  0.00    +0.000 A 
ATOM     21  C   UNL     1      47.332   2.895  17.510  0.00  0.00    +0.000 C 
ATOM     22  N   UNL     1      48.806   4.637  16.695  0.00  0.00    +0.000 NA
ATOM     23  C   UNL     1      49.366   5.859  16.816  0.00  0.00    +0.000 A 
ATOM     24  C   UNL     1      49.024   6.765  17.813  0.00  0.00    +0.000 A 
ENDBRANCH  16  23
ENDBRANCH   1  16
TORSDOF 4
ENDMDL
MODEL 8
REMARK VINA RESULT:    -5.865      2.386      3.432
REMARK INTER + INTRA:          -8.162
REMARK INTER:                  -7.318
REMARK INTRA:                  -0.845
REMARK UNBOUND:                -0.926
REMARK  Name = 
REMARK  6 active torsions:
REMARK  status: ('A' for Active; 'I' for Inactive)
REMARK    1  A    between atoms: C_1  and  C_2
REMARK    2  A    between atoms: C_4  and  C_5
REMARK    3  A    between atoms: C_7  and  O_8
REMARK    4  A    between atoms: O_8  and  C_9
REMARK    5  A    between atoms: C_9  and  C_10
REMARK    6  A    between atoms: C_14  and  C_15
REMARK                            x       y       z     vdW  Elec       q    Type
REMARK                         _______ _______ _______ _____ _____    ______ ____
ROOT
ATOM      1  C   UNL     1      48.758   8.432  12.191  0.00  0.00    +0.000 C 
ATOM      2  C   UNL     1      49.824   7.654  12.965  0.00  0.00    +0.000 C 
ATOM      3  C   UNL     1      49.820   7.618  11.475  0.00  0.00    +0.000 C 
ENDROOT
BRANCH   1   4
ATOM      4  C   UNL     1      47.332   7.896  12.137  0.00  0.00    +0.000 A 
ATOM      5  C   UNL     1      46.265   8.615  12.697  0.00  0.00    +0.000 A 
ATOM      6  C   UNL     1      44.944   8.193  12.560  0.00  0.00    +0.000 A 
ATOM      7  C   UNL     1      44.657   7.046  11.826  0.00  0.00    +0.000 A 
ATOM      8  C   UNL     1      45.682   6.291  11.233  0.00  0.00    +0.000 A 
ATOM      9  C   UNL     1      47.010   6.717  11.441  0.00  0.00    +0.000 A 
BRANCH   8  10
ATOM     10  C   UNL     1      45.387   5.139  10.359  0.00  0.00    +0.000 A 
ATOM     11  C   UNL     1      45.824   5.069   9.030  0.00  0.00    +0.000 A 
ATOM     12  C   UNL     1      45.472   3.991   8.220  0.00  0.00    +0.000 A 
ATOM     13  C   UNL     1      44.693   2.987   8.766  0.00  0.00    +0.000 A 
ATOM     14  N   UNL     1      44.250   2.996  10.039  0.00  0.00    +0.000 NA
ATOM     15  C   UNL     1      44.599   4.067  10.793  0.00  0.00    +0.000 A 
ENDBRANCH   8  10
ENDBRANCH   1   4
BRANCH   1  16
ATOM     16  O   UNL     1      48.951   9.852  12.402  0.00  0.00    +0.000 OA
BRANCH  16  23
ATOM     17  C   UNL     1      46.647  12.672   9.201  0.00  0.00    +0.000 C 
ATOM     18  C   UNL     1      47.910  12.057   9.720  0.00  0.00    +0.000 A 
ATOM     19  C   UNL     1      49.144  12.284   9.099  0.00  0.00    +0.000 A 
ATOM     20  C   UNL     1      50.286  11.678   9.620  0.00  0.00    +0.000 A 
ATOM     21  C   UNL     1      51.620  11.864   8.963  0.00  0.00    +0.000 C 
ATOM     22  N   UNL     1      50.264  10.891  10.720  0.00  0.00    +0.000 NA
ATOM     23  C   UNL     1      49.064  10.668  11.295  0.00  0.00    +0.000 A 
ATOM     24  C   UNL     1      47.878  11.236  10.843  0.00  0.00    +0.000 A 
ENDBRANCH  16  23
ENDBRANCH   1  16
TORSDOF 4
ENDMDL
MODEL 9
REMARK VINA RESULT:    -5.819      4.395      7.700
REMARK INTER + INTRA:          -8.105
REMARK INTER:                  -7.308
REMARK INTRA:                  -0.797
REMARK UNBOUND:                -0.926
REMARK  Name = 
REMARK  6 active torsions:
REMARK  status: ('A' for Active; 'I' for Inactive)
REMARK    1  A    between atoms: C_1  and  C_2
REMARK    2  A    between atoms: C_4  and  C_5
REMARK    3  A    between atoms: C_7  and  O_8
REMARK    4  A    between atoms: O_8  and  C_9
REMARK    5  A    between atoms: C_9  and  C_10
REMARK    6  A    between atoms: C_14  and  C_15
REMARK                            x       y       z     vdW  Elec       q    Type
REMARK                         _______ _______ _______ _____ _____    ______ ____
ROOT
ATOM      1  C   UNL     1      49.364   7.592  15.307  0.00  0.00    +0.000 C 
ATOM      2  C   UNL     1      49.943   8.939  15.746  0.00  0.00    +0.000 C 
ATOM      3  C   UNL     1      48.668   8.453  16.345  0.00  0.00    +0.000 C 
ENDROOT
BRANCH   1   4
ATOM      4  C   UNL     1      48.686   7.478  13.947  0.00  0.00    +0.000 A 
ATOM      5  C   UNL     1      49.398   7.710  12.760  0.00  0.00    +0.000 A 
ATOM      6  C   UNL     1      48.823   7.503  11.507  0.00  0.00    +0.000 A 
ATOM      7  C   UNL     1      47.519   7.025  11.416  0.00  0.00    +0.000 A 
ATOM      8  C   UNL     1      46.760   6.765  12.568  0.00  0.00    +0.000 A 
ATOM      9  C   UNL     1      47.355   7.041  13.816  0.00  0.00    +0.000 A 
BRANCH   8  10
ATOM     10  C   UNL     1      45.420   6.153  12.490  0.00  0.00    +0.000 A 
ATOM     11  C   UNL     1      45.067   5.015  13.224  0.00  0.00    +0.000 A 
ATOM     12  C   UNL     1      43.809   4.432  13.075  0.00  0.00    +0.000 A 
ATOM     13  C   UNL     1      42.915   5.016  12.196  0.00  0.00    +0.000 A 
ATOM     14  N   UNL     1      43.196   6.116  11.468  0.00  0.00    +0.000 NA
ATOM     15  C   UNL     1      44.433   6.646  11.628  0.00  0.00    +0.000 A 
ENDBRANCH   8  10
ENDBRANCH   1   4
BRANCH   1  16
ATOM     16  O   UNL     1      50.253   6.528  15.724  0.00  0.00    +0.000 OA
BRANCH  16  23
ATOM     17  C   UNL     1      50.985   4.968  20.256  0.00  0.00    +0.000 C 
ATOM     18  C   UNL     1      50.212   4.923  18.974  0.00  0.00    +0.000 A 
ATOM     19  C   UNL     1      49.130   4.052  18.802  0.00  0.00    +0.000 A 
ATOM     20  C   UNL     1      48.452   4.047  17.584  0.00  0.00    +0.000 A 
ATOM     21  C   UNL     1      47.313   3.103  17.344  0.00  0.00    +0.000 C 
ATOM     22  N   UNL     1      48.779   4.865  16.557  0.00  0.00    +0.000 NA
ATOM     23  C   UNL     1      49.835   5.685  16.734  0.00  0.00    +0.000 A 
ATOM     24  C   UNL     1      50.562   5.757  17.916  0.00  0.00    +0.000 A 
ENDBRANCH  16  23
ENDBRANCH   1  16
TORSDOF 4
ENDMDL
