MODEL 1
REMARK VINA RESULT:    -7.211      0.000      0.000
REMARK INTER + INTRA:         -11.018
REMARK INTER:                 -10.162
REMARK INTRA:                  -0.856
REMARK UNBOUND:                -0.856
REMARK  Name = 
REMARK  8 active torsions:
REMARK  status: ('A' for Active; 'I' for Inactive)
REMARK    1  A    between atoms: C_1  and  O_2
REMARK    2  A    between atoms: O_2  and  C_3
REMARK    3  A    between atoms: C_5  and  C_6
REMARK    4  A    between atoms: C_6  and  C_7
REMARK    5  A    between atoms: C_7  and  N_8
REMARK    6  A    between atoms: N_8  and  C_9
REMARK    7  A    between atoms: C_12  and  C_13
REMARK    8  A    between atoms: C_20  and  N_21
REMARK                            x       y       z     vdW  Elec       q    Type
REMARK                         _______ _______ _______ _____ _____    ______ ____
ROOT
ATOM      1  C   UNL     1      45.295   4.911  12.246  0.00  0.00    +0.000 C 
ENDROOT
BRANCH   1   4
ATOM      2  C   UNL     1      48.233   7.063  13.352  0.00  0.00    +0.000 A 
ATOM      3  C   UNL     1      47.175   6.566  12.593  0.00  0.00    +0.000 A 
ATOM      4  C   UNL     1      46.390   5.522  13.089  0.00  0.00    +0.000 A 
ATOM      5  C   UNL     1      46.692   4.982  14.352  0.00  0.00    +0.000 A 
ATOM      6  C   UNL     1      47.758   5.447  15.140  0.00  0.00    +0.000 A 
ATOM      7  C   UNL     1      48.500   6.515  14.618  0.00  0.00    +0.000 A 
BRANCH   6   8
ATOM      8  N   UNL     1      48.039   4.855  16.360  0.00  0.00    +0.000 N 
ATOM      9  C   UNL     1      49.027   5.392  17.308  0.00  0.00    +0.000 C 
ATOM     10  C   UNL     1      50.195   4.403  17.528  0.00  0.00    +0.000 C 
ATOM     11  N   UNL     1      49.755   3.042  17.905  0.00  0.00    +0.000 NA
ATOM     12  C   UNL     1      48.833   2.549  16.863  0.00  0.00    +0.000 C 
ATOM     13  C   UNL     1      47.612   3.468  16.622  0.00  0.00    +0.000 C 
ATOM     14  H   UNL     1      49.233   3.111  18.779  0.00  0.00    +0.000 HD
ENDBRANCH   6   8
BRANCH   2  16
ATOM     15  C   UNL     1      48.493   9.238  12.426  0.00  0.00    +0.000 C 
ATOM     16  O   UNL     1      49.087   8.062  12.965  0.00  0.00    +0.000 OA
ENDBRANCH   2  16
ENDBRANCH   1   4
BRANCH   1  17
ATOM     17  C   UNL     1      45.070   5.765  10.993  0.00  0.00    +0.000 C 
BRANCH  17  18
ATOM     18  N   UNL     1      44.317   5.042   9.964  0.00  0.00    +0.000 N 
ATOM     19  H   UNL     1      43.687   5.638   9.426  0.00  0.00    +0.000 HD
BRANCH  18  20
ATOM     20  C   UNL     1      45.074   4.218   9.100  0.00  0.00    +0.000 A 
ATOM     21  C   UNL     1      45.990   4.719   8.172  0.00  0.00    +0.000 A 
ATOM     22  N   UNL     1      46.780   3.974   7.363  0.00  0.00    +0.000 NA
ATOM     23  C   UNL     1      46.684   2.626   7.503  0.00  0.00    +0.000 A 
ATOM     24  C   UNL     1      45.843   2.004   8.407  0.00  0.00    +0.000 A 
ATOM     25  C   UNL     1      45.047   2.816   9.212  0.00  0.00    +0.000 A 
ATOM     26 CL   UNL     1      43.977   2.045  10.334  0.00  0.00    +0.000 Cl
BRANCH  23  27
ATOM     27  C   UNL     1      47.557   1.808   6.608  0.00  0.00    +0.000 C 
ATOM     28  N   UNL     1      48.603   2.479   6.030  0.00  0.00    +0.000 N 
ATOM     29  O   UNL     1      47.358   0.617   6.397  0.00  0.00    +0.000 OA
ATOM     30  H   UNL     1      48.738   3.462   6.230  0.00  0.00    +0.000 HD
ATOM     31  H   UNL     1      49.235   1.988   5.417  0.00  0.00    +0.000 HD
ENDBRANCH  23  27
ENDBRANCH  18  20
ENDBRANCH  17  18
ENDBRANCH   1  17
TORSDOF 7
ENDMDL
MODEL 2
REMARK VINA RESULT:    -7.175      3.607      8.017
REMARK INTER + INTRA:         -10.967
REMARK INTER:                 -10.206
REMARK INTRA:                  -0.761
REMARK UNBOUND:                -0.856
REMARK  Name = 
REMARK  8 active torsions:
REMARK  status: ('A' for Active; 'I' for Inactive)
REMARK    1  A    between atoms: C_1  and  O_2
REMARK    2  A    between atoms: O_2  and  C_3
REMARK    3  A    between atoms: C_5  and  C_6
REMARK    4  A    between atoms: C_6  and  C_7
REMARK    5  A    between atoms: C_7  and  N_8
REMARK    6  A    between atoms: N_8  and  C_9
REMARK    7  A    between atoms: C_12  and  C_13
REMARK    8  A    between atoms: C_20  and  N_21
REMARK                            x       y       z     vdW  Elec       q    Type
REMARK                         _______ _______ _______ _____ _____    ______ ____
ROOT
ATOM      1  C   UNL     1      47.733   5.754  14.405  0.00  0.00    +0.000 C 
ENDROOT
BRANCH   1   4
ATOM      2  C   UNL     1      45.650   8.143  12.298  0.00  0.00    +0.000 A 
ATOM      3  C   UNL     1      46.577   7.668  13.223  0.00  0.00    +0.000 A 
ATOM      4  C   UNL     1      46.797   6.294  13.348  0.00  0.00    +0.000 A 
ATOM      5  C   UNL     1      46.064   5.410  12.537  0.00  0.00    +0.000 A 
ATOM      6  C   UNL     1      45.111   5.850  11.604  0.00  0.00    +0.000 A 
ATOM      7  C   UNL     1      44.944   7.237  11.489  0.00  0.00    +0.000 A 
BRANCH   6   8
ATOM      8  N   UNL     1      44.387   4.937  10.856  0.00  0.00    +0.000 N 
ATOM      9  C   UNL     1      43.177   4.265  11.355  0.00  0.00    +0.000 C 
ATOM     10  C   UNL     1      43.378   2.735  11.450  0.00  0.00    +0.000 C 
ATOM     11  N   UNL     1      43.868   2.124  10.194  0.00  0.00    +0.000 NA
ATOM     12  C   UNL     1      45.122   2.801   9.809  0.00  0.00    +0.000 C 
ATOM     13  C   UNL     1      44.983   4.333   9.650  0.00  0.00    +0.000 C 
ATOM     14  H   UNL     1      43.177   2.306   9.465  0.00  0.00    +0.000 HD
ENDBRANCH   6   8
BRANCH   2  16
ATOM     15  C   UNL     1      46.404  10.343  11.796  0.00  0.00    +0.000 C 
ATOM     16  O   UNL     1      45.328   9.461  12.101  0.00  0.00    +0.000 OA
ENDBRANCH   2  16
ENDBRANCH   1   4
BRANCH   1  17
ATOM     17  C   UNL     1      47.041   4.628  15.181  0.00  0.00    +0.000 C 
BRANCH  17  18
ATOM     18  N   UNL     1      47.441   4.609  16.592  0.00  0.00    +0.000 N 
ATOM     19  H   UNL     1      46.677   4.376  17.228  0.00  0.00    +0.000 HD
BRANCH  18  20
ATOM     20  C   UNL     1      48.592   3.852  16.905  0.00  0.00    +0.000 A 
ATOM     21  C   UNL     1      48.747   2.511  16.546  0.00  0.00    +0.000 A 
ATOM     22  N   UNL     1      49.850   1.758  16.771  0.00  0.00    +0.000 NA
ATOM     23  C   UNL     1      50.897   2.386  17.368  0.00  0.00    +0.000 A 
ATOM     24  C   UNL     1      50.885   3.717  17.741  0.00  0.00    +0.000 A 
ATOM     25  C   UNL     1      49.724   4.446  17.493  0.00  0.00    +0.000 A 
ATOM     26 CL   UNL     1      49.693   6.109  17.975  0.00  0.00    +0.000 Cl
BRANCH  23  27
ATOM     27  C   UNL     1      52.112   1.551  17.614  0.00  0.00    +0.000 C 
ATOM     28  N   UNL     1      51.871   0.273  18.047  0.00  0.00    +0.000 N 
ATOM     29  O   UNL     1      53.250   1.973  17.444  0.00  0.00    +0.000 OA
ATOM     30  H   UNL     1      50.917  -0.041  18.172  0.00  0.00    +0.000 HD
ATOM     31  H   UNL     1      52.645  -0.347  18.229  0.00  0.00    +0.000 HD
ENDBRANCH  23  27
ENDBRANCH  18  20
ENDBRANCH  17  18
ENDBRANCH   1  17
TORSDOF 7
ENDMDL
MODEL 3
REMARK VINA RESULT:    -7.150      2.139      3.802
REMARK INTER + INTRA:         -10.932
REMARK INTER:                  -9.946
REMARK INTRA:                  -0.985
REMARK UNBOUND:                -0.856
REMARK  Name = 
REMARK  8 active torsions:
REMARK  status: ('A' for Active; 'I' for Inactive)
REMARK    1  A    between atoms: C_1  and  O_2
REMARK    2  A    between atoms: O_2  and  C_3
REMARK    3  A    between atoms: C_5  and  C_6
REMARK    4  A    between atoms: C_6  and  C_7
REMARK    5  A    between atoms: C_7  and  N_8
REMARK    6  A    between atoms: N_8  and  C_9
REMARK    7  A    between atoms: C_12  and  C_13
REMARK    8  A    between atoms: C_20  and  N_21
REMARK                            x       y       z     vdW  Elec       q    Type
REMARK                         _______ _______ _______ _____ _____    ______ ____
ROOT
ATOM      1  C   UNL     1      44.480   5.841  12.208  0.00  0.00    +0.000 C 
ENDROOT
BRANCH   1   4
ATOM      2  C   UNL     1      46.969   4.563  14.788  0.00  0.00    +0.000 A 
ATOM      3  C   UNL     1      45.836   4.654  13.982  0.00  0.00    +0.000 A 
ATOM      4  C   UNL     1      45.736   5.672  13.030  0.00  0.00    +0.000 A 
ATOM      5  C   UNL     1      46.787   6.599  12.910  0.00  0.00    +0.000 A 
ATOM      6  C   UNL     1      47.938   6.547  13.714  0.00  0.00    +0.000 A 
ATOM      7  C   UNL     1      48.011   5.492  14.633  0.00  0.00    +0.000 A 
BRANCH   6   8
ATOM      8  N   UNL     1      48.928   7.507  13.584  0.00  0.00    +0.000 N 
ATOM      9  C   UNL     1      49.116   8.607  14.542  0.00  0.00    +0.000 C 
ATOM     10  C   UNL     1      48.887   9.983  13.875  0.00  0.00    +0.000 C 
ATOM     11  N   UNL     1      49.685  10.184  12.645  0.00  0.00    +0.000 NA
ATOM     12  C   UNL     1      49.377   9.084  11.709  0.00  0.00    +0.000 C 
ATOM     13  C   UNL     1      49.628   7.675  12.296  0.00  0.00    +0.000 C 
ATOM     14  H   UNL     1      50.672  10.115  12.895  0.00  0.00    +0.000 HD
ENDBRANCH   6   8
BRANCH   2  16
ATOM     15  C   UNL     1      47.188   4.105  17.111  0.00  0.00    +0.000 C 
ATOM     16  O   UNL     1      47.172   3.628  15.770  0.00  0.00    +0.000 OA
ENDBRANCH   2  16
ENDBRANCH   1   4
BRANCH   1  17
ATOM     17  C   UNL     1      44.849   6.043  10.734  0.00  0.00    +0.000 C 
BRANCH  17  18
ATOM     18  N   UNL     1      44.043   5.201   9.846  0.00  0.00    +0.000 N 
ATOM     19  H   UNL     1      43.518   5.730   9.148  0.00  0.00    +0.000 HD
BRANCH  18  20
ATOM     20  C   UNL     1      44.710   4.112   9.241  0.00  0.00    +0.000 A 
ATOM     21  C   UNL     1      45.613   4.260   8.185  0.00  0.00    +0.000 A 
ATOM     22  N   UNL     1      46.321   3.260   7.608  0.00  0.00    +0.000 NA
ATOM     23  C   UNL     1      46.152   2.019   8.136  0.00  0.00    +0.000 A 
ATOM     24  C   UNL     1      45.316   1.744   9.202  0.00  0.00    +0.000 A 
ATOM     25  C   UNL     1      44.605   2.807   9.755  0.00  0.00    +0.000 A 
ATOM     26 CL   UNL     1      43.541   2.469  11.079  0.00  0.00    +0.000 Cl
BRANCH  23  27
ATOM     27  C   UNL     1      46.935   0.919   7.496  0.00  0.00    +0.000 C 
ATOM     28  N   UNL     1      47.883   1.319   6.591  0.00  0.00    +0.000 N 
ATOM     29  O   UNL     1      46.748  -0.264   7.756  0.00  0.00    +0.000 OA
ATOM     30  H   UNL     1      48.011   2.307   6.404  0.00  0.00    +0.000 HD
ATOM     31  H   UNL     1      48.451   0.630   6.124  0.00  0.00    +0.000 HD
ENDBRANCH  23  27
ENDBRANCH  18  20
ENDBRANCH  17  18
ENDBRANCH   1  17
TORSDOF 7
ENDMDL
MODEL 4
REMARK VINA RESULT:    -7.022      3.776      7.749
REMARK INTER + INTRA:         -10.752
REMARK INTER:                  -9.710
REMARK INTRA:                  -1.042
REMARK UNBOUND:                -0.856
REMARK  Name = 
REMARK  8 active torsions:
REMARK  status: ('A' for Active; 'I' for Inactive)
REMARK    1  A    between atoms: C_1  and  O_2
REMARK    2  A    between atoms: O_2  and  C_3
REMARK    3  A    between atoms: C_5  and  C_6
REMARK    4  A    between atoms: C_6  and  C_7
REMARK    5  A    between atoms: C_7  and  N_8
REMARK    6  A    between atoms: N_8  and  C_9
REMARK    7  A    between atoms: C_12  and  C_13
REMARK    8  A    between atoms: C_20  and  N_21
REMARK                            x       y       z     vdW  Elec       q    Type
REMARK                         _______ _______ _______ _____ _____    ______ ____
ROOT
ATOM      1  C   UNL     1      49.009   6.951  14.471  0.00  0.00    +0.000 C 
ENDROOT
BRANCH   1   4
ATOM      2  C   UNL     1      45.827   8.342  12.913  0.00  0.00    +0.000 A 
ATOM      3  C   UNL     1      47.106   8.276  13.462  0.00  0.00    +0.000 A 
ATOM      4  C   UNL     1      47.660   7.037  13.794  0.00  0.00    +0.000 A 
ATOM      5  C   UNL     1      46.906   5.871  13.574  0.00  0.00    +0.000 A 
ATOM      6  C   UNL     1      45.608   5.898  13.036  0.00  0.00    +0.000 A 
ATOM      7  C   UNL     1      45.103   7.159  12.689  0.00  0.00    +0.000 A 
BRANCH   6   8
ATOM      8  N   UNL     1      44.890   4.725  12.876  0.00  0.00    +0.000 N 
ATOM      9  C   UNL     1      45.472   3.493  12.321  0.00  0.00    +0.000 C 
ATOM     10  C   UNL     1      44.783   3.090  10.996  0.00  0.00    +0.000 C 
ATOM     11  N   UNL     1      43.310   3.004  11.099  0.00  0.00    +0.000 NA
ATOM     12  C   UNL     1      42.803   4.303  11.584  0.00  0.00    +0.000 C 
ATOM     13  C   UNL     1      43.417   4.748  12.933  0.00  0.00    +0.000 C 
ATOM     14  H   UNL     1      43.084   2.297  11.800  0.00  0.00    +0.000 HD
ENDBRANCH   6   8
BRANCH   2  16
ATOM     15  C   UNL     1      45.917  10.471  11.856  0.00  0.00    +0.000 C 
ATOM     16  O   UNL     1      45.167   9.494  12.571  0.00  0.00    +0.000 OA
ENDBRANCH   2  16
ENDBRANCH   1   4
BRANCH   1  17
ATOM     17  C   UNL     1      48.931   7.591  15.861  0.00  0.00    +0.000 C 
BRANCH  17  18
ATOM     18  N   UNL     1      48.470   6.642  16.878  0.00  0.00    +0.000 N 
ATOM     19  H   UNL     1      47.478   6.412  16.799  0.00  0.00    +0.000 HD
BRANCH  18  20
ATOM     20  C   UNL     1      49.238   5.465  17.029  0.00  0.00    +0.000 A 
ATOM     21  C   UNL     1      50.610   5.476  17.295  0.00  0.00    +0.000 A 
ATOM     22  N   UNL     1      51.380   4.382  17.504  0.00  0.00    +0.000 NA
ATOM     23  C   UNL     1      50.742   3.183  17.485  0.00  0.00    +0.000 A 
ATOM     24  C   UNL     1      49.384   3.037  17.268  0.00  0.00    +0.000 A 
ATOM     25  C   UNL     1      48.638   4.193  17.051  0.00  0.00    +0.000 A 
ATOM     26 CL   UNL     1      46.940   4.019  16.759  0.00  0.00    +0.000 Cl
BRANCH  23  27
ATOM     27  C   UNL     1      51.596   1.979  17.717  0.00  0.00    +0.000 C 
ATOM     28  N   UNL     1      52.642   2.156  18.583  0.00  0.00    +0.000 N 
ATOM     29  O   UNL     1      51.383   0.902  17.172  0.00  0.00    +0.000 OA
ATOM     30  H   UNL     1      52.784   3.060  19.018  0.00  0.00    +0.000 HD
ATOM     31  H   UNL     1      53.257   1.385  18.790  0.00  0.00    +0.000 HD
ENDBRANCH  23  27
ENDBRANCH  18  20
ENDBRANCH  17  18
ENDBRANCH   1  17
TORSDOF 7
ENDMDL
MODEL 5
REMARK VINA RESULT:    -6.450      4.420      7.665
REMARK INTER + INTRA:          -9.946
REMARK INTER:                  -8.950
REMARK INTRA:                  -0.996
REMARK UNBOUND:                -0.856
REMARK  Name = 
REMARK  8 active torsions:
REMARK  status: ('A' for Active; 'I' for Inactive)
REMARK    1  A    between atoms: C_1  and  O_2
REMARK    2  A    between atoms: O_2  and  C_3
REMARK    3  A    between atoms: C_5  and  C_6
REMARK    4  A    between atoms: C_6  and  C_7
REMARK    5  A    between atoms: C_7  and  N_8
REMARK    6  A    between atoms: N_8  and  C_9
REMARK    7  A    between atoms: C_12  and  C_13
REMARK    8  A    between atoms: C_20  and  N_21
REMARK                            x       y       z     vdW  Elec       q    Type
REMARK                         _______ _______ _______ _____ _____    ______ ____
ROOT
ATOM      1  C   UNL     1      48.753   8.563  11.685  0.00  0.00    +0.000 C 
ENDROOT
BRANCH   1   4
ATOM      2  C   UNL     1      47.833   5.801  14.138  0.00  0.00    +0.000 A 
ATOM      3  C   UNL     1      48.465   6.910  13.577  0.00  0.00    +0.000 A 
ATOM      4  C   UNL     1      48.026   7.418  12.352  0.00  0.00    +0.000 A 
ATOM      5  C   UNL     1      46.952   6.789  11.698  0.00  0.00    +0.000 A 
ATOM      6  C   UNL     1      46.299   5.662  12.225  0.00  0.00    +0.000 A 
ATOM      7  C   UNL     1      46.751   5.204  13.470  0.00  0.00    +0.000 A 
BRANCH   6   8
ATOM      8  N   UNL     1      45.271   5.055  11.524  0.00  0.00    +0.000 N 
ATOM      9  C   UNL     1      44.079   5.778  11.052  0.00  0.00    +0.000 C 
ATOM     10  C   UNL     1      42.792   5.243  11.719  0.00  0.00    +0.000 C 
ATOM     11  N   UNL     1      42.628   3.777  11.599  0.00  0.00    +0.000 NA
ATOM     12  C   UNL     1      43.828   3.130  12.166  0.00  0.00    +0.000 C 
ATOM     13  C   UNL     1      45.153   3.585  11.512  0.00  0.00    +0.000 C 
ATOM     14  H   UNL     1      42.588   3.546  10.605  0.00  0.00    +0.000 HD
ENDBRANCH   6   8
BRANCH   2  16
ATOM     15  C   UNL     1      47.236   4.306  15.888  0.00  0.00    +0.000 C 
ATOM     16  O   UNL     1      48.187   5.197  15.316  0.00  0.00    +0.000 OA
ENDBRANCH   2  16
ENDBRANCH   1   4
BRANCH   1  17
ATOM     17  C   UNL     1      48.303   9.891  12.303  0.00  0.00    +0.000 C 
BRANCH  17  18
ATOM     18  N   UNL     1      47.737  10.798  11.300  0.00  0.00    +0.000 N 
ATOM     19  H   UNL     1      48.125  10.664  10.365  0.00  0.00    +0.000 HD
BRANCH  18  20
ATOM     20  C   UNL     1      46.327  10.867  11.244  0.00  0.00    +0.000 A 
ATOM     21  C   UNL     1      45.491  10.202  12.144  0.00  0.00    +0.000 A 
ATOM     22  N   UNL     1      44.139  10.279  12.169  0.00  0.00    +0.000 NA
ATOM     23  C   UNL     1      43.566  11.106  11.256  0.00  0.00    +0.000 A 
ATOM     24  C   UNL     1      44.281  11.847  10.333  0.00  0.00    +0.000 A 
ATOM     25  C   UNL     1      45.669  11.726  10.345  0.00  0.00    +0.000 A 
ATOM     26 CL   UNL     1      46.571  12.636   9.180  0.00  0.00    +0.000 Cl
BRANCH  23  27
ATOM     27  C   UNL     1      42.075  11.188  11.288  0.00  0.00    +0.000 C 
ATOM     28  N   UNL     1      41.518  11.315  12.533  0.00  0.00    +0.000 N 
ATOM     29  O   UNL     1      41.387  11.143  10.274  0.00  0.00    +0.000 OA
ATOM     30  H   UNL     1      42.118  11.352  13.349  0.00  0.00    +0.000 HD
ATOM     31  H   UNL     1      40.516  11.380  12.630  0.00  0.00    +0.000 HD
ENDBRANCH  23  27
ENDBRANCH  18  20
ENDBRANCH  17  18
ENDBRANCH   1  17
TORSDOF 7
ENDMDL
MODEL 6
REMARK VINA RESULT:    -6.413      3.941      8.133
REMARK INTER + INTRA:          -9.893
REMARK INTER:                  -9.087
REMARK INTRA:                  -0.806
REMARK UNBOUND:                -0.856
REMARK  Name = 
REMARK  8 active torsions:
REMARK  status: ('A' for Active; 'I' for Inactive)
REMARK    1  A    between atoms: C_1  and  O_2
REMARK    2  A    between atoms: O_2  and  C_3
REMARK    3  A    between atoms: C_5  and  C_6
REMARK    4  A    between atoms: C_6  and  C_7
REMARK    5  A    between atoms: C_7  and  N_8
REMARK    6  A    between atoms: N_8  and  C_9
REMARK    7  A    between atoms: C_12  and  C_13
REMARK    8  A    between atoms: C_20  and  N_21
REMARK                            x       y       z     vdW  Elec       q    Type
REMARK                         _______ _______ _______ _____ _____    ______ ____
ROOT
ATOM      1  C   UNL     1      48.454   6.064  15.668  0.00  0.00    +0.000 C 
ENDROOT
BRANCH   1   4
ATOM      2  C   UNL     1      48.068   7.687  12.247  0.00  0.00    +0.000 A 
ATOM      3  C   UNL     1      48.530   7.419  13.534  0.00  0.00    +0.000 A 
ATOM      4  C   UNL     1      48.031   6.321  14.240  0.00  0.00    +0.000 A 
ATOM      5  C   UNL     1      47.057   5.507  13.636  0.00  0.00    +0.000 A 
ATOM      6  C   UNL     1      46.556   5.754  12.347  0.00  0.00    +0.000 A 
ATOM      7  C   UNL     1      47.106   6.847  11.662  0.00  0.00    +0.000 A 
BRANCH   6   8
ATOM      8  N   UNL     1      45.568   4.946  11.811  0.00  0.00    +0.000 N 
ATOM      9  C   UNL     1      44.703   5.360  10.695  0.00  0.00    +0.000 C 
ATOM     10  C   UNL     1      43.220   5.429  11.125  0.00  0.00    +0.000 C 
ATOM     11  N   UNL     1      42.732   4.188  11.766  0.00  0.00    +0.000 NA
ATOM     12  C   UNL     1      43.604   3.889  12.920  0.00  0.00    +0.000 C 
ATOM     13  C   UNL     1      45.102   3.760  12.554  0.00  0.00    +0.000 C 
ATOM     14  H   UNL     1      42.830   3.426  11.094  0.00  0.00    +0.000 HD
ENDBRANCH   6   8
BRANCH   2  16
ATOM     15  C   UNL     1      49.362   9.674  12.057  0.00  0.00    +0.000 C 
ATOM     16  O   UNL     1      48.460   8.744  11.467  0.00  0.00    +0.000 OA
ENDBRANCH   2  16
ENDBRANCH   1   4
BRANCH   1  17
ATOM     17  C   UNL     1      47.834   4.752  16.163  0.00  0.00    +0.000 C 
BRANCH  17  18
ATOM     18  N   UNL     1      48.291   4.404  17.511  0.00  0.00    +0.000 N 
ATOM     19  H   UNL     1      47.549   4.044  18.112  0.00  0.00    +0.000 HD
BRANCH  18  20
ATOM     20  C   UNL     1      49.434   3.576  17.589  0.00  0.00    +0.000 A 
ATOM     21  C   UNL     1      49.484   2.288  17.051  0.00  0.00    +0.000 A 
ATOM     22  N   UNL     1      50.569   1.477  17.049  0.00  0.00    +0.000 NA
ATOM     23  C   UNL     1      51.705   1.989  17.589  0.00  0.00    +0.000 A 
ATOM     24  C   UNL     1      51.799   3.261  18.123  0.00  0.00    +0.000 A 
ATOM     25  C   UNL     1      50.652   4.053  18.107  0.00  0.00    +0.000 A 
ATOM     26 CL   UNL     1      50.754   5.640  18.791  0.00  0.00    +0.000 Cl
BRANCH  23  27
ATOM     27  C   UNL     1      52.899   1.091  17.584  0.00  0.00    +0.000 C 
ATOM     28  N   UNL     1      52.725  -0.126  18.190  0.00  0.00    +0.000 N 
ATOM     29  O   UNL     1      53.968   1.413  17.076  0.00  0.00    +0.000 OA
ATOM     30  H   UNL     1      51.827  -0.358  18.596  0.00  0.00    +0.000 HD
ATOM     31  H   UNL     1      53.488  -0.784  18.220  0.00  0.00    +0.000 HD
ENDBRANCH  23  27
ENDBRANCH  18  20
ENDBRANCH  17  18
ENDBRANCH   1  17
TORSDOF 7
ENDMDL
MODEL 7
REMARK VINA RESULT:    -6.373      4.437      7.715
REMARK INTER + INTRA:          -9.837
REMARK INTER:                  -8.710
REMARK INTRA:                  -1.127
REMARK UNBOUND:                -0.856
REMARK  Name = 
REMARK  8 active torsions:
REMARK  status: ('A' for Active; 'I' for Inactive)
REMARK    1  A    between atoms: C_1  and  O_2
REMARK    2  A    between atoms: O_2  and  C_3
REMARK    3  A    between atoms: C_5  and  C_6
REMARK    4  A    between atoms: C_6  and  C_7
REMARK    5  A    between atoms: C_7  and  N_8
REMARK    6  A    between atoms: N_8  and  C_9
REMARK    7  A    between atoms: C_12  and  C_13
REMARK    8  A    between atoms: C_20  and  N_21
REMARK                            x       y       z     vdW  Elec       q    Type
REMARK                         _______ _______ _______ _____ _____    ______ ____
ROOT
ATOM      1  C   UNL     1      48.864   8.998  12.722  0.00  0.00    +0.000 C 
ENDROOT
BRANCH   1   4
ATOM      2  C   UNL     1      45.278   9.956  11.880  0.00  0.00    +0.000 A 
ATOM      3  C   UNL     1      46.634  10.062  12.183  0.00  0.00    +0.000 A 
ATOM      4  C   UNL     1      47.414   8.909  12.308  0.00  0.00    +0.000 A 
ATOM      5  C   UNL     1      46.807   7.653  12.133  0.00  0.00    +0.000 A 
ATOM      6  C   UNL     1      45.440   7.506  11.841  0.00  0.00    +0.000 A 
ATOM      7  C   UNL     1      44.702   8.688  11.694  0.00  0.00    +0.000 A 
BRANCH   6   8
ATOM      8  N   UNL     1      44.881   6.245  11.717  0.00  0.00    +0.000 N 
ATOM      9  C   UNL     1      43.433   6.012  11.605  0.00  0.00    +0.000 C 
ATOM     10  C   UNL     1      42.898   5.195  12.804  0.00  0.00    +0.000 C 
ATOM     11  N   UNL     1      43.640   3.937  13.040  0.00  0.00    +0.000 NA
ATOM     12  C   UNL     1      45.067   4.268  13.220  0.00  0.00    +0.000 C 
ATOM     13  C   UNL     1      45.682   5.048  12.034  0.00  0.00    +0.000 C 
ATOM     14  H   UNL     1      43.555   3.360  12.202  0.00  0.00    +0.000 HD
ENDBRANCH   6   8
BRANCH   2  16
ATOM     15  C   UNL     1      43.056  10.686  11.449  0.00  0.00    +0.000 C 
ATOM     16  O   UNL     1      44.408  11.008  11.758  0.00  0.00    +0.000 OA
ENDBRANCH   2  16
ENDBRANCH   1   4
BRANCH   1  17
ATOM     17  C   UNL     1      49.351   7.625  13.200  0.00  0.00    +0.000 C 
BRANCH  17  18
ATOM     18  N   UNL     1      49.767   7.649  14.605  0.00  0.00    +0.000 N 
ATOM     19  H   UNL     1      49.670   8.566  15.043  0.00  0.00    +0.000 HD
BRANCH  18  20
ATOM     20  C   UNL     1      49.219   6.646  15.436  0.00  0.00    +0.000 A 
ATOM     21  C   UNL     1      48.163   5.819  15.044  0.00  0.00    +0.000 A 
ATOM     22  N   UNL     1      47.640   4.808  15.778  0.00  0.00    +0.000 NA
ATOM     23  C   UNL     1      48.225   4.570  16.980  0.00  0.00    +0.000 A 
ATOM     24  C   UNL     1      49.298   5.292  17.470  0.00  0.00    +0.000 A 
ATOM     25  C   UNL     1      49.795   6.326  16.679  0.00  0.00    +0.000 A 
ATOM     26 CL   UNL     1      51.126   7.247  17.293  0.00  0.00    +0.000 Cl
BRANCH  23  27
ATOM     27  C   UNL     1      47.645   3.454  17.785  0.00  0.00    +0.000 C 
ATOM     28  N   UNL     1      48.274   3.194  18.974  0.00  0.00    +0.000 N 
ATOM     29  O   UNL     1      46.672   2.806  17.414  0.00  0.00    +0.000 OA
ATOM     30  H   UNL     1      49.074   3.752  19.249  0.00  0.00    +0.000 HD
ATOM     31  H   UNL     1      47.934   2.456  19.570  0.00  0.00    +0.000 HD
ENDBRANCH  23  27
ENDBRANCH  18  20
ENDBRANCH  17  18
ENDBRANCH   1  17
TORSDOF 7
ENDMDL
MODEL 8
REMARK VINA RESULT:    -6.347      3.469      8.677
REMARK INTER + INTRA:          -9.800
REMARK INTER:                  -9.149
REMARK INTRA:                  -0.651
REMARK UNBOUND:                -0.856
REMARK  Name = 
REMARK  8 active torsions:
REMARK  status: ('A' for Active; 'I' for Inactive)
REMARK    1  A    between atoms: C_1  and  O_2
REMARK    2  A    between atoms: O_2  and  C_3
REMARK    3  A    between atoms: C_5  and  C_6
REMARK    4  A    between atoms: C_6  and  C_7
REMARK    5  A    between atoms: C_7  and  N_8
REMARK    6  A    between atoms: N_8  and  C_9
REMARK    7  A    between atoms: C_12  and  C_13
REMARK    8  A    between atoms: C_20  and  N_21
REMARK                            x       y       z     vdW  Elec       q    Type
REMARK                         _______ _______ _______ _____ _____    ______ ____
ROOT
ATOM      1  C   UNL     1      47.637   5.651  14.590  0.00  0.00    +0.000 C 
ENDROOT
BRANCH   1   4
ATOM      2  C   UNL     1      45.906   8.041  12.187  0.00  0.00    +0.000 A 
ATOM      3  C   UNL     1      46.741   7.559  13.194  0.00  0.00    +0.000 A 
ATOM      4  C   UNL     1      46.807   6.186  13.447  0.00  0.00    +0.000 A 
ATOM      5  C   UNL     1      46.016   5.312  12.680  0.00  0.00    +0.000 A 
ATOM      6  C   UNL     1      45.153   5.763  11.667  0.00  0.00    +0.000 A 
ATOM      7  C   UNL     1      45.141   7.143  11.425  0.00  0.00    +0.000 A 
BRANCH   6   8
ATOM      8  N   UNL     1      44.365   4.865  10.966  0.00  0.00    +0.000 N 
ATOM      9  C   UNL     1      43.194   4.193  11.549  0.00  0.00    +0.000 C 
ATOM     10  C   UNL     1      43.391   2.661  11.605  0.00  0.00    +0.000 C 
ATOM     11  N   UNL     1      43.775   2.066  10.307  0.00  0.00    +0.000 NA
ATOM     12  C   UNL     1      45.000   2.740   9.833  0.00  0.00    +0.000 C 
ATOM     13  C   UNL     1      44.860   4.275   9.708  0.00  0.00    +0.000 C 
ATOM     14  H   UNL     1      43.030   2.263   9.637  0.00  0.00    +0.000 HD
ENDBRANCH   6   8
BRANCH   2  16
ATOM     15  C   UNL     1      44.419   9.768  11.505  0.00  0.00    +0.000 C 
ATOM     16  O   UNL     1      45.736   9.362  11.862  0.00  0.00    +0.000 OA
ENDBRANCH   2  16
ENDBRANCH   1   4
BRANCH   1  17
ATOM     17  C   UNL     1      47.358   4.155  14.775  0.00  0.00    +0.000 C 
BRANCH  17  18
ATOM     18  N   UNL     1      46.706   3.874  16.058  0.00  0.00    +0.000 N 
ATOM     19  H   UNL     1      46.334   2.925  16.126  0.00  0.00    +0.000 HD
BRANCH  18  20
ATOM     20  C   UNL     1      47.444   4.199  17.219  0.00  0.00    +0.000 A 
ATOM     21  C   UNL     1      47.064   5.204  18.111  0.00  0.00    +0.000 A 
ATOM     22  N   UNL     1      47.702   5.517  19.264  0.00  0.00    +0.000 NA
ATOM     23  C   UNL     1      48.781   4.756  19.581  0.00  0.00    +0.000 A 
ATOM     24  C   UNL     1      49.240   3.709  18.802  0.00  0.00    +0.000 A 
ATOM     25  C   UNL     1      48.552   3.432  17.623  0.00  0.00    +0.000 A 
ATOM     26 CL   UNL     1      49.131   2.136  16.632  0.00  0.00    +0.000 Cl
BRANCH  23  27
ATOM     27  C   UNL     1      49.482   5.104  20.854  0.00  0.00    +0.000 C 
ATOM     28  N   UNL     1      50.731   4.563  21.007  0.00  0.00    +0.000 N 
ATOM     29  O   UNL     1      48.979   5.823  21.710  0.00  0.00    +0.000 OA
ATOM     30  H   UNL     1      51.115   3.976  20.276  0.00  0.00    +0.000 HD
ATOM     31  H   UNL     1      51.263   4.760  21.841  0.00  0.00    +0.000 HD
ENDBRANCH  23  27
ENDBRANCH  18  20
ENDBRANCH  17  18
ENDBRANCH   1  17
TORSDOF 7
ENDMDL
MODEL 9
REMARK VINA RESULT:    -6.205      3.222      4.618
REMARK INTER + INTRA:          -9.600
REMARK INTER:                  -8.602
REMARK INTRA:                  -0.998
REMARK UNBOUND:                -0.856
REMARK  Name = 
REMARK  8 active torsions:
REMARK  status: ('A' for Active; 'I' for Inactive)
REMARK    1  A    between atoms: C_1  and  O_2
REMARK    2  A    between atoms: O_2  and  C_3
REMARK    3  A    between atoms: C_5  and  C_6
REMARK    4  A    between atoms: C_6  and  C_7
REMARK    5  A    between atoms: C_7  and  N_8
REMARK    6  A    between atoms: N_8  and  C_9
REMARK    7  A    between atoms: C_12  and  C_13
REMARK    8  A    between atoms: C_20  and  N_21
REMARK                            x       y       z     vdW  Elec       q    Type
REMARK                         _______ _______ _______ _____ _____    ______ ____
ROOT
ATOM      1  C   UNL     1      49.246   8.177  13.990  0.00  0.00    +0.000 C 
ENDROOT
BRANCH   1   4
ATOM      2  C   UNL     1      48.120   9.044  17.521  0.00  0.00    +0.000 A 
ATOM      3  C   UNL     1      48.352   9.141  16.150  0.00  0.00    +0.000 A 
ATOM      4  C   UNL     1      48.905   8.061  15.457  0.00  0.00    +0.000 A 
ATOM      5  C   UNL     1      49.229   6.890  16.165  0.00  0.00    +0.000 A 
ATOM      6  C   UNL     1      49.024   6.760  17.549  0.00  0.00    +0.000 A 
ATOM      7  C   UNL     1      48.438   7.855  18.199  0.00  0.00    +0.000 A 
BRANCH   6   8
ATOM      8  N   UNL     1      49.396   5.600  18.208  0.00  0.00    +0.000 N 
ATOM      9  C   UNL     1      49.322   4.265  17.595  0.00  0.00    +0.000 C 
ATOM     10  C   UNL     1      48.324   3.353  18.344  0.00  0.00    +0.000 C 
ATOM     11  N   UNL     1      48.573   3.275  19.801  0.00  0.00    +0.000 NA
ATOM     12  C   UNL     1      48.551   4.647  20.348  0.00  0.00    +0.000 C 
ATOM     13  C   UNL     1      49.560   5.605  19.674  0.00  0.00    +0.000 C 
ATOM     14  H   UNL     1      49.511   2.898  19.940  0.00  0.00    +0.000 HD
ENDBRANCH   6   8
BRANCH   2  16
ATOM     15  C   UNL     1      47.915   9.974  19.700  0.00  0.00    +0.000 C 
ATOM     16  O   UNL     1      47.608  10.039  18.312  0.00  0.00    +0.000 OA
ENDBRANCH   2  16
ENDBRANCH   1   4
BRANCH   1  17
ATOM     17  C   UNL     1      48.454   7.135  13.191  0.00  0.00    +0.000 C 
BRANCH  17  18
ATOM     18  N   UNL     1      47.022   7.177  13.504  0.00  0.00    +0.000 N 
ATOM     19  H   UNL     1      46.611   8.106  13.403  0.00  0.00    +0.000 HD
BRANCH  18  20
ATOM     20  C   UNL     1      46.215   6.208  12.867  0.00  0.00    +0.000 A 
ATOM     21  C   UNL     1      45.586   6.423  11.638  0.00  0.00    +0.000 A 
ATOM     22  N   UNL     1      44.851   5.510  10.959  0.00  0.00    +0.000 NA
ATOM     23  C   UNL     1      44.755   4.276  11.519  0.00  0.00    +0.000 A 
ATOM     24  C   UNL     1      45.358   3.924  12.712  0.00  0.00    +0.000 A 
ATOM     25  C   UNL     1      46.098   4.901  13.374  0.00  0.00    +0.000 A 
ATOM     26 CL   UNL     1      46.840   4.474  14.879  0.00  0.00    +0.000 Cl
BRANCH  23  27
ATOM     27  C   UNL     1      43.943   3.274  10.766  0.00  0.00    +0.000 C 
ATOM     28  N   UNL     1      44.192   3.203   9.421  0.00  0.00    +0.000 N 
ATOM     29  O   UNL     1      43.105   2.560  11.306  0.00  0.00    +0.000 OA
ATOM     30  H   UNL     1      44.894   3.806   9.010  0.00  0.00    +0.000 HD
ATOM     31  H   UNL     1      43.683   2.545   8.851  0.00  0.00    +0.000 HD
ENDBRANCH  23  27
ENDBRANCH  18  20
ENDBRANCH  17  18
ENDBRANCH   1  17
TORSDOF 7
ENDMDL
