MODEL 1
REMARK VINA RESULT:    -6.780      0.000      0.000
REMARK INTER + INTRA:          -9.822
REMARK INTER:                  -8.960
REMARK INTRA:                  -0.862
REMARK UNBOUND:                -0.862
REMARK  Name = 
REMARK  6 active torsions:
REMARK  status: ('A' for Active; 'I' for Inactive)
REMARK    1  A    between atoms: N_1  and  C_2
REMARK    2  A    between atoms: C_4  and  C_5
REMARK    3  A    between atoms: C_10  and  C_11
REMARK    4  A    between atoms: C_11  and  O_12
REMARK    5  A    between atoms: O_12  and  C_13
REMARK    6  A    between atoms: C_18  and  C_19
REMARK                            x       y       z     vdW  Elec       q    Type
REMARK                         _______ _______ _______ _____ _____    ______ ____
ROOT
ATOM      1  C   UNL     1      45.869   6.593  11.989  0.00  0.00    +0.000 C 
ATOM      2  C   UNL     1      44.971   7.541  12.758  0.00  0.00    +0.000 C 
ATOM      3  C   UNL     1      45.369   7.901  11.367  0.00  0.00    +0.000 C 
ENDROOT
BRANCH   1   8
ATOM      4  C   UNL     1      44.158   3.224  11.577  0.00  0.00    +0.000 A 
ATOM      5  C   UNL     1      44.530   2.911  10.277  0.00  0.00    +0.000 A 
ATOM      6  C   UNL     1      45.239   3.848   9.519  0.00  0.00    +0.000 A 
ATOM      7  N   UNL     1      45.626   5.052  10.036  0.00  0.00    +0.000 NA
ATOM      8  C   UNL     1      45.332   5.329  11.332  0.00  0.00    +0.000 A 
ATOM      9  C   UNL     1      44.596   4.430  12.106  0.00  0.00    +0.000 A 
BRANCH   6  10
ATOM     10  C   UNL     1      45.613   3.507   8.082  0.00  0.00    +0.000 C 
ATOM     11  F   UNL     1      46.530   4.364   7.544  0.00  0.00    +0.000 F 
ATOM     12  F   UNL     1      46.166   2.265   7.957  0.00  0.00    +0.000 F 
ATOM     13  F   UNL     1      44.550   3.534   7.230  0.00  0.00    +0.000 F 
ENDBRANCH   6  10
BRANCH   4  14
ATOM     14  N   UNL     1      43.596   2.254  12.412  0.00  0.00    +0.000 N 
ATOM     15  H   UNL     1      44.032   1.339  12.364  0.00  0.00    +0.000 HD
ATOM     16  H   UNL     1      42.581   2.197  12.365  0.00  0.00    +0.000 HD
ENDBRANCH   4  14
ENDBRANCH   1   8
BRANCH   1  17
ATOM     17  O   UNL     1      47.298   6.631  12.214  0.00  0.00    +0.000 OA
BRANCH  17  18
ATOM     18  C   UNL     1      47.784   6.692  13.490  0.00  0.00    +0.000 A 
ATOM     19  C   UNL     1      48.435   7.768  14.076  0.00  0.00    +0.000 A 
ATOM     20  C   UNL     1      48.940   7.642  15.374  0.00  0.00    +0.000 A 
ATOM     21  C   UNL     1      48.780   6.453  16.102  0.00  0.00    +0.000 A 
ATOM     22 CL   UNL     1      49.481   6.405  17.676  0.00  0.00    +0.000 Cl
ATOM     23  C   UNL     1      48.084   5.378  15.543  0.00  0.00    +0.000 A 
ATOM     24  C   UNL     1      47.586   5.524  14.232  0.00  0.00    +0.000 A 
BRANCH  23  25
ATOM     25  C   UNL     1      47.806   4.068  16.231  0.00  0.00    +0.000 C 
ATOM     26  F   UNL     1      48.837   3.504  16.909  0.00  0.00    +0.000 F 
ATOM     27  F   UNL     1      46.788   4.180  17.133  0.00  0.00    +0.000 F 
ATOM     28  F   UNL     1      47.394   3.112  15.345  0.00  0.00    +0.000 F 
ENDBRANCH  23  25
ENDBRANCH  17  18
ENDBRANCH   1  17
TORSDOF 6
ENDMDL
MODEL 2
REMARK VINA RESULT:    -6.657      1.900      2.392
REMARK INTER + INTRA:          -9.660
REMARK INTER:                  -8.727
REMARK INTRA:                  -0.933
REMARK UNBOUND:                -0.862
REMARK  Name = 
REMARK  6 active torsions:
REMARK  status: ('A' for Active; 'I' for Inactive)
REMARK    1  A    between atoms: N_1  and  C_2
REMARK    2  A    between atoms: C_4  and  C_5
REMARK    3  A    between atoms: C_10  and  C_11
REMARK    4  A    between atoms: C_11  and  O_12
REMARK    5  A    between atoms: O_12  and  C_13
REMARK    6  A    between atoms: C_18  and  C_19
REMARK                            x       y       z     vdW  Elec       q    Type
REMARK                         _______ _______ _______ _____ _____    ______ ____
ROOT
ATOM      1  C   UNL     1      46.452   7.255  12.371  0.00  0.00    +0.000 C 
ATOM      2  C   UNL     1      46.027   8.501  13.122  0.00  0.00    +0.000 C 
ATOM      3  C   UNL     1      46.766   8.657  11.837  0.00  0.00    +0.000 C 
ENDROOT
BRANCH   1   8
ATOM      4  C   UNL     1      43.219   5.627  11.213  0.00  0.00    +0.000 A 
ATOM      5  C   UNL     1      43.693   4.837  10.176  0.00  0.00    +0.000 A 
ATOM      6  C   UNL     1      45.036   4.929   9.799  0.00  0.00    +0.000 A 
ATOM      7  N   UNL     1      45.918   5.739  10.457  0.00  0.00    +0.000 NA
ATOM      8  C   UNL     1      45.475   6.455  11.522  0.00  0.00    +0.000 A 
ATOM      9  C   UNL     1      44.132   6.412  11.903  0.00  0.00    +0.000 A 
BRANCH   6  10
ATOM     10  C   UNL     1      45.539   4.081   8.637  0.00  0.00    +0.000 C 
ATOM     11  F   UNL     1      46.617   4.623   7.998  0.00  0.00    +0.000 F 
ATOM     12  F   UNL     1      45.939   2.834   9.022  0.00  0.00    +0.000 F 
ATOM     13  F   UNL     1      44.601   3.893   7.666  0.00  0.00    +0.000 F 
ENDBRANCH   6  10
BRANCH   4  14
ATOM     14  N   UNL     1      41.929   5.442  11.719  0.00  0.00    +0.000 N 
ATOM     15  H   UNL     1      41.236   6.103  11.383  0.00  0.00    +0.000 HD
ATOM     16  H   UNL     1      41.887   5.324  12.728  0.00  0.00    +0.000 HD
ENDBRANCH   4  14
ENDBRANCH   1   8
BRANCH   1  17
ATOM     17  O   UNL     1      47.658   6.563  12.770  0.00  0.00    +0.000 OA
BRANCH  17  18
ATOM     18  C   UNL     1      47.635   5.723  13.848  0.00  0.00    +0.000 A 
ATOM     19  C   UNL     1      47.043   4.470  13.906  0.00  0.00    +0.000 A 
ATOM     20  C   UNL     1      47.042   3.765  15.115  0.00  0.00    +0.000 A 
ATOM     21  C   UNL     1      47.652   4.295  16.263  0.00  0.00    +0.000 A 
ATOM     22 CL   UNL     1      47.551   3.351  17.701  0.00  0.00    +0.000 Cl
ATOM     23  C   UNL     1      48.295   5.534  16.206  0.00  0.00    +0.000 A 
ATOM     24  C   UNL     1      48.279   6.231  14.979  0.00  0.00    +0.000 A 
BRANCH  23  25
ATOM     25  C   UNL     1      49.020   6.192  17.349  0.00  0.00    +0.000 C 
ATOM     26  F   UNL     1      49.812   5.395  18.109  0.00  0.00    +0.000 F 
ATOM     27  F   UNL     1      49.824   7.206  16.917  0.00  0.00    +0.000 F 
ATOM     28  F   UNL     1      48.150   6.776  18.227  0.00  0.00    +0.000 F 
ENDBRANCH  23  25
ENDBRANCH  17  18
ENDBRANCH   1  17
TORSDOF 6
ENDMDL
MODEL 3
REMARK VINA RESULT:    -6.644      1.395      1.680
REMARK INTER + INTRA:          -9.642
REMARK INTER:                  -8.762
REMARK INTRA:                  -0.880
REMARK UNBOUND:                -0.862
REMARK  Name = 
REMARK  6 active torsions:
REMARK  status: ('A' for Active; 'I' for Inactive)
REMARK    1  A    between atoms: N_1  and  C_2
REMARK    2  A    between atoms: C_4  and  C_5
REMARK    3  A    between atoms: C_10  and  C_11
REMARK    4  A    between atoms: C_11  and  O_12
REMARK    5  A    between atoms: O_12  and  C_13
REMARK    6  A    between atoms: C_18  and  C_19
REMARK                            x       y       z     vdW  Elec       q    Type
REMARK                         _______ _______ _______ _____ _____    ______ ____
ROOT
ATOM      1  C   UNL     1      47.097   7.309  12.709  0.00  0.00    +0.000 C 
ATOM      2  C   UNL     1      46.878   8.682  13.312  0.00  0.00    +0.000 C 
ATOM      3  C   UNL     1      47.455   8.586  11.941  0.00  0.00    +0.000 C 
ENDROOT
BRANCH   1   8
ATOM      4  C   UNL     1      43.746   5.547  12.376  0.00  0.00    +0.000 A 
ATOM      5  C   UNL     1      43.940   4.862  11.186  0.00  0.00    +0.000 A 
ATOM      6  C   UNL     1      45.114   5.069  10.456  0.00  0.00    +0.000 A 
ATOM      7  N   UNL     1      46.108   5.891  10.904  0.00  0.00    +0.000 NA
ATOM      8  C   UNL     1      45.956   6.503  12.105  0.00  0.00    +0.000 A 
ATOM      9  C   UNL     1      44.782   6.344  12.844  0.00  0.00    +0.000 A 
BRANCH   6  10
ATOM     10  C   UNL     1      45.301   4.335   9.133  0.00  0.00    +0.000 C 
ATOM     11  F   UNL     1      46.320   4.840   8.375  0.00  0.00    +0.000 F 
ATOM     12  F   UNL     1      45.595   3.013   9.295  0.00  0.00    +0.000 F 
ATOM     13  F   UNL     1      44.199   4.382   8.333  0.00  0.00    +0.000 F 
ENDBRANCH   6  10
BRANCH   4  14
ATOM     14  N   UNL     1      42.664   5.243  13.208  0.00  0.00    +0.000 N 
ATOM     15  H   UNL     1      42.065   4.494  12.877  0.00  0.00    +0.000 HD
ATOM     16  H   UNL     1      42.131   6.052  13.517  0.00  0.00    +0.000 HD
ENDBRANCH   4  14
ENDBRANCH   1   8
BRANCH   1  17
ATOM     17  O   UNL     1      48.283   6.560  13.063  0.00  0.00    +0.000 OA
BRANCH  17  18
ATOM     18  C   UNL     1      48.702   6.526  14.364  0.00  0.00    +0.000 A 
ATOM     19  C   UNL     1      49.741   7.260  14.917  0.00  0.00    +0.000 A 
ATOM     20  C   UNL     1      50.094   7.052  16.255  0.00  0.00    +0.000 A 
ATOM     21  C   UNL     1      49.399   6.129  17.052  0.00  0.00    +0.000 A 
ATOM     22 CL   UNL     1      49.953   5.932  18.673  0.00  0.00    +0.000 Cl
ATOM     23  C   UNL     1      48.320   5.418  16.523  0.00  0.00    +0.000 A 
ATOM     24  C   UNL     1      47.983   5.639  15.171  0.00  0.00    +0.000 A 
BRANCH  23  25
ATOM     25  C   UNL     1      47.468   4.435  17.280  0.00  0.00    +0.000 C 
ATOM     26  F   UNL     1      48.120   3.456  17.955  0.00  0.00    +0.000 F 
ATOM     27  F   UNL     1      46.681   5.059  18.203  0.00  0.00    +0.000 F 
ATOM     28  F   UNL     1      46.597   3.783  16.453  0.00  0.00    +0.000 F 
ENDBRANCH  23  25
ENDBRANCH  17  18
ENDBRANCH   1  17
TORSDOF 6
ENDMDL
MODEL 4
REMARK VINA RESULT:    -6.608      1.655      2.329
REMARK INTER + INTRA:          -9.594
REMARK INTER:                  -8.743
REMARK INTRA:                  -0.852
REMARK UNBOUND:                -0.862
REMARK  Name = 
REMARK  6 active torsions:
REMARK  status: ('A' for Active; 'I' for Inactive)
REMARK    1  A    between atoms: N_1  and  C_2
REMARK    2  A    between atoms: C_4  and  C_5
REMARK    3  A    between atoms: C_10  and  C_11
REMARK    4  A    between atoms: C_11  and  O_12
REMARK    5  A    between atoms: O_12  and  C_13
REMARK    6  A    between atoms: C_18  and  C_19
REMARK                            x       y       z     vdW  Elec       q    Type
REMARK                         _______ _______ _______ _____ _____    ______ ____
ROOT
ATOM      1  C   UNL     1      45.719   6.258  12.015  0.00  0.00    +0.000 C 
ATOM      2  C   UNL     1      44.746   7.184  12.718  0.00  0.00    +0.000 C 
ATOM      3  C   UNL     1      45.371   7.636  11.442  0.00  0.00    +0.000 C 
ENDROOT
BRANCH   1   8
ATOM      4  C   UNL     1      43.968   3.025  11.049  0.00  0.00    +0.000 A 
ATOM      5  C   UNL     1      44.530   2.800   9.800  0.00  0.00    +0.000 A 
ATOM      6  C   UNL     1      45.384   3.757   9.247  0.00  0.00    +0.000 A 
ATOM      7  N   UNL     1      45.730   4.894   9.921  0.00  0.00    +0.000 NA
ATOM      8  C   UNL     1      45.245   5.081  11.174  0.00  0.00    +0.000 A 
ATOM      9  C   UNL     1      44.362   4.160  11.744  0.00  0.00    +0.000 A 
BRANCH   6  10
ATOM     10  C   UNL     1      45.969   3.514   7.861  0.00  0.00    +0.000 C 
ATOM     11  F   UNL     1      45.027   3.498   6.871  0.00  0.00    +0.000 F 
ATOM     12  F   UNL     1      46.867   4.471   7.486  0.00  0.00    +0.000 F 
ATOM     13  F   UNL     1      46.622   2.322   7.755  0.00  0.00    +0.000 F 
ENDBRANCH   6  10
BRANCH   4  14
ATOM     14  N   UNL     1      43.244   2.021  11.699  0.00  0.00    +0.000 N 
ATOM     15  H   UNL     1      42.625   1.483  11.102  0.00  0.00    +0.000 HD
ATOM     16  H   UNL     1      42.785   2.322  12.555  0.00  0.00    +0.000 HD
ENDBRANCH   4  14
ENDBRANCH   1   8
BRANCH   1  17
ATOM     17  O   UNL     1      47.095   6.206  12.458  0.00  0.00    +0.000 OA
BRANCH  17  18
ATOM     18  C   UNL     1      47.391   5.713  13.698  0.00  0.00    +0.000 A 
ATOM     19  C   UNL     1      46.920   4.532  14.253  0.00  0.00    +0.000 A 
ATOM     20  C   UNL     1      47.261   4.207  15.570  0.00  0.00    +0.000 A 
ATOM     21  C   UNL     1      48.091   5.045  16.332  0.00  0.00    +0.000 A 
ATOM     22 CL   UNL     1      48.407   4.557  17.955  0.00  0.00    +0.000 Cl
ATOM     23  C   UNL     1      48.612   6.213  15.770  0.00  0.00    +0.000 A 
ATOM     24  C   UNL     1      48.253   6.525  14.442  0.00  0.00    +0.000 A 
BRANCH  23  25
ATOM     25  C   UNL     1      49.544   7.172  16.462  0.00  0.00    +0.000 C 
ATOM     26  F   UNL     1      49.105   7.717  17.624  0.00  0.00    +0.000 F 
ATOM     27  F   UNL     1      50.740   6.585  16.758  0.00  0.00    +0.000 F 
ATOM     28  F   UNL     1      49.857   8.234  15.661  0.00  0.00    +0.000 F 
ENDBRANCH  23  25
ENDBRANCH  17  18
ENDBRANCH   1  17
TORSDOF 6
ENDMDL
MODEL 5
REMARK VINA RESULT:    -6.496      4.314      7.917
REMARK INTER + INTRA:          -9.448
REMARK INTER:                  -8.871
REMARK INTRA:                  -0.577
REMARK UNBOUND:                -0.862
REMARK  Name = 
REMARK  6 active torsions:
REMARK  status: ('A' for Active; 'I' for Inactive)
REMARK    1  A    between atoms: N_1  and  C_2
REMARK    2  A    between atoms: C_4  and  C_5
REMARK    3  A    between atoms: C_10  and  C_11
REMARK    4  A    between atoms: C_11  and  O_12
REMARK    5  A    between atoms: O_12  and  C_13
REMARK    6  A    between atoms: C_18  and  C_19
REMARK                            x       y       z     vdW  Elec       q    Type
REMARK                         _______ _______ _______ _____ _____    ______ ____
ROOT
ATOM      1  C   UNL     1      47.955   3.558  16.568  0.00  0.00    +0.000 C 
ATOM      2  C   UNL     1      47.044   4.391  17.446  0.00  0.00    +0.000 C 
ATOM      3  C   UNL     1      46.979   2.906  17.553  0.00  0.00    +0.000 C 
ENDROOT
BRANCH   1   8
ATOM      4  C   UNL     1      51.201   1.821  17.515  0.00  0.00    +0.000 A 
ATOM      5  C   UNL     1      52.017   2.921  17.740  0.00  0.00    +0.000 A 
ATOM      6  C   UNL     1      51.532   4.204  17.475  0.00  0.00    +0.000 A 
ATOM      7  N   UNL     1      50.252   4.419  17.047  0.00  0.00    +0.000 NA
ATOM      8  C   UNL     1      49.426   3.352  16.901  0.00  0.00    +0.000 A 
ATOM      9  C   UNL     1      49.890   2.054  17.124  0.00  0.00    +0.000 A 
BRANCH   6  10
ATOM     10  C   UNL     1      52.448   5.402  17.695  0.00  0.00    +0.000 C 
ATOM     11  F   UNL     1      51.910   6.351  18.517  0.00  0.00    +0.000 F 
ATOM     12  F   UNL     1      53.639   5.063  18.268  0.00  0.00    +0.000 F 
ATOM     13  F   UNL     1      52.758   6.059  16.541  0.00  0.00    +0.000 F 
ENDBRANCH   6  10
BRANCH   4  14
ATOM     14  N   UNL     1      51.596   0.543  17.921  0.00  0.00    +0.000 N 
ATOM     15  H   UNL     1      51.676   0.416  18.924  0.00  0.00    +0.000 HD
ATOM     16  H   UNL     1      52.402   0.174  17.423  0.00  0.00    +0.000 HD
ENDBRANCH   4  14
ENDBRANCH   1   8
BRANCH   1  17
ATOM     17  O   UNL     1      47.573   3.295  15.198  0.00  0.00    +0.000 OA
BRANCH  17  18
ATOM     18  C   UNL     1      47.074   4.305  14.425  0.00  0.00    +0.000 A 
ATOM     19  C   UNL     1      47.700   5.508  14.131  0.00  0.00    +0.000 A 
ATOM     20  C   UNL     1      47.018   6.474  13.383  0.00  0.00    +0.000 A 
ATOM     21  C   UNL     1      45.719   6.236  12.906  0.00  0.00    +0.000 A 
ATOM     22 CL   UNL     1      44.968   7.518  12.031  0.00  0.00    +0.000 Cl
ATOM     23  C   UNL     1      45.095   5.011  13.153  0.00  0.00    +0.000 A 
ATOM     24  C   UNL     1      45.798   4.053  13.913  0.00  0.00    +0.000 A 
BRANCH  23  25
ATOM     25  C   UNL     1      43.727   4.616  12.664  0.00  0.00    +0.000 C 
ATOM     26  F   UNL     1      43.494   4.749  11.334  0.00  0.00    +0.000 F 
ATOM     27  F   UNL     1      43.444   3.315  12.961  0.00  0.00    +0.000 F 
ATOM     28  F   UNL     1      42.745   5.344  13.275  0.00  0.00    +0.000 F 
ENDBRANCH  23  25
ENDBRANCH  17  18
ENDBRANCH   1  17
TORSDOF 6
ENDMDL
MODEL 6
REMARK VINA RESULT:    -6.410      2.084      2.901
REMARK INTER + INTRA:          -9.333
REMARK INTER:                  -8.590
REMARK INTRA:                  -0.743
REMARK UNBOUND:                -0.862
REMARK  Name = 
REMARK  6 active torsions:
REMARK  status: ('A' for Active; 'I' for Inactive)
REMARK    1  A    between atoms: N_1  and  C_2
REMARK    2  A    between atoms: C_4  and  C_5
REMARK    3  A    between atoms: C_10  and  C_11
REMARK    4  A    between atoms: C_11  and  O_12
REMARK    5  A    between atoms: O_12  and  C_13
REMARK    6  A    between atoms: C_18  and  C_19
REMARK                            x       y       z     vdW  Elec       q    Type
REMARK                         _______ _______ _______ _____ _____    ______ ____
ROOT
ATOM      1  C   UNL     1      47.649   7.671  12.855  0.00  0.00    +0.000 C 
ATOM      2  C   UNL     1      47.608   9.169  13.084  0.00  0.00    +0.000 C 
ATOM      3  C   UNL     1      48.294   8.649  11.868  0.00  0.00    +0.000 C 
ENDROOT
BRANCH   1   8
ATOM      4  C   UNL     1      44.212   6.981  11.386  0.00  0.00    +0.000 A 
ATOM      5  C   UNL     1      44.157   5.601  11.514  0.00  0.00    +0.000 A 
ATOM      6  C   UNL     1      45.280   4.907  11.973  0.00  0.00    +0.000 A 
ATOM      7  N   UNL     1      46.422   5.552  12.354  0.00  0.00    +0.000 NA
ATOM      8  C   UNL     1      46.453   6.907  12.304  0.00  0.00    +0.000 A 
ATOM      9  C   UNL     1      45.360   7.629  11.818  0.00  0.00    +0.000 A 
BRANCH   6  10
ATOM     10  C   UNL     1      45.219   3.388  12.079  0.00  0.00    +0.000 C 
ATOM     11  F   UNL     1      45.377   2.756  10.878  0.00  0.00    +0.000 F 
ATOM     12  F   UNL     1      46.189   2.871  12.887  0.00  0.00    +0.000 F 
ATOM     13  F   UNL     1      44.033   2.931  12.573  0.00  0.00    +0.000 F 
ENDBRANCH   6  10
BRANCH   4  14
ATOM     14  N   UNL     1      43.062   7.717  11.086  0.00  0.00    +0.000 N 
ATOM     15  H   UNL     1      42.196   7.188  11.099  0.00  0.00    +0.000 HD
ATOM     16  H   UNL     1      43.141   8.301  10.258  0.00  0.00    +0.000 HD
ENDBRANCH   4  14
ENDBRANCH   1   8
BRANCH   1  17
ATOM     17  O   UNL     1      48.648   6.877  13.536  0.00  0.00    +0.000 OA
BRANCH  17  18
ATOM     18  C   UNL     1      48.561   6.686  14.886  0.00  0.00    +0.000 A 
ATOM     19  C   UNL     1      48.765   7.642  15.871  0.00  0.00    +0.000 A 
ATOM     20  C   UNL     1      48.712   7.266  17.217  0.00  0.00    +0.000 A 
ATOM     21  C   UNL     1      48.433   5.941  17.588  0.00  0.00    +0.000 A 
ATOM     22 CL   UNL     1      48.434   5.591  19.276  0.00  0.00    +0.000 Cl
ATOM     23  C   UNL     1      48.177   4.978  16.609  0.00  0.00    +0.000 A 
ATOM     24  C   UNL     1      48.240   5.378  15.258  0.00  0.00    +0.000 A 
BRANCH  23  25
ATOM     25  C   UNL     1      47.825   3.539  16.874  0.00  0.00    +0.000 C 
ATOM     26  F   UNL     1      48.669   2.841  17.674  0.00  0.00    +0.000 F 
ATOM     27  F   UNL     1      46.592   3.420  17.445  0.00  0.00    +0.000 F 
ATOM     28  F   UNL     1      47.751   2.818  15.714  0.00  0.00    +0.000 F 
ENDBRANCH  23  25
ENDBRANCH  17  18
ENDBRANCH   1  17
TORSDOF 6
ENDMDL
MODEL 7
REMARK VINA RESULT:    -6.339      2.953      6.948
REMARK INTER + INTRA:          -9.240
REMARK INTER:                  -8.903
REMARK INTRA:                  -0.337
REMARK UNBOUND:                -0.862
REMARK  Name = 
REMARK  6 active torsions:
REMARK  status: ('A' for Active; 'I' for Inactive)
REMARK    1  A    between atoms: N_1  and  C_2
REMARK    2  A    between atoms: C_4  and  C_5
REMARK    3  A    between atoms: C_10  and  C_11
REMARK    4  A    between atoms: C_11  and  O_12
REMARK    5  A    between atoms: O_12  and  C_13
REMARK    6  A    between atoms: C_18  and  C_19
REMARK                            x       y       z     vdW  Elec       q    Type
REMARK                         _______ _______ _______ _____ _____    ______ ____
ROOT
ATOM      1  C   UNL     1      47.939   7.183  12.947  0.00  0.00    +0.000 C 
ATOM      2  C   UNL     1      49.008   6.954  11.898  0.00  0.00    +0.000 C 
ATOM      3  C   UNL     1      48.876   8.310  12.501  0.00  0.00    +0.000 C 
ENDROOT
BRANCH   1   8
ATOM      4  C   UNL     1      48.895   7.274  16.625  0.00  0.00    +0.000 A 
ATOM      5  C   UNL     1      48.700   5.943  16.968  0.00  0.00    +0.000 A 
ATOM      6  C   UNL     1      48.157   5.063  16.028  0.00  0.00    +0.000 A 
ATOM      7  N   UNL     1      47.858   5.459  14.755  0.00  0.00    +0.000 NA
ATOM      8  C   UNL     1      48.120   6.740  14.392  0.00  0.00    +0.000 A 
ATOM      9  C   UNL     1      48.630   7.654  15.317  0.00  0.00    +0.000 A 
BRANCH   6  10
ATOM     10  C   UNL     1      47.917   3.612  16.426  0.00  0.00    +0.000 C 
ATOM     11  F   UNL     1      46.811   3.442  17.210  0.00  0.00    +0.000 F 
ATOM     12  F   UNL     1      47.726   2.790  15.353  0.00  0.00    +0.000 F 
ATOM     13  F   UNL     1      48.948   3.072  17.136  0.00  0.00    +0.000 F 
ENDBRANCH   6  10
BRANCH   4  14
ATOM     14  N   UNL     1      49.582   8.139  17.481  0.00  0.00    +0.000 N 
ATOM     15  H   UNL     1      50.533   8.355  17.202  0.00  0.00    +0.000 HD
ATOM     16  H   UNL     1      49.520   7.893  18.466  0.00  0.00    +0.000 HD
ENDBRANCH   4  14
ENDBRANCH   1   8
BRANCH   1  17
ATOM     17  O   UNL     1      46.577   7.435  12.529  0.00  0.00    +0.000 OA
BRANCH  17  18
ATOM     18  C   UNL     1      45.723   6.388  12.328  0.00  0.00    +0.000 A 
ATOM     19  C   UNL     1      44.840   5.852  13.255  0.00  0.00    +0.000 A 
ATOM     20  C   UNL     1      44.084   4.726  12.914  0.00  0.00    +0.000 A 
ATOM     21  C   UNL     1      44.187   4.142  11.642  0.00  0.00    +0.000 A 
ATOM     22 CL   UNL     1      43.235   2.734  11.354  0.00  0.00    +0.000 Cl
ATOM     23  C   UNL     1      45.036   4.699  10.682  0.00  0.00    +0.000 A 
ATOM     24  C   UNL     1      45.792   5.833  11.048  0.00  0.00    +0.000 A 
BRANCH  23  25
ATOM     25  C   UNL     1      45.205   4.198   9.273  0.00  0.00    +0.000 C 
ATOM     26  F   UNL     1      45.576   2.902   9.127  0.00  0.00    +0.000 F 
ATOM     27  F   UNL     1      44.057   4.338   8.549  0.00  0.00    +0.000 F 
ATOM     28  F   UNL     1      46.146   4.920   8.592  0.00  0.00    +0.000 F 
ENDBRANCH  23  25
ENDBRANCH  17  18
ENDBRANCH   1  17
TORSDOF 6
ENDMDL
MODEL 8
REMARK VINA RESULT:    -5.986      4.019      7.425
REMARK INTER + INTRA:          -8.773
REMARK INTER:                  -7.870
REMARK INTRA:                  -0.902
REMARK UNBOUND:                -0.862
REMARK  Name = 
REMARK  6 active torsions:
REMARK  status: ('A' for Active; 'I' for Inactive)
REMARK    1  A    between atoms: N_1  and  C_2
REMARK    2  A    between atoms: C_4  and  C_5
REMARK    3  A    between atoms: C_10  and  C_11
REMARK    4  A    between atoms: C_11  and  O_12
REMARK    5  A    between atoms: O_12  and  C_13
REMARK    6  A    between atoms: C_18  and  C_19
REMARK                            x       y       z     vdW  Elec       q    Type
REMARK                         _______ _______ _______ _____ _____    ______ ____
ROOT
ATOM      1  C   UNL     1      47.878   4.032  16.304  0.00  0.00    +0.000 C 
ATOM      2  C   UNL     1      46.945   3.258  17.214  0.00  0.00    +0.000 C 
ATOM      3  C   UNL     1      48.336   2.758  17.023  0.00  0.00    +0.000 C 
ENDROOT
BRANCH   1   8
ATOM      4  C   UNL     1      48.427   7.429  17.918  0.00  0.00    +0.000 A 
ATOM      5  C   UNL     1      49.687   7.740  17.425  0.00  0.00    +0.000 A 
ATOM      6  C   UNL     1      50.381   6.794  16.665  0.00  0.00    +0.000 A 
ATOM      7  N   UNL     1      49.837   5.583  16.345  0.00  0.00    +0.000 NA
ATOM      8  C   UNL     1      48.575   5.305  16.760  0.00  0.00    +0.000 A 
ATOM      9  C   UNL     1      47.866   6.214  17.549  0.00  0.00    +0.000 A 
BRANCH   6  10
ATOM     10  C   UNL     1      51.777   7.135  16.157  0.00  0.00    +0.000 C 
ATOM     11  F   UNL     1      51.791   7.553  14.856  0.00  0.00    +0.000 F 
ATOM     12  F   UNL     1      52.371   8.140  16.863  0.00  0.00    +0.000 F 
ATOM     13  F   UNL     1      52.638   6.079  16.206  0.00  0.00    +0.000 F 
ENDBRANCH   6  10
BRANCH   4  14
ATOM     14  N   UNL     1      47.642   8.404  18.539  0.00  0.00    +0.000 N 
ATOM     15  H   UNL     1      48.002   9.351  18.476  0.00  0.00    +0.000 HD
ATOM     16  H   UNL     1      47.349   8.168  19.484  0.00  0.00    +0.000 HD
ENDBRANCH   4  14
ENDBRANCH   1   8
BRANCH   1  17
ATOM     17  O   UNL     1      47.802   3.829  14.873  0.00  0.00    +0.000 OA
BRANCH  17  18
ATOM     18  C   UNL     1      47.128   4.726  14.094  0.00  0.00    +0.000 A 
ATOM     19  C   UNL     1      47.587   5.968  13.678  0.00  0.00    +0.000 A 
ATOM     20  C   UNL     1      46.739   6.803  12.942  0.00  0.00    +0.000 A 
ATOM     21  C   UNL     1      45.440   6.396  12.600  0.00  0.00    +0.000 A 
ATOM     22 CL   UNL     1      44.477   7.529  11.727  0.00  0.00    +0.000 Cl
ATOM     23  C   UNL     1      44.981   5.130  12.971  0.00  0.00    +0.000 A 
ATOM     24  C   UNL     1      45.850   4.305  13.715  0.00  0.00    +0.000 A 
BRANCH  23  25
ATOM     25  C   UNL     1      43.631   4.558  12.630  0.00  0.00    +0.000 C 
ATOM     26  F   UNL     1      43.420   3.258  12.954  0.00  0.00    +0.000 F 
ATOM     27  F   UNL     1      42.624   5.256  13.229  0.00  0.00    +0.000 F 
ATOM     28  F   UNL     1      43.374   4.641  11.290  0.00  0.00    +0.000 F 
ENDBRANCH  23  25
ENDBRANCH  17  18
ENDBRANCH   1  17
TORSDOF 6
ENDMDL
MODEL 9
REMARK VINA RESULT:    -5.926      4.064      5.581
REMARK INTER + INTRA:          -8.694
REMARK INTER:                  -8.096
REMARK INTRA:                  -0.598
REMARK UNBOUND:                -0.862
REMARK  Name = 
REMARK  6 active torsions:
REMARK  status: ('A' for Active; 'I' for Inactive)
REMARK    1  A    between atoms: N_1  and  C_2
REMARK    2  A    between atoms: C_4  and  C_5
REMARK    3  A    between atoms: C_10  and  C_11
REMARK    4  A    between atoms: C_11  and  O_12
REMARK    5  A    between atoms: O_12  and  C_13
REMARK    6  A    between atoms: C_18  and  C_19
REMARK                            x       y       z     vdW  Elec       q    Type
REMARK                         _______ _______ _______ _____ _____    ______ ____
ROOT
ATOM      1  C   UNL     1      46.818   6.985  12.659  0.00  0.00    +0.000 C 
ATOM      2  C   UNL     1      48.277   6.993  12.249  0.00  0.00    +0.000 C 
ATOM      3  C   UNL     1      47.904   6.378  13.554  0.00  0.00    +0.000 C 
ENDROOT
BRANCH   1   8
ATOM      4  C   UNL     1      44.022   4.414  12.498  0.00  0.00    +0.000 A 
ATOM      5  C   UNL     1      44.159   3.977  11.188  0.00  0.00    +0.000 A 
ATOM      6  C   UNL     1      45.085   4.600  10.347  0.00  0.00    +0.000 A 
ATOM      7  N   UNL     1      45.904   5.601  10.789  0.00  0.00    +0.000 NA
ATOM      8  C   UNL     1      45.827   5.979  12.090  0.00  0.00    +0.000 A 
ATOM      9  C   UNL     1      44.890   5.399  12.949  0.00  0.00    +0.000 A 
BRANCH   6  10
ATOM     10  C   UNL     1      45.204   4.133   8.902  0.00  0.00    +0.000 C 
ATOM     11  F   UNL     1      44.044   4.267   8.193  0.00  0.00    +0.000 F 
ATOM     12  F   UNL     1      46.140   4.828   8.193  0.00  0.00    +0.000 F 
ATOM     13  F   UNL     1      45.544   2.818   8.789  0.00  0.00    +0.000 F 
ENDBRANCH   6  10
BRANCH   4  14
ATOM     14  N   UNL     1      43.228   3.711  13.407  0.00  0.00    +0.000 N 
ATOM     15  H   UNL     1      42.502   3.137  12.990  0.00  0.00    +0.000 HD
ATOM     16  H   UNL     1      42.876   4.271  14.180  0.00  0.00    +0.000 HD
ENDBRANCH   4  14
ENDBRANCH   1   8
BRANCH   1  17
ATOM     17  O   UNL     1      46.244   8.169  13.259  0.00  0.00    +0.000 OA
BRANCH  17  18
ATOM     18  C   UNL     1      45.974   9.262  12.484  0.00  0.00    +0.000 A 
ATOM     19  C   UNL     1      44.718   9.740  12.138  0.00  0.00    +0.000 A 
ATOM     20  C   UNL     1      44.614  10.832  11.269  0.00  0.00    +0.000 A 
ATOM     21  C   UNL     1      45.759  11.465  10.761  0.00  0.00    +0.000 A 
ATOM     22 CL   UNL     1      45.501  12.774   9.669  0.00  0.00    +0.000 Cl
ATOM     23  C   UNL     1      47.030  11.025  11.139  0.00  0.00    +0.000 A 
ATOM     24  C   UNL     1      47.113   9.920  12.012  0.00  0.00    +0.000 A 
BRANCH  23  25
ATOM     25  C   UNL     1      48.331  11.642  10.701  0.00  0.00    +0.000 C 
ATOM     26  F   UNL     1      48.582  12.904  11.130  0.00  0.00    +0.000 F 
ATOM     27  F   UNL     1      49.400  10.896  11.102  0.00  0.00    +0.000 F 
ATOM     28  F   UNL     1      48.427  11.699   9.339  0.00  0.00    +0.000 F 
ENDBRANCH  23  25
ENDBRANCH  17  18
ENDBRANCH   1  17
TORSDOF 6
ENDMDL
