MODEL 1
REMARK VINA RESULT:    -7.734      0.000      0.000
REMARK INTER + INTRA:         -11.995
REMARK INTER:                 -10.899
REMARK INTRA:                  -1.095
REMARK UNBOUND:                -1.095
REMARK  Name = 
REMARK  9 active torsions:
REMARK  status: ('A' for Active; 'I' for Inactive)
REMARK    1  A    between atoms: C_1  and  C_2
REMARK    2  A    between atoms: C_5  and  C_6
REMARK    3  A    between atoms: N_8  and  C_9
REMARK    4  A    between atoms: C_9  and  C_10
REMARK    5  A    between atoms: C_13  and  C_14
REMARK    6  A    between atoms: C_14  and  N_15
REMARK    7  A    between atoms: N_15  and  C_16
REMARK    8  A    between atoms: C_16  and  C_17
REMARK    9  A    between atoms: C_29  and  C_30
REMARK                            x       y       z     vdW  Elec       q    Type
REMARK                         _______ _______ _______ _____ _____    ______ ____
ROOT
ATOM      1  C   UNL     1      47.425   6.247  13.578  0.00  0.00    +0.000 A 
ATOM      2  C   UNL     1      46.796   6.799  12.455  0.00  0.00    +0.000 A 
ATOM      3  C   UNL     1      45.832   6.074  11.745  0.00  0.00    +0.000 A 
ATOM      4  C   UNL     1      45.473   4.776  12.139  0.00  0.00    +0.000 A 
ATOM      5  C   UNL     1      46.086   4.233  13.277  0.00  0.00    +0.000 A 
ATOM      6  C   UNL     1      47.044   4.963  13.993  0.00  0.00    +0.000 A 
ENDROOT
BRANCH   1   7
ATOM      7  C   UNL     1      48.497   7.021  14.308  0.00  0.00    +0.000 C 
BRANCH   7  10
ATOM      8  C   UNL     1      48.910   6.261  16.609  0.00  0.00    +0.000 C 
ATOM      9  O   UNL     1      49.711   5.402  16.248  0.00  0.00    +0.000 OA
ATOM     10  N   UNL     1      48.270   7.107  15.721  0.00  0.00    +0.000 N 
ATOM     11  H   UNL     1      47.613   7.787  16.104  0.00  0.00    +0.000 HD
BRANCH   8  16
ATOM     12  C   UNL     1      47.011  10.956  19.397  0.00  0.00    +0.000 C 
ATOM     13  C   UNL     1      47.400   9.530  19.389  0.00  0.00    +0.000 A 
ATOM     14  N   UNL     1      47.839   8.945  18.203  0.00  0.00    +0.000 NA
ATOM     15  C   UNL     1      48.090   7.704  18.556  0.00  0.00    +0.000 A 
ATOM     16  C   UNL     1      48.537   6.478  18.028  0.00  0.00    +0.000 C 
ATOM     17  C   UNL     1      48.519   5.632  19.092  0.00  0.00    +0.000 C 
ATOM     18  N   UNL     1      48.104   6.138  20.301  0.00  0.00    +0.000 NA
ATOM     19  N   UNL     1      47.842   7.492  19.869  0.00  0.00    +0.000 N 
ATOM     20  C   UNL     1      47.383   8.627  20.452  0.00  0.00    +0.000 A 
ATOM     21  C   UNL     1      46.997   8.762  21.866  0.00  0.00    +0.000 C 
ENDBRANCH   8  16
ENDBRANCH   7  10
ENDBRANCH   1   7
BRANCH   4  22
ATOM     22  C   UNL     1      44.441   3.989  11.359  0.00  0.00    +0.000 C 
BRANCH  22  23
ATOM     23  N   UNL     1      45.004   2.728  10.875  0.00  0.00    +0.000 NA
ATOM     24  H   UNL     1      44.738   1.988  11.525  0.00  0.00    +0.000 HD
BRANCH  23  25
ATOM     25  C   UNL     1      44.502   2.368   9.547  0.00  0.00    +0.000 C 
BRANCH  25  26
ATOM     26  C   UNL     1      45.636   2.160   8.556  0.00  0.00    +0.000 A 
ATOM     27  N   UNL     1      45.970   0.857   8.309  0.00  0.00    +0.000 NA
ATOM     28  C   UNL     1      46.975   0.619   7.437  0.00  0.00    +0.000 A 
ATOM     29  C   UNL     1      47.664   1.612   6.767  0.00  0.00    +0.000 A 
ATOM     30  C   UNL     1      47.327   2.936   7.032  0.00  0.00    +0.000 A 
ATOM     31  C   UNL     1      46.316   3.223   7.953  0.00  0.00    +0.000 A 
ATOM     32 CL   UNL     1      45.977   4.879   8.289  0.00  0.00    +0.000 Cl
ENDBRANCH  25  26
ENDBRANCH  23  25
ENDBRANCH  22  23
ENDBRANCH   4  22
TORSDOF 7
ENDMDL
MODEL 2
REMARK VINA RESULT:    -7.638      2.756      3.311
REMARK INTER + INTRA:         -11.858
REMARK INTER:                 -10.580
REMARK INTRA:                  -1.278
REMARK UNBOUND:                -1.095
REMARK  Name = 
REMARK  9 active torsions:
REMARK  status: ('A' for Active; 'I' for Inactive)
REMARK    1  A    between atoms: C_1  and  C_2
REMARK    2  A    between atoms: C_5  and  C_6
REMARK    3  A    between atoms: N_8  and  C_9
REMARK    4  A    between atoms: C_9  and  C_10
REMARK    5  A    between atoms: C_13  and  C_14
REMARK    6  A    between atoms: C_14  and  N_15
REMARK    7  A    between atoms: N_15  and  C_16
REMARK    8  A    between atoms: C_16  and  C_17
REMARK    9  A    between atoms: C_29  and  C_30
REMARK                            x       y       z     vdW  Elec       q    Type
REMARK                         _______ _______ _______ _____ _____    ______ ____
ROOT
ATOM      1  C   UNL     1      46.193   6.777  12.812  0.00  0.00    +0.000 A 
ATOM      2  C   UNL     1      46.391   5.482  13.308  0.00  0.00    +0.000 A 
ATOM      3  C   UNL     1      45.664   4.400  12.799  0.00  0.00    +0.000 A 
ATOM      4  C   UNL     1      44.718   4.585  11.781  0.00  0.00    +0.000 A 
ATOM      5  C   UNL     1      44.536   5.877  11.268  0.00  0.00    +0.000 A 
ATOM      6  C   UNL     1      45.271   6.958  11.771  0.00  0.00    +0.000 A 
ENDROOT
BRANCH   1   7
ATOM      7  C   UNL     1      46.949   7.943  13.401  0.00  0.00    +0.000 C 
BRANCH   7  10
ATOM      8  C   UNL     1      49.213   7.779  14.345  0.00  0.00    +0.000 C 
ATOM      9  O   UNL     1      49.728   8.317  13.367  0.00  0.00    +0.000 OA
ATOM     10  N   UNL     1      47.850   7.562  14.449  0.00  0.00    +0.000 N 
ATOM     11  H   UNL     1      47.508   7.102  15.292  0.00  0.00    +0.000 HD
BRANCH   8  16
ATOM     12  C   UNL     1      48.461   3.250  17.858  0.00  0.00    +0.000 C 
ATOM     13  C   UNL     1      49.221   4.448  17.443  0.00  0.00    +0.000 A 
ATOM     14  N   UNL     1      48.776   5.201  16.359  0.00  0.00    +0.000 NA
ATOM     15  C   UNL     1      49.668   6.163  16.275  0.00  0.00    +0.000 A 
ATOM     16  C   UNL     1      49.994   7.300  15.512  0.00  0.00    +0.000 C 
ATOM     17  C   UNL     1      51.126   7.777  16.093  0.00  0.00    +0.000 C 
ATOM     18  N   UNL     1      51.624   7.091  17.176  0.00  0.00    +0.000 NA
ATOM     19  N   UNL     1      50.620   6.054  17.231  0.00  0.00    +0.000 N 
ATOM     20  C   UNL     1      50.391   4.962  18.002  0.00  0.00    +0.000 A 
ATOM     21  C   UNL     1      51.231   4.524  19.129  0.00  0.00    +0.000 C 
ENDBRANCH   8  16
ENDBRANCH   7  10
ENDBRANCH   1   7
BRANCH   4  22
ATOM     22  C   UNL     1      43.922   3.414  11.244  0.00  0.00    +0.000 C 
BRANCH  22  23
ATOM     23  N   UNL     1      44.809   2.404  10.663  0.00  0.00    +0.000 NA
ATOM     24  H   UNL     1      44.740   1.556  11.227  0.00  0.00    +0.000 HD
BRANCH  23  25
ATOM     25  C   UNL     1      44.442   2.067   9.286  0.00  0.00    +0.000 C 
BRANCH  25  26
ATOM     26  C   UNL     1      45.663   1.974   8.387  0.00  0.00    +0.000 A 
ATOM     27  N   UNL     1      46.119   0.708   8.143  0.00  0.00    +0.000 NA
ATOM     28  C   UNL     1      47.206   0.571   7.350  0.00  0.00    +0.000 A 
ATOM     29  C   UNL     1      47.864   1.632   6.758  0.00  0.00    +0.000 A 
ATOM     30  C   UNL     1      47.403   2.918   7.020  0.00  0.00    +0.000 A 
ATOM     31  C   UNL     1      46.302   3.102   7.861  0.00  0.00    +0.000 A 
ATOM     32 CL   UNL     1      45.806   4.717   8.200  0.00  0.00    +0.000 Cl
ENDBRANCH  25  26
ENDBRANCH  23  25
ENDBRANCH  22  23
ENDBRANCH   4  22
TORSDOF 7
ENDMDL
MODEL 3
REMARK VINA RESULT:    -7.391      1.645      2.536
REMARK INTER + INTRA:         -11.511
REMARK INTER:                 -10.346
REMARK INTRA:                  -1.165
REMARK UNBOUND:                -1.095
REMARK  Name = 
REMARK  9 active torsions:
REMARK  status: ('A' for Active; 'I' for Inactive)
REMARK    1  A    between atoms: C_1  and  C_2
REMARK    2  A    between atoms: C_5  and  C_6
REMARK    3  A    between atoms: N_8  and  C_9
REMARK    4  A    between atoms: C_9  and  C_10
REMARK    5  A    between atoms: C_13  and  C_14
REMARK    6  A    between atoms: C_14  and  N_15
REMARK    7  A    between atoms: N_15  and  C_16
REMARK    8  A    between atoms: C_16  and  C_17
REMARK    9  A    between atoms: C_29  and  C_30
REMARK                            x       y       z     vdW  Elec       q    Type
REMARK                         _______ _______ _______ _____ _____    ______ ____
ROOT
ATOM      1  C   UNL     1      46.795   6.626  13.225  0.00  0.00    +0.000 A 
ATOM      2  C   UNL     1      45.786   7.028  12.340  0.00  0.00    +0.000 A 
ATOM      3  C   UNL     1      44.931   6.088  11.753  0.00  0.00    +0.000 A 
ATOM      4  C   UNL     1      45.063   4.720  12.035  0.00  0.00    +0.000 A 
ATOM      5  C   UNL     1      46.057   4.320  12.939  0.00  0.00    +0.000 A 
ATOM      6  C   UNL     1      46.907   5.262  13.534  0.00  0.00    +0.000 A 
ENDROOT
BRANCH   1   7
ATOM      7  C   UNL     1      47.741   7.643  13.815  0.00  0.00    +0.000 C 
BRANCH   7  10
ATOM      8  C   UNL     1      48.650   8.353  15.986  0.00  0.00    +0.000 C 
ATOM      9  O   UNL     1      48.913   9.482  15.577  0.00  0.00    +0.000 OA
ATOM     10  N   UNL     1      48.065   7.386  15.188  0.00  0.00    +0.000 N 
ATOM     11  H   UNL     1      47.888   6.473  15.605  0.00  0.00    +0.000 HD
BRANCH   8  16
ATOM     12  C   UNL     1      48.450   3.120  18.435  0.00  0.00    +0.000 C 
ATOM     13  C   UNL     1      48.706   4.574  18.518  0.00  0.00    +0.000 A 
ATOM     14  N   UNL     1      48.523   5.368  17.388  0.00  0.00    +0.000 NA
ATOM     15  C   UNL     1      48.834   6.572  17.813  0.00  0.00    +0.000 A 
ATOM     16  C   UNL     1      48.937   7.905  17.371  0.00  0.00    +0.000 C 
ATOM     17  C   UNL     1      49.345   8.589  18.471  0.00  0.00    +0.000 C 
ATOM     18  N   UNL     1      49.541   7.875  19.630  0.00  0.00    +0.000 NA
ATOM     19  N   UNL     1      49.188   6.570  19.119  0.00  0.00    +0.000 N 
ATOM     20  C   UNL     1      49.137   5.312  19.620  0.00  0.00    +0.000 A 
ATOM     21  C   UNL     1      49.471   4.931  21.003  0.00  0.00    +0.000 C 
ENDBRANCH   8  16
ENDBRANCH   7  10
ENDBRANCH   1   7
BRANCH   4  22
ATOM     22  C   UNL     1      44.146   3.706  11.386  0.00  0.00    +0.000 C 
BRANCH  22  23
ATOM     23  N   UNL     1      44.915   2.601  10.810  0.00  0.00    +0.000 NA
ATOM     24  H   UNL     1      44.782   1.778  11.399  0.00  0.00    +0.000 HD
BRANCH  23  25
ATOM     25  C   UNL     1      44.477   2.266   9.454  0.00  0.00    +0.000 C 
BRANCH  25  26
ATOM     26  C   UNL     1      45.655   2.094   8.510  0.00  0.00    +0.000 A 
ATOM     27  N   UNL     1      46.021   0.802   8.254  0.00  0.00    +0.000 NA
ATOM     28  C   UNL     1      47.067   0.595   7.422  0.00  0.00    +0.000 A 
ATOM     29  C   UNL     1      47.768   1.612   6.801  0.00  0.00    +0.000 A 
ATOM     30  C   UNL     1      47.398   2.925   7.076  0.00  0.00    +0.000 A 
ATOM     31  C   UNL     1      46.344   3.179   7.957  0.00  0.00    +0.000 A 
ATOM     32 CL   UNL     1      45.963   4.822   8.308  0.00  0.00    +0.000 Cl
ENDBRANCH  25  26
ENDBRANCH  23  25
ENDBRANCH  22  23
ENDBRANCH   4  22
TORSDOF 7
ENDMDL
MODEL 4
REMARK VINA RESULT:    -7.357      3.283      5.845
REMARK INTER + INTRA:         -11.463
REMARK INTER:                 -10.797
REMARK INTRA:                  -0.666
REMARK UNBOUND:                -1.095
REMARK  Name = 
REMARK  9 active torsions:
REMARK  status: ('A' for Active; 'I' for Inactive)
REMARK    1  A    between atoms: C_1  and  C_2
REMARK    2  A    between atoms: C_5  and  C_6
REMARK    3  A    between atoms: N_8  and  C_9
REMARK    4  A    between atoms: C_9  and  C_10
REMARK    5  A    between atoms: C_13  and  C_14
REMARK    6  A    between atoms: C_14  and  N_15
REMARK    7  A    between atoms: N_15  and  C_16
REMARK    8  A    between atoms: C_16  and  C_17
REMARK    9  A    between atoms: C_29  and  C_30
REMARK                            x       y       z     vdW  Elec       q    Type
REMARK                         _______ _______ _______ _____ _____    ______ ____
ROOT
ATOM      1  C   UNL     1      45.092   3.734   9.464  0.00  0.00    +0.000 A 
ATOM      2  C   UNL     1      45.821   4.424   8.486  0.00  0.00    +0.000 A 
ATOM      3  C   UNL     1      46.499   3.731   7.476  0.00  0.00    +0.000 A 
ATOM      4  C   UNL     1      46.467   2.330   7.418  0.00  0.00    +0.000 A 
ATOM      5  C   UNL     1      45.717   1.641   8.382  0.00  0.00    +0.000 A 
ATOM      6  C   UNL     1      45.031   2.335   9.388  0.00  0.00    +0.000 A 
ENDROOT
BRANCH   1   7
ATOM      7  C   UNL     1      44.404   4.490  10.575  0.00  0.00    +0.000 C 
BRANCH   7  10
ATOM      8  C   UNL     1      45.650   4.385  12.691  0.00  0.00    +0.000 C 
ATOM      9  O   UNL     1      45.200   3.276  12.973  0.00  0.00    +0.000 OA
ATOM     10  N   UNL     1      45.316   5.053  11.526  0.00  0.00    +0.000 N 
ATOM     11  H   UNL     1      45.729   5.973  11.374  0.00  0.00    +0.000 HD
BRANCH   8  16
ATOM     12  C   UNL     1      47.840   3.122  17.890  0.00  0.00    +0.000 C 
ATOM     13  C   UNL     1      47.721   4.025  16.725  0.00  0.00    +0.000 A 
ATOM     14  N   UNL     1      46.890   3.670  15.665  0.00  0.00    +0.000 NA
ATOM     15  C   UNL     1      47.025   4.675  14.828  0.00  0.00    +0.000 A 
ATOM     16  C   UNL     1      46.588   5.127  13.569  0.00  0.00    +0.000 C 
ATOM     17  C   UNL     1      47.221   6.318  13.405  0.00  0.00    +0.000 C 
ATOM     18  N   UNL     1      48.054   6.741  14.414  0.00  0.00    +0.000 NA
ATOM     19  N   UNL     1      47.874   5.617  15.303  0.00  0.00    +0.000 N 
ATOM     20  C   UNL     1      48.362   5.246  16.512  0.00  0.00    +0.000 A 
ATOM     21  C   UNL     1      49.322   6.019  17.317  0.00  0.00    +0.000 C 
ENDBRANCH   8  16
ENDBRANCH   7  10
ENDBRANCH   1   7
BRANCH   4  22
ATOM     22  C   UNL     1      47.214   1.584   6.333  0.00  0.00    +0.000 C 
BRANCH  22  23
ATOM     23  N   UNL     1      46.566   1.769   5.033  0.00  0.00    +0.000 NA
ATOM     24  H   UNL     1      46.446   2.770   4.875  0.00  0.00    +0.000 HD
BRANCH  23  25
ATOM     25  C   UNL     1      47.364   1.227   3.932  0.00  0.00    +0.000 C 
BRANCH  25  26
ATOM     26  C   UNL     1      46.762  -0.054   3.380  0.00  0.00    +0.000 A 
ATOM     27  N   UNL     1      47.413  -1.207   3.724  0.00  0.00    +0.000 NA
ATOM     28  C   UNL     1      46.918  -2.375   3.256  0.00  0.00    +0.000 A 
ATOM     29  C   UNL     1      45.784  -2.470   2.472  0.00  0.00    +0.000 A 
ATOM     30  C   UNL     1      45.133  -1.293   2.116  0.00  0.00    +0.000 A 
ATOM     31  C   UNL     1      45.634  -0.064   2.553  0.00  0.00    +0.000 A 
ATOM     32 CL   UNL     1      44.826   1.367   2.036  0.00  0.00    +0.000 Cl
ENDBRANCH  25  26
ENDBRANCH  23  25
ENDBRANCH  22  23
ENDBRANCH   4  22
TORSDOF 7
ENDMDL
MODEL 5
REMARK VINA RESULT:    -7.230      3.061      4.025
REMARK INTER + INTRA:         -11.284
REMARK INTER:                  -9.974
REMARK INTRA:                  -1.309
REMARK UNBOUND:                -1.095
REMARK  Name = 
REMARK  9 active torsions:
REMARK  status: ('A' for Active; 'I' for Inactive)
REMARK    1  A    between atoms: C_1  and  C_2
REMARK    2  A    between atoms: C_5  and  C_6
REMARK    3  A    between atoms: N_8  and  C_9
REMARK    4  A    between atoms: C_9  and  C_10
REMARK    5  A    between atoms: C_13  and  C_14
REMARK    6  A    between atoms: C_14  and  N_15
REMARK    7  A    between atoms: N_15  and  C_16
REMARK    8  A    between atoms: C_16  and  C_17
REMARK    9  A    between atoms: C_29  and  C_30
REMARK                            x       y       z     vdW  Elec       q    Type
REMARK                         _______ _______ _______ _____ _____    ______ ____
ROOT
ATOM      1  C   UNL     1      45.885   7.134  12.609  0.00  0.00    +0.000 A 
ATOM      2  C   UNL     1      44.758   7.120  11.777  0.00  0.00    +0.000 A 
ATOM      3  C   UNL     1      44.138   5.914  11.430  0.00  0.00    +0.000 A 
ATOM      4  C   UNL     1      44.630   4.689  11.906  0.00  0.00    +0.000 A 
ATOM      5  C   UNL     1      45.743   4.706  12.759  0.00  0.00    +0.000 A 
ATOM      6  C   UNL     1      46.358   5.914  13.112  0.00  0.00    +0.000 A 
ENDROOT
BRANCH   1   7
ATOM      7  C   UNL     1      46.573   8.437  12.938  0.00  0.00    +0.000 C 
BRANCH   7  10
ATOM      8  C   UNL     1      48.997   8.842  12.938  0.00  0.00    +0.000 C 
ATOM      9  O   UNL     1      48.943   9.545  11.932  0.00  0.00    +0.000 OA
ATOM     10  N   UNL     1      47.877   8.261  13.506  0.00  0.00    +0.000 N 
ATOM     11  H   UNL     1      48.012   7.685  14.337  0.00  0.00    +0.000 HD
BRANCH   8  16
ATOM     12  C   UNL     1      50.144   5.336  17.391  0.00  0.00    +0.000 C 
ATOM     13  C   UNL     1      50.585   6.303  16.364  0.00  0.00    +0.000 A 
ATOM     14  N   UNL     1      49.649   6.851  15.489  0.00  0.00    +0.000 NA
ATOM     15  C   UNL     1      50.374   7.645  14.732  0.00  0.00    +0.000 A 
ATOM     16  C   UNL     1      50.265   8.533  13.646  0.00  0.00    +0.000 C 
ATOM     17  C   UNL     1      51.535   8.974  13.447  0.00  0.00    +0.000 C 
ATOM     18  N   UNL     1      52.515   8.484  14.278  0.00  0.00    +0.000 NA
ATOM     19  N   UNL     1      51.681   7.625  15.085  0.00  0.00    +0.000 N 
ATOM     20  C   UNL     1      51.877   6.770  16.119  0.00  0.00    +0.000 A 
ATOM     21  C   UNL     1      53.175   6.485  16.753  0.00  0.00    +0.000 C 
ENDBRANCH   8  16
ENDBRANCH   7  10
ENDBRANCH   1   7
BRANCH   4  22
ATOM     22  C   UNL     1      43.965   3.386  11.516  0.00  0.00    +0.000 C 
BRANCH  22  23
ATOM     23  N   UNL     1      44.908   2.508  10.822  0.00  0.00    +0.000 NA
ATOM     24  H   UNL     1      44.981   1.637  11.349  0.00  0.00    +0.000 HD
BRANCH  23  25
ATOM     25  C   UNL     1      44.467   2.182   9.464  0.00  0.00    +0.000 C 
BRANCH  25  26
ATOM     26  C   UNL     1      45.640   2.081   8.503  0.00  0.00    +0.000 A 
ATOM     27  N   UNL     1      46.026   0.810   8.177  0.00  0.00    +0.000 NA
ATOM     28  C   UNL     1      47.068   0.666   7.327  0.00  0.00    +0.000 A 
ATOM     29  C   UNL     1      47.745   1.726   6.754  0.00  0.00    +0.000 A 
ATOM     30  C   UNL     1      47.355   3.016   7.100  0.00  0.00    +0.000 A 
ATOM     31  C   UNL     1      46.305   3.205   8.002  0.00  0.00    +0.000 A 
ATOM     32 CL   UNL     1      45.898   4.821   8.441  0.00  0.00    +0.000 Cl
ENDBRANCH  25  26
ENDBRANCH  23  25
ENDBRANCH  22  23
ENDBRANCH   4  22
TORSDOF 7
ENDMDL
MODEL 6
REMARK VINA RESULT:    -7.170      1.606      2.511
REMARK INTER + INTRA:         -11.200
REMARK INTER:                 -10.349
REMARK INTRA:                  -0.850
REMARK UNBOUND:                -1.095
REMARK  Name = 
REMARK  9 active torsions:
REMARK  status: ('A' for Active; 'I' for Inactive)
REMARK    1  A    between atoms: C_1  and  C_2
REMARK    2  A    between atoms: C_5  and  C_6
REMARK    3  A    between atoms: N_8  and  C_9
REMARK    4  A    between atoms: C_9  and  C_10
REMARK    5  A    between atoms: C_13  and  C_14
REMARK    6  A    between atoms: C_14  and  N_15
REMARK    7  A    between atoms: N_15  and  C_16
REMARK    8  A    between atoms: C_16  and  C_17
REMARK    9  A    between atoms: C_29  and  C_30
REMARK                            x       y       z     vdW  Elec       q    Type
REMARK                         _______ _______ _______ _____ _____    ______ ____
ROOT
ATOM      1  C   UNL     1      46.834   4.639  13.974  0.00  0.00    +0.000 A 
ATOM      2  C   UNL     1      46.021   3.771  13.233  0.00  0.00    +0.000 A 
ATOM      3  C   UNL     1      45.440   4.185  12.029  0.00  0.00    +0.000 A 
ATOM      4  C   UNL     1      45.657   5.480  11.534  0.00  0.00    +0.000 A 
ATOM      5  C   UNL     1      46.489   6.341  12.263  0.00  0.00    +0.000 A 
ATOM      6  C   UNL     1      47.077   5.923  13.464  0.00  0.00    +0.000 A 
ENDROOT
BRANCH   1   7
ATOM      7  C   UNL     1      47.415   4.197  15.295  0.00  0.00    +0.000 C 
BRANCH   7  10
ATOM      8  C   UNL     1      48.679   5.759  16.709  0.00  0.00    +0.000 C 
ATOM      9  O   UNL     1      49.764   5.360  16.290  0.00  0.00    +0.000 OA
ATOM     10  N   UNL     1      47.472   5.247  16.269  0.00  0.00    +0.000 N 
ATOM     11  H   UNL     1      46.619   5.630  16.675  0.00  0.00    +0.000 HD
BRANCH   8  16
ATOM     12  C   UNL     1      47.165   5.537  22.284  0.00  0.00    +0.000 C 
ATOM     13  C   UNL     1      47.587   6.302  21.093  0.00  0.00    +0.000 A 
ATOM     14  N   UNL     1      47.801   5.634  19.889  0.00  0.00    +0.000 NA
ATOM     15  C   UNL     1      48.158   6.598  19.069  0.00  0.00    +0.000 A 
ATOM     16  C   UNL     1      48.548   6.823  17.735  0.00  0.00    +0.000 C 
ATOM     17  C   UNL     1      48.759   8.164  17.672  0.00  0.00    +0.000 C 
ATOM     18  N   UNL     1      48.560   8.895  18.820  0.00  0.00    +0.000 NA
ATOM     19  N   UNL     1      48.172   7.804  19.684  0.00  0.00    +0.000 N 
ATOM     20  C   UNL     1      47.827   7.673  20.988  0.00  0.00    +0.000 A 
ATOM     21  C   UNL     1      47.750   8.772  21.964  0.00  0.00    +0.000 C 
ENDBRANCH   8  16
ENDBRANCH   7  10
ENDBRANCH   1   7
BRANCH   4  22
ATOM     22  C   UNL     1      45.015   5.929  10.238  0.00  0.00    +0.000 C 
BRANCH  22  23
ATOM     23  N   UNL     1      45.751   5.409   9.084  0.00  0.00    +0.000 NA
ATOM     24  H   UNL     1      46.623   4.999   9.420  0.00  0.00    +0.000 HD
BRANCH  23  25
ATOM     25  C   UNL     1      45.005   4.371   8.370  0.00  0.00    +0.000 C 
BRANCH  25  26
ATOM     26  C   UNL     1      45.910   3.232   7.931  0.00  0.00    +0.000 A 
ATOM     27  N   UNL     1      46.960   3.590   7.129  0.00  0.00    +0.000 NA
ATOM     28  C   UNL     1      47.793   2.612   6.708  0.00  0.00    +0.000 A 
ATOM     29  C   UNL     1      47.658   1.282   7.060  0.00  0.00    +0.000 A 
ATOM     30  C   UNL     1      46.582   0.923   7.865  0.00  0.00    +0.000 A 
ATOM     31  C   UNL     1      45.680   1.901   8.293  0.00  0.00    +0.000 A 
ATOM     32 CL   UNL     1      44.332   1.396   9.240  0.00  0.00    +0.000 Cl
ENDBRANCH  25  26
ENDBRANCH  23  25
ENDBRANCH  22  23
ENDBRANCH   4  22
TORSDOF 7
ENDMDL
MODEL 7
REMARK VINA RESULT:    -6.962      4.008      6.421
REMARK INTER + INTRA:         -10.906
REMARK INTER:                  -9.702
REMARK INTRA:                  -1.204
REMARK UNBOUND:                -1.095
REMARK  Name = 
REMARK  9 active torsions:
REMARK  status: ('A' for Active; 'I' for Inactive)
REMARK    1  A    between atoms: C_1  and  C_2
REMARK    2  A    between atoms: C_5  and  C_6
REMARK    3  A    between atoms: N_8  and  C_9
REMARK    4  A    between atoms: C_9  and  C_10
REMARK    5  A    between atoms: C_13  and  C_14
REMARK    6  A    between atoms: C_14  and  N_15
REMARK    7  A    between atoms: N_15  and  C_16
REMARK    8  A    between atoms: C_16  and  C_17
REMARK    9  A    between atoms: C_29  and  C_30
REMARK                            x       y       z     vdW  Elec       q    Type
REMARK                         _______ _______ _______ _____ _____    ______ ____
ROOT
ATOM      1  C   UNL     1      46.862   6.421  12.959  0.00  0.00    +0.000 A 
ATOM      2  C   UNL     1      46.693   5.128  13.471  0.00  0.00    +0.000 A 
ATOM      3  C   UNL     1      45.810   4.226  12.865  0.00  0.00    +0.000 A 
ATOM      4  C   UNL     1      45.072   4.595  11.731  0.00  0.00    +0.000 A 
ATOM      5  C   UNL     1      45.258   5.881  11.205  0.00  0.00    +0.000 A 
ATOM      6  C   UNL     1      46.149   6.780  11.806  0.00  0.00    +0.000 A 
ENDROOT
BRANCH   1   7
ATOM      7  C   UNL     1      47.782   7.399  13.649  0.00  0.00    +0.000 C 
BRANCH   7  10
ATOM      8  C   UNL     1      48.933   9.357  12.711  0.00  0.00    +0.000 C 
ATOM      9  O   UNL     1      48.301  10.144  13.413  0.00  0.00    +0.000 OA
ATOM     10  N   UNL     1      48.746   7.988  12.767  0.00  0.00    +0.000 N 
ATOM     11  H   UNL     1      49.307   7.408  12.144  0.00  0.00    +0.000 HD
BRANCH   8  16
ATOM     12  C   UNL     1      53.047   6.411   9.914  0.00  0.00    +0.000 C 
ATOM     13  C   UNL     1      52.337   7.674  10.204  0.00  0.00    +0.000 A 
ATOM     14  N   UNL     1      51.291   7.678  11.124  0.00  0.00    +0.000 NA
ATOM     15  C   UNL     1      50.902   8.933  11.133  0.00  0.00    +0.000 A 
ATOM     16  C   UNL     1      49.955   9.790  11.725  0.00  0.00    +0.000 C 
ATOM     17  C   UNL     1      50.217  11.006  11.178  0.00  0.00    +0.000 C 
ATOM     18  N   UNL     1      51.243  11.085  10.266  0.00  0.00    +0.000 NA
ATOM     19  N   UNL     1      51.637   9.696  10.290  0.00  0.00    +0.000 N 
ATOM     20  C   UNL     1      52.566   8.937   9.657  0.00  0.00    +0.000 A 
ATOM     21  C   UNL     1      53.531   9.428   8.659  0.00  0.00    +0.000 C 
ENDBRANCH   8  16
ENDBRANCH   7  10
ENDBRANCH   1   7
BRANCH   4  22
ATOM     22  C   UNL     1      44.106   3.622  11.088  0.00  0.00    +0.000 C 
BRANCH  22  23
ATOM     23  N   UNL     1      44.807   2.424  10.622  0.00  0.00    +0.000 NA
ATOM     24  H   UNL     1      44.555   1.647  11.235  0.00  0.00    +0.000 HD
BRANCH  23  25
ATOM     25  C   UNL     1      44.439   2.061   9.253  0.00  0.00    +0.000 C 
BRANCH  25  26
ATOM     26  C   UNL     1      45.660   1.940   8.356  0.00  0.00    +0.000 A 
ATOM     27  N   UNL     1      46.122   0.668   8.159  0.00  0.00    +0.000 NA
ATOM     28  C   UNL     1      47.208   0.506   7.372  0.00  0.00    +0.000 A 
ATOM     29  C   UNL     1      47.862   1.548   6.740  0.00  0.00    +0.000 A 
ATOM     30  C   UNL     1      47.395   2.841   6.954  0.00  0.00    +0.000 A 
ATOM     31  C   UNL     1      46.294   3.050   7.789  0.00  0.00    +0.000 A 
ATOM     32 CL   UNL     1      45.791   4.675   8.068  0.00  0.00    +0.000 Cl
ENDBRANCH  25  26
ENDBRANCH  23  25
ENDBRANCH  22  23
ENDBRANCH   4  22
TORSDOF 7
ENDMDL
MODEL 8
REMARK VINA RESULT:    -6.833      3.727      9.398
REMARK INTER + INTRA:         -10.725
REMARK INTER:                  -9.513
REMARK INTRA:                  -1.212
REMARK UNBOUND:                -1.095
REMARK  Name = 
REMARK  9 active torsions:
REMARK  status: ('A' for Active; 'I' for Inactive)
REMARK    1  A    between atoms: C_1  and  C_2
REMARK    2  A    between atoms: C_5  and  C_6
REMARK    3  A    between atoms: N_8  and  C_9
REMARK    4  A    between atoms: C_9  and  C_10
REMARK    5  A    between atoms: C_13  and  C_14
REMARK    6  A    between atoms: C_14  and  N_15
REMARK    7  A    between atoms: N_15  and  C_16
REMARK    8  A    between atoms: C_16  and  C_17
REMARK    9  A    between atoms: C_29  and  C_30
REMARK                            x       y       z     vdW  Elec       q    Type
REMARK                         _______ _______ _______ _____ _____    ______ ____
ROOT
ATOM      1  C   UNL     1      47.731   8.227  13.118  0.00  0.00    +0.000 A 
ATOM      2  C   UNL     1      47.688   8.876  14.359  0.00  0.00    +0.000 A 
ATOM      3  C   UNL     1      48.736   8.738  15.277  0.00  0.00    +0.000 A 
ATOM      4  C   UNL     1      49.855   7.947  14.977  0.00  0.00    +0.000 A 
ATOM      5  C   UNL     1      49.909   7.317  13.726  0.00  0.00    +0.000 A 
ATOM      6  C   UNL     1      48.864   7.463  12.804  0.00  0.00    +0.000 A 
ENDROOT
BRANCH   1   7
ATOM      7  C   UNL     1      46.574   8.346  12.156  0.00  0.00    +0.000 C 
BRANCH   7  10
ATOM      8  C   UNL     1      44.707   6.934  11.407  0.00  0.00    +0.000 C 
ATOM      9  O   UNL     1      43.915   7.873  11.405  0.00  0.00    +0.000 OA
ATOM     10  N   UNL     1      46.038   7.078  11.757  0.00  0.00    +0.000 N 
ATOM     11  H   UNL     1      46.624   6.244  11.739  0.00  0.00    +0.000 HD
BRANCH   8  16
ATOM     12  C   UNL     1      46.538   3.427   7.191  0.00  0.00    +0.000 C 
ATOM     13  C   UNL     1      45.678   3.695   8.363  0.00  0.00    +0.000 A 
ATOM     14  N   UNL     1      45.742   4.937   8.992  0.00  0.00    +0.000 NA
ATOM     15  C   UNL     1      44.869   4.825   9.968  0.00  0.00    +0.000 A 
ATOM     16  C   UNL     1      44.322   5.547  11.045  0.00  0.00    +0.000 C 
ATOM     17  C   UNL     1      43.433   4.686  11.606  0.00  0.00    +0.000 C 
ATOM     18  N   UNL     1      43.307   3.440  11.036  0.00  0.00    +0.000 NA
ATOM     19  N   UNL     1      44.275   3.608   9.977  0.00  0.00    +0.000 N 
ATOM     20  C   UNL     1      44.766   2.836   8.977  0.00  0.00    +0.000 A 
ATOM     21  C   UNL     1      44.360   1.449   8.695  0.00  0.00    +0.000 C 
ENDBRANCH   8  16
ENDBRANCH   7  10
ENDBRANCH   1   7
BRANCH   4  22
ATOM     22  C   UNL     1      50.979   7.789  15.979  0.00  0.00    +0.000 C 
BRANCH  22  23
ATOM     23  N   UNL     1      51.248   6.374  16.241  0.00  0.00    +0.000 NA
ATOM     24  H   UNL     1      52.255   6.222  16.173  0.00  0.00    +0.000 HD
BRANCH  23  25
ATOM     25  C   UNL     1      50.816   5.964  17.579  0.00  0.00    +0.000 C 
BRANCH  25  26
ATOM     26  C   UNL     1      49.571   5.096  17.525  0.00  0.00    +0.000 A 
ATOM     27  N   UNL     1      49.762   3.820  17.070  0.00  0.00    +0.000 NA
ATOM     28  C   UNL     1      48.684   3.007  17.000  0.00  0.00    +0.000 A 
ATOM     29  C   UNL     1      47.410   3.384  17.381  0.00  0.00    +0.000 A 
ATOM     30  C   UNL     1      47.220   4.687  17.831  0.00  0.00    +0.000 A 
ATOM     31  C   UNL     1      48.304   5.567  17.886  0.00  0.00    +0.000 A 
ATOM     32 CL   UNL     1      48.005   7.186  18.394  0.00  0.00    +0.000 Cl
ENDBRANCH  25  26
ENDBRANCH  23  25
ENDBRANCH  22  23
ENDBRANCH   4  22
TORSDOF 7
ENDMDL
MODEL 9
REMARK VINA RESULT:    -6.793      2.051      3.094
REMARK INTER + INTRA:         -10.669
REMARK INTER:                  -9.909
REMARK INTRA:                  -0.759
REMARK UNBOUND:                -1.095
REMARK  Name = 
REMARK  9 active torsions:
REMARK  status: ('A' for Active; 'I' for Inactive)
REMARK    1  A    between atoms: C_1  and  C_2
REMARK    2  A    between atoms: C_5  and  C_6
REMARK    3  A    between atoms: N_8  and  C_9
REMARK    4  A    between atoms: C_9  and  C_10
REMARK    5  A    between atoms: C_13  and  C_14
REMARK    6  A    between atoms: C_14  and  N_15
REMARK    7  A    between atoms: N_15  and  C_16
REMARK    8  A    between atoms: C_16  and  C_17
REMARK    9  A    between atoms: C_29  and  C_30
REMARK                            x       y       z     vdW  Elec       q    Type
REMARK                         _______ _______ _______ _____ _____    ______ ____
ROOT
ATOM      1  C   UNL     1      46.868   8.190  13.242  0.00  0.00    +0.000 A 
ATOM      2  C   UNL     1      47.402   6.906  13.069  0.00  0.00    +0.000 A 
ATOM      3  C   UNL     1      46.779   5.978  12.227  0.00  0.00    +0.000 A 
ATOM      4  C   UNL     1      45.604   6.309  11.536  0.00  0.00    +0.000 A 
ATOM      5  C   UNL     1      45.083   7.602  11.691  0.00  0.00    +0.000 A 
ATOM      6  C   UNL     1      45.712   8.533  12.528  0.00  0.00    +0.000 A 
ENDROOT
BRANCH   1   7
ATOM      7  C   UNL     1      47.523   9.166  14.190  0.00  0.00    +0.000 C 
BRANCH   7  10
ATOM      8  C   UNL     1      48.967   8.504  16.065  0.00  0.00    +0.000 C 
ATOM      9  O   UNL     1      49.993   8.838  15.475  0.00  0.00    +0.000 OA
ATOM     10  N   UNL     1      47.708   8.637  15.509  0.00  0.00    +0.000 N 
ATOM     11  H   UNL     1      46.911   8.328  16.065  0.00  0.00    +0.000 HD
BRANCH   8  16
ATOM     12  C   UNL     1      48.002   3.112  17.915  0.00  0.00    +0.000 C 
ATOM     13  C   UNL     1      48.328   4.529  18.183  0.00  0.00    +0.000 A 
ATOM     14  N   UNL     1      48.402   5.429  17.122  0.00  0.00    +0.000 NA
ATOM     15  C   UNL     1      48.706   6.564  17.712  0.00  0.00    +0.000 A 
ATOM     16  C   UNL     1      48.971   7.917  17.427  0.00  0.00    +0.000 C 
ATOM     17  C   UNL     1      49.215   8.470  18.644  0.00  0.00    +0.000 C 
ATOM     18  N   UNL     1      49.152   7.646  19.743  0.00  0.00    +0.000 NA
ATOM     19  N   UNL     1      48.817   6.422  19.053  0.00  0.00    +0.000 N 
ATOM     20  C   UNL     1      48.598   5.133  19.411  0.00  0.00    +0.000 A 
ATOM     21  C   UNL     1      48.651   4.610  20.787  0.00  0.00    +0.000 C 
ENDBRANCH   8  16
ENDBRANCH   7  10
ENDBRANCH   1   7
BRANCH   4  22
ATOM     22  C   UNL     1      44.925   5.297  10.638  0.00  0.00    +0.000 C 
BRANCH  22  23
ATOM     23  N   UNL     1      45.476   5.351   9.282  0.00  0.00    +0.000 NA
ATOM     24  H   UNL     1      46.472   5.134   9.333  0.00  0.00    +0.000 HD
BRANCH  23  25
ATOM     25  C   UNL     1      44.844   4.381   8.386  0.00  0.00    +0.000 C 
BRANCH  25  26
ATOM     26  C   UNL     1      45.832   3.327   7.915  0.00  0.00    +0.000 A 
ATOM     27  N   UNL     1      46.837   3.782   7.106  0.00  0.00    +0.000 NA
ATOM     28  C   UNL     1      47.740   2.882   6.656  0.00  0.00    +0.000 A 
ATOM     29  C   UNL     1      47.719   1.540   6.985  0.00  0.00    +0.000 A 
ATOM     30  C   UNL     1      46.687   1.082   7.799  0.00  0.00    +0.000 A 
ATOM     31  C   UNL     1      45.715   1.976   8.256  0.00  0.00    +0.000 A 
ATOM     32 CL   UNL     1      44.426   1.347   9.212  0.00  0.00    +0.000 Cl
ENDBRANCH  25  26
ENDBRANCH  23  25
ENDBRANCH  22  23
ENDBRANCH   4  22
TORSDOF 7
ENDMDL
