MODEL 1
REMARK VINA RESULT:    -8.323      0.000      0.000
REMARK INTER + INTRA:         -14.569
REMARK INTER:                 -13.432
REMARK INTRA:                  -1.137
REMARK UNBOUND:                -1.137
REMARK  Name = 
REMARK  11 active torsions:
REMARK  status: ('A' for Active; 'I' for Inactive)
REMARK    1  A    between atoms: C_2  and  O_3
REMARK    2  A    between atoms: C_2  and  C_23
REMARK    3  A    between atoms: O_3  and  C_4
REMARK    4  A    between atoms: C_4  and  C_5
REMARK    5  A    between atoms: C_8  and  C_9
REMARK    6  A    between atoms: C_9  and  C_10
REMARK    7  A    between atoms: C_10  and  N_11
REMARK    8  A    between atoms: N_11  and  CA_12
REMARK    9  A    between atoms: CA_12  and  C_13
REMARK   10  A    between atoms: CA_12  and  C_15
REMARK   11  A    between atoms: C_13  and  O_14
REMARK                            x       y       z     vdW  Elec       q    Type
REMARK                         _______ _______ _______ _____ _____    ______ ____
ROOT
ATOM      1  C   UNL     1      47.835   6.284  14.348  0.00  0.00    +0.000 A 
ATOM      2  C   UNL     1      48.067   7.258  13.375  0.00  0.00    +0.000 A 
ATOM      3  C   UNL     1      47.433   7.173  12.142  0.00  0.00    +0.000 A 
ATOM      4  C   UNL     1      46.556   6.119  11.913  0.00  0.00    +0.000 A 
ATOM      5  N   UNL     1      46.317   5.153  12.837  0.00  0.00    +0.000 NA
ATOM      6  C   UNL     1      46.953   5.262  14.027  0.00  0.00    +0.000 A 
ENDROOT
BRANCH   1   7
ATOM      7  C   UNL     1      48.522   6.336  15.682  0.00  0.00    +0.000 C 
BRANCH   7   8
ATOM      8  O   UNL     1      49.024   5.042  16.039  0.00  0.00    +0.000 OA
BRANCH   8  10
ATOM      9  O   UNL     1      47.948   4.873  18.045  0.00  0.00    +0.000 OA
ATOM     10  C   UNL     1      48.954   4.732  17.359  0.00  0.00    +0.000 C 
BRANCH  10  11
ATOM     11  C   UNL     1      50.229   4.286  17.914  0.00  0.00    +0.000 A 
ATOM     12  C   UNL     1      50.923   5.086  18.808  0.00  0.00    +0.000 A 
ATOM     13  S   UNL     1      52.405   4.407  19.312  0.00  0.00    +0.000 S 
ATOM     14  C   UNL     1      52.129   2.991  18.407  0.00  0.00    +0.000 A 
ATOM     15  N   UNL     1      53.013   1.959  18.444  0.00  0.00    +0.000 NA
ATOM     16  C   UNL     1      52.659   0.927  17.752  0.00  0.00    +0.000 A 
ATOM     17  N   UNL     1      51.505   0.843  17.016  0.00  0.00    +0.000 N 
ATOM     18  C   UNL     1      50.586   1.865  16.934  0.00  0.00    +0.000 A 
ATOM     19  O   UNL     1      49.566   1.724  16.271  0.00  0.00    +0.000 OA
ATOM     20  C   UNL     1      50.935   3.046  17.704  0.00  0.00    +0.000 A 
ATOM     21  H   UNL     1      51.275   0.002  16.507  0.00  0.00    +0.000 HD
ENDBRANCH  10  11
ENDBRANCH   8  10
ENDBRANCH   7   8
ENDBRANCH   1   7
BRANCH   4  22
ATOM     22  C   UNL     1      45.840   6.008  10.593  0.00  0.00    +0.000 C 
BRANCH  22  23
ATOM     23  C   UNL     1      44.432   5.411  10.723  0.00  0.00    +0.000 C 
BRANCH  23  24
ATOM     24  N   UNL     1      43.863   4.741   9.545  0.00  0.00    +0.000 NA
ATOM     25  H   UNL     1      44.330   5.098   8.705  0.00  0.00    +0.000 HD
BRANCH  24  26
ATOM     26  CA  UNL     1      44.058   3.265   9.544  0.00  0.00    +0.000 C 
BRANCH  26  27
ATOM     27  C   UNL     1      45.225   2.794   8.701  0.00  0.00    +0.000 A 
ATOM     28  C   UNL     1      45.829   3.604   7.745  0.00  0.00    +0.000 A 
ATOM     29  C   UNL     1      46.779   3.047   6.899  0.00  0.00    +0.000 A 
ATOM     30  C   UNL     1      47.099   1.716   7.069  0.00  0.00    +0.000 A 
ATOM     31  N   UNL     1      46.540   0.955   8.028  0.00  0.00    +0.000 NA
ATOM     32  N   UNL     1      45.593   1.498   8.847  0.00  0.00    +0.000 NA
ENDBRANCH  26  27
BRANCH  26  33
ATOM     33  C   UNL     1      44.160   2.761  11.002  0.00  0.00    +0.000 C 
BRANCH  33  34
ATOM     34  O   UNL     1      42.864   2.423  11.521  0.00  0.00    +0.000 OA
ATOM     35  H   UNL     1      42.887   1.484  11.785  0.00  0.00    +0.000 HD
ENDBRANCH  33  34
ENDBRANCH  26  33
ENDBRANCH  24  26
ENDBRANCH  23  24
ENDBRANCH  22  23
ENDBRANCH   4  22
TORSDOF 11
ENDMDL
MODEL 2
REMARK VINA RESULT:    -7.893      2.312      2.804
REMARK INTER + INTRA:         -13.875
REMARK INTER:                 -12.396
REMARK INTRA:                  -1.479
REMARK UNBOUND:                -1.137
REMARK  Name = 
REMARK  11 active torsions:
REMARK  status: ('A' for Active; 'I' for Inactive)
REMARK    1  A    between atoms: C_2  and  O_3
REMARK    2  A    between atoms: C_2  and  C_23
REMARK    3  A    between atoms: O_3  and  C_4
REMARK    4  A    between atoms: C_4  and  C_5
REMARK    5  A    between atoms: C_8  and  C_9
REMARK    6  A    between atoms: C_9  and  C_10
REMARK    7  A    between atoms: C_10  and  N_11
REMARK    8  A    between atoms: N_11  and  CA_12
REMARK    9  A    between atoms: CA_12  and  C_13
REMARK   10  A    between atoms: CA_12  and  C_15
REMARK   11  A    between atoms: C_13  and  O_14
REMARK                            x       y       z     vdW  Elec       q    Type
REMARK                         _______ _______ _______ _____ _____    ______ ____
ROOT
ATOM      1  C   UNL     1      47.721   7.537  12.848  0.00  0.00    +0.000 A 
ATOM      2  C   UNL     1      46.754   8.479  13.203  0.00  0.00    +0.000 A 
ATOM      3  C   UNL     1      45.446   8.336  12.757  0.00  0.00    +0.000 A 
ATOM      4  C   UNL     1      45.125   7.233  11.974  0.00  0.00    +0.000 A 
ATOM      5  N   UNL     1      46.045   6.306  11.605  0.00  0.00    +0.000 NA
ATOM      6  C   UNL     1      47.311   6.475  12.053  0.00  0.00    +0.000 A 
ENDROOT
BRANCH   1   7
ATOM      7  C   UNL     1      49.147   7.676  13.295  0.00  0.00    +0.000 C 
BRANCH   7   8
ATOM      8  O   UNL     1      49.450   6.718  14.317  0.00  0.00    +0.000 OA
BRANCH   8  10
ATOM      9  O   UNL     1      49.443   8.390  15.870  0.00  0.00    +0.000 OA
ATOM     10  C   UNL     1      49.450   7.198  15.587  0.00  0.00    +0.000 C 
BRANCH  10  11
ATOM     11  C   UNL     1      49.545   6.149  16.598  0.00  0.00    +0.000 A 
ATOM     12  C   UNL     1      50.526   6.205  17.577  0.00  0.00    +0.000 A 
ATOM     13  S   UNL     1      50.494   4.871  18.640  0.00  0.00    +0.000 S 
ATOM     14  C   UNL     1      49.125   4.216  17.869  0.00  0.00    +0.000 A 
ATOM     15  N   UNL     1      48.545   3.078  18.332  0.00  0.00    +0.000 NA
ATOM     16  C   UNL     1      47.484   2.717  17.687  0.00  0.00    +0.000 A 
ATOM     17  N   UNL     1      46.962   3.389  16.612  0.00  0.00    +0.000 N 
ATOM     18  C   UNL     1      47.521   4.537  16.096  0.00  0.00    +0.000 A 
ATOM     19  O   UNL     1      47.000   5.101  15.142  0.00  0.00    +0.000 OA
ATOM     20  C   UNL     1      48.712   4.988  16.795  0.00  0.00    +0.000 A 
ATOM     21  H   UNL     1      46.120   3.066  16.158  0.00  0.00    +0.000 HD
ENDBRANCH  10  11
ENDBRANCH   8  10
ENDBRANCH   7   8
ENDBRANCH   1   7
BRANCH   4  22
ATOM     22  C   UNL     1      43.713   7.041  11.488  0.00  0.00    +0.000 C 
BRANCH  22  23
ATOM     23  C   UNL     1      43.353   5.566  11.260  0.00  0.00    +0.000 C 
BRANCH  23  24
ATOM     24  N   UNL     1      43.552   5.016   9.912  0.00  0.00    +0.000 NA
ATOM     25  H   UNL     1      44.292   5.549   9.443  0.00  0.00    +0.000 HD
BRANCH  24  26
ATOM     26  CA  UNL     1      43.987   3.592   9.904  0.00  0.00    +0.000 C 
BRANCH  26  27
ATOM     27  C   UNL     1      45.034   3.269   8.859  0.00  0.00    +0.000 A 
ATOM     28  C   UNL     1      45.547   1.987   8.689  0.00  0.00    +0.000 A 
ATOM     29  C   UNL     1      46.620   1.803   7.828  0.00  0.00    +0.000 A 
ATOM     30  C   UNL     1      47.110   2.905   7.157  0.00  0.00    +0.000 A 
ATOM     31  N   UNL     1      46.576   4.133   7.296  0.00  0.00    +0.000 NA
ATOM     32  N   UNL     1      45.532   4.315   8.156  0.00  0.00    +0.000 NA
ENDBRANCH  26  27
BRANCH  26  33
ATOM     33  C   UNL     1      44.446   3.189  11.324  0.00  0.00    +0.000 C 
BRANCH  33  34
ATOM     34  O   UNL     1      43.527   2.258  11.917  0.00  0.00    +0.000 OA
ATOM     35  H   UNL     1      42.674   2.717  12.033  0.00  0.00    +0.000 HD
ENDBRANCH  33  34
ENDBRANCH  26  33
ENDBRANCH  24  26
ENDBRANCH  23  24
ENDBRANCH  22  23
ENDBRANCH   4  22
TORSDOF 11
ENDMDL
MODEL 3
REMARK VINA RESULT:    -7.882      2.234      2.951
REMARK INTER + INTRA:         -13.856
REMARK INTER:                 -12.023
REMARK INTRA:                  -1.834
REMARK UNBOUND:                -1.137
REMARK  Name = 
REMARK  11 active torsions:
REMARK  status: ('A' for Active; 'I' for Inactive)
REMARK    1  A    between atoms: C_2  and  O_3
REMARK    2  A    between atoms: C_2  and  C_23
REMARK    3  A    between atoms: O_3  and  C_4
REMARK    4  A    between atoms: C_4  and  C_5
REMARK    5  A    between atoms: C_8  and  C_9
REMARK    6  A    between atoms: C_9  and  C_10
REMARK    7  A    between atoms: C_10  and  N_11
REMARK    8  A    between atoms: N_11  and  CA_12
REMARK    9  A    between atoms: CA_12  and  C_13
REMARK   10  A    between atoms: CA_12  and  C_15
REMARK   11  A    between atoms: C_13  and  O_14
REMARK                            x       y       z     vdW  Elec       q    Type
REMARK                         _______ _______ _______ _____ _____    ______ ____
ROOT
ATOM      1  C   UNL     1      47.355   6.761  13.327  0.00  0.00    +0.000 A 
ATOM      2  C   UNL     1      46.473   7.738  12.861  0.00  0.00    +0.000 A 
ATOM      3  C   UNL     1      45.148   7.412  12.598  0.00  0.00    +0.000 A 
ATOM      4  C   UNL     1      44.724   6.108  12.829  0.00  0.00    +0.000 A 
ATOM      5  N   UNL     1      45.561   5.134  13.272  0.00  0.00    +0.000 NA
ATOM      6  C   UNL     1      46.846   5.483  13.515  0.00  0.00    +0.000 A 
ENDROOT
BRANCH   1   7
ATOM      7  C   UNL     1      48.797   7.077  13.597  0.00  0.00    +0.000 C 
BRANCH   7   8
ATOM      8  O   UNL     1      49.270   6.342  14.732  0.00  0.00    +0.000 OA
BRANCH   8  10
ATOM      9  O   UNL     1      50.991   7.640  15.481  0.00  0.00    +0.000 OA
ATOM     10  C   UNL     1      49.922   7.073  15.672  0.00  0.00    +0.000 C 
BRANCH  10  11
ATOM     11  C   UNL     1      49.265   7.051  16.976  0.00  0.00    +0.000 A 
ATOM     12  C   UNL     1      48.518   8.138  17.403  0.00  0.00    +0.000 A 
ATOM     13  S   UNL     1      47.863   7.935  18.966  0.00  0.00    +0.000 S 
ATOM     14  C   UNL     1      48.499   6.360  19.089  0.00  0.00    +0.000 A 
ATOM     15  N   UNL     1      48.251   5.595  20.185  0.00  0.00    +0.000 NA
ATOM     16  C   UNL     1      48.750   4.404  20.129  0.00  0.00    +0.000 A 
ATOM     17  N   UNL     1      49.485   3.917  19.078  0.00  0.00    +0.000 N 
ATOM     18  C   UNL     1      49.775   4.657  17.954  0.00  0.00    +0.000 A 
ATOM     19  O   UNL     1      50.424   4.161  17.041  0.00  0.00    +0.000 OA
ATOM     20  C   UNL     1      49.227   6.002  17.965  0.00  0.00    +0.000 A 
ATOM     21  H   UNL     1      49.836   2.970  19.086  0.00  0.00    +0.000 HD
ENDBRANCH  10  11
ENDBRANCH   8  10
ENDBRANCH   7   8
ENDBRANCH   1   7
BRANCH   4  22
ATOM     22  C   UNL     1      43.291   5.726  12.570  0.00  0.00    +0.000 C 
BRANCH  22  23
ATOM     23  C   UNL     1      43.004   5.446  11.088  0.00  0.00    +0.000 C 
BRANCH  23  24
ATOM     24  N   UNL     1      44.118   4.968  10.256  0.00  0.00    +0.000 NA
ATOM     25  H   UNL     1      44.988   5.048  10.791  0.00  0.00    +0.000 HD
BRANCH  24  26
ATOM     26  CA  UNL     1      43.995   3.540   9.855  0.00  0.00    +0.000 C 
BRANCH  26  27
ATOM     27  C   UNL     1      45.121   3.045   8.970  0.00  0.00    +0.000 A 
ATOM     28  C   UNL     1      45.763   3.868   8.050  0.00  0.00    +0.000 A 
ATOM     29  C   UNL     1      46.667   3.302   7.162  0.00  0.00    +0.000 A 
ATOM     30  C   UNL     1      46.906   1.946   7.255  0.00  0.00    +0.000 A 
ATOM     31  N   UNL     1      46.312   1.168   8.179  0.00  0.00    +0.000 NA
ATOM     32  N   UNL     1      45.409   1.723   9.040  0.00  0.00    +0.000 NA
ENDBRANCH  26  27
BRANCH  26  33
ATOM     33  C   UNL     1      43.829   2.666  11.119  0.00  0.00    +0.000 C 
BRANCH  33  34
ATOM     34  O   UNL     1      45.047   2.623  11.879  0.00  0.00    +0.000 OA
ATOM     35  H   UNL     1      45.661   2.019  11.421  0.00  0.00    +0.000 HD
ENDBRANCH  33  34
ENDBRANCH  26  33
ENDBRANCH  24  26
ENDBRANCH  23  24
ENDBRANCH  22  23
ENDBRANCH   4  22
TORSDOF 11
ENDMDL
MODEL 4
REMARK VINA RESULT:    -7.194      1.816      2.200
REMARK INTER + INTRA:         -12.748
REMARK INTER:                 -11.424
REMARK INTRA:                  -1.324
REMARK UNBOUND:                -1.137
REMARK  Name = 
REMARK  11 active torsions:
REMARK  status: ('A' for Active; 'I' for Inactive)
REMARK    1  A    between atoms: C_2  and  O_3
REMARK    2  A    between atoms: C_2  and  C_23
REMARK    3  A    between atoms: O_3  and  C_4
REMARK    4  A    between atoms: C_4  and  C_5
REMARK    5  A    between atoms: C_8  and  C_9
REMARK    6  A    between atoms: C_9  and  C_10
REMARK    7  A    between atoms: C_10  and  N_11
REMARK    8  A    between atoms: N_11  and  CA_12
REMARK    9  A    between atoms: CA_12  and  C_13
REMARK   10  A    between atoms: CA_12  and  C_15
REMARK   11  A    between atoms: C_13  and  O_14
REMARK                            x       y       z     vdW  Elec       q    Type
REMARK                         _______ _______ _______ _____ _____    ______ ____
ROOT
ATOM      1  C   UNL     1      47.990   6.722  14.263  0.00  0.00    +0.000 A 
ATOM      2  C   UNL     1      47.577   7.991  13.853  0.00  0.00    +0.000 A 
ATOM      3  C   UNL     1      46.559   8.121  12.916  0.00  0.00    +0.000 A 
ATOM      4  C   UNL     1      45.956   6.970  12.422  0.00  0.00    +0.000 A 
ATOM      5  N   UNL     1      46.343   5.723  12.795  0.00  0.00    +0.000 NA
ATOM      6  C   UNL     1      47.339   5.630  13.706  0.00  0.00    +0.000 A 
ENDROOT
BRANCH   1   7
ATOM      7  C   UNL     1      49.103   6.548  15.256  0.00  0.00    +0.000 C 
BRANCH   7   8
ATOM      8  O   UNL     1      48.899   7.393  16.395  0.00  0.00    +0.000 OA
BRANCH   8  10
ATOM      9  O   UNL     1      48.138   7.339  18.546  0.00  0.00    +0.000 OA
ATOM     10  C   UNL     1      48.501   6.761  17.528  0.00  0.00    +0.000 C 
BRANCH  10  11
ATOM     11  C   UNL     1      48.625   5.308  17.450  0.00  0.00    +0.000 A 
ATOM     12  C   UNL     1      47.507   4.520  17.223  0.00  0.00    +0.000 A 
ATOM     13  S   UNL     1      47.852   2.849  17.203  0.00  0.00    +0.000 S 
ATOM     14  C   UNL     1      49.516   3.132  17.426  0.00  0.00    +0.000 A 
ATOM     15  N   UNL     1      50.400   2.100  17.446  0.00  0.00    +0.000 NA
ATOM     16  C   UNL     1      51.636   2.457  17.572  0.00  0.00    +0.000 A 
ATOM     17  N   UNL     1      52.062   3.754  17.692  0.00  0.00    +0.000 N 
ATOM     18  C   UNL     1      51.206   4.833  17.692  0.00  0.00    +0.000 A 
ATOM     19  O   UNL     1      51.649   5.971  17.788  0.00  0.00    +0.000 OA
ATOM     20  C   UNL     1      49.804   4.483  17.543  0.00  0.00    +0.000 A 
ATOM     21  H   UNL     1      53.045   3.972  17.771  0.00  0.00    +0.000 HD
ENDBRANCH  10  11
ENDBRANCH   8  10
ENDBRANCH   7   8
ENDBRANCH   1   7
BRANCH   4  22
ATOM     22  C   UNL     1      44.839   7.078  11.418  0.00  0.00    +0.000 C 
BRANCH  22  23
ATOM     23  C   UNL     1      43.799   5.957  11.556  0.00  0.00    +0.000 C 
BRANCH  23  24
ATOM     24  N   UNL     1      43.385   5.256  10.332  0.00  0.00    +0.000 NA
ATOM     25  H   UNL     1      43.899   5.650   9.536  0.00  0.00    +0.000 HD
BRANCH  24  26
ATOM     26  CA  UNL     1      43.681   3.798  10.348  0.00  0.00    +0.000 C 
BRANCH  26  27
ATOM     27  C   UNL     1      44.788   3.378   9.401  0.00  0.00    +0.000 A 
ATOM     28  C   UNL     1      45.455   4.286   8.586  0.00  0.00    +0.000 A 
ATOM     29  C   UNL     1      46.338   3.804   7.629  0.00  0.00    +0.000 A 
ATOM     30  C   UNL     1      46.531   2.440   7.553  0.00  0.00    +0.000 A 
ATOM     31  N   UNL     1      45.913   1.575   8.378  0.00  0.00    +0.000 NA
ATOM     32  N   UNL     1      45.031   2.049   9.306  0.00  0.00    +0.000 NA
ENDBRANCH  26  27
BRANCH  26  33
ATOM     33  C   UNL     1      43.963   3.348  11.799  0.00  0.00    +0.000 C 
BRANCH  33  34
ATOM     34  O   UNL     1      45.327   2.925  11.951  0.00  0.00    +0.000 OA
ATOM     35  H   UNL     1      45.385   2.400  12.772  0.00  0.00    +0.000 HD
ENDBRANCH  33  34
ENDBRANCH  26  33
ENDBRANCH  24  26
ENDBRANCH  23  24
ENDBRANCH  22  23
ENDBRANCH   4  22
TORSDOF 11
ENDMDL
MODEL 5
REMARK VINA RESULT:    -7.164      5.137      7.970
REMARK INTER + INTRA:         -12.698
REMARK INTER:                 -10.762
REMARK INTRA:                  -1.937
REMARK UNBOUND:                -1.137
REMARK  Name = 
REMARK  11 active torsions:
REMARK  status: ('A' for Active; 'I' for Inactive)
REMARK    1  A    between atoms: C_2  and  O_3
REMARK    2  A    between atoms: C_2  and  C_23
REMARK    3  A    between atoms: O_3  and  C_4
REMARK    4  A    between atoms: C_4  and  C_5
REMARK    5  A    between atoms: C_8  and  C_9
REMARK    6  A    between atoms: C_9  and  C_10
REMARK    7  A    between atoms: C_10  and  N_11
REMARK    8  A    between atoms: N_11  and  CA_12
REMARK    9  A    between atoms: CA_12  and  C_13
REMARK   10  A    between atoms: CA_12  and  C_15
REMARK   11  A    between atoms: C_13  and  O_14
REMARK                            x       y       z     vdW  Elec       q    Type
REMARK                         _______ _______ _______ _____ _____    ______ ____
ROOT
ATOM      1  C   UNL     1      48.957   8.247  12.619  0.00  0.00    +0.000 A 
ATOM      2  C   UNL     1      48.045   7.677  11.730  0.00  0.00    +0.000 A 
ATOM      3  C   UNL     1      47.372   6.512  12.076  0.00  0.00    +0.000 A 
ATOM      4  C   UNL     1      47.612   5.948  13.324  0.00  0.00    +0.000 A 
ATOM      5  N   UNL     1      48.501   6.474  14.205  0.00  0.00    +0.000 NA
ATOM      6  C   UNL     1      49.143   7.608  13.838  0.00  0.00    +0.000 A 
ENDROOT
BRANCH   1   7
ATOM      7  C   UNL     1      49.717   9.493  12.265  0.00  0.00    +0.000 C 
BRANCH   7   8
ATOM      8  O   UNL     1      48.973  10.289  11.335  0.00  0.00    +0.000 OA
BRANCH   8  10
ATOM      9  O   UNL     1      48.192  11.612  13.023  0.00  0.00    +0.000 OA
ATOM     10  C   UNL     1      48.093  11.164  11.887  0.00  0.00    +0.000 C 
BRANCH  10  11
ATOM     11  C   UNL     1      46.957  11.461  11.019  0.00  0.00    +0.000 A 
ATOM     12  C   UNL     1      47.107  12.310   9.933  0.00  0.00    +0.000 A 
ATOM     13  S   UNL     1      45.658  12.561   9.067  0.00  0.00    +0.000 S 
ATOM     14  C   UNL     1      44.804  11.487  10.075  0.00  0.00    +0.000 A 
ATOM     15  N   UNL     1      43.495  11.205   9.838  0.00  0.00    +0.000 NA
ATOM     16  C   UNL     1      42.981  10.337  10.646  0.00  0.00    +0.000 A 
ATOM     17  N   UNL     1      43.658   9.737  11.677  0.00  0.00    +0.000 N 
ATOM     18  C   UNL     1      44.978  10.000  11.966  0.00  0.00    +0.000 A 
ATOM     19  O   UNL     1      45.532   9.421  12.893  0.00  0.00    +0.000 OA
ATOM     20  C   UNL     1      45.604  10.964  11.078  0.00  0.00    +0.000 A 
ATOM     21  H   UNL     1      43.205   9.054  12.266  0.00  0.00    +0.000 HD
ENDBRANCH  10  11
ENDBRANCH   8  10
ENDBRANCH   7   8
ENDBRANCH   1   7
BRANCH   4  22
ATOM     22  C   UNL     1      46.887   4.694  13.735  0.00  0.00    +0.000 C 
BRANCH  22  23
ATOM     23  C   UNL     1      45.360   4.831  13.654  0.00  0.00    +0.000 C 
BRANCH  23  24
ATOM     24  N   UNL     1      44.674   4.160  12.541  0.00  0.00    +0.000 NA
ATOM     25  H   UNL     1      43.775   3.797  12.877  0.00  0.00    +0.000 HD
BRANCH  24  26
ATOM     26  CA  UNL     1      44.365   5.061  11.397  0.00  0.00    +0.000 C 
BRANCH  26  27
ATOM     27  C   UNL     1      44.706   4.480  10.040  0.00  0.00    +0.000 A 
ATOM     28  C   UNL     1      44.314   3.202   9.657  0.00  0.00    +0.000 A 
ATOM     29  C   UNL     1      44.804   2.679   8.468  0.00  0.00    +0.000 A 
ATOM     30  C   UNL     1      45.639   3.471   7.707  0.00  0.00    +0.000 A 
ATOM     31  N   UNL     1      45.975   4.724   8.066  0.00  0.00    +0.000 NA
ATOM     32  N   UNL     1      45.507   5.230   9.244  0.00  0.00    +0.000 NA
ENDBRANCH  26  27
BRANCH  26  33
ATOM     33  C   UNL     1      42.888   5.506  11.479  0.00  0.00    +0.000 C 
BRANCH  33  34
ATOM     34  O   UNL     1      42.741   6.880  11.086  0.00  0.00    +0.000 OA
ATOM     35  H   UNL     1      43.399   7.060  10.388  0.00  0.00    +0.000 HD
ENDBRANCH  33  34
ENDBRANCH  26  33
ENDBRANCH  24  26
ENDBRANCH  23  24
ENDBRANCH  22  23
ENDBRANCH   4  22
TORSDOF 11
ENDMDL
MODEL 6
REMARK VINA RESULT:    -7.133      3.216      8.704
REMARK INTER + INTRA:         -12.648
REMARK INTER:                 -11.280
REMARK INTRA:                  -1.368
REMARK UNBOUND:                -1.137
REMARK  Name = 
REMARK  11 active torsions:
REMARK  status: ('A' for Active; 'I' for Inactive)
REMARK    1  A    between atoms: C_2  and  O_3
REMARK    2  A    between atoms: C_2  and  C_23
REMARK    3  A    between atoms: O_3  and  C_4
REMARK    4  A    between atoms: C_4  and  C_5
REMARK    5  A    between atoms: C_8  and  C_9
REMARK    6  A    between atoms: C_9  and  C_10
REMARK    7  A    between atoms: C_10  and  N_11
REMARK    8  A    between atoms: N_11  and  CA_12
REMARK    9  A    between atoms: CA_12  and  C_13
REMARK   10  A    between atoms: CA_12  and  C_15
REMARK   11  A    between atoms: C_13  and  O_14
REMARK                            x       y       z     vdW  Elec       q    Type
REMARK                         _______ _______ _______ _____ _____    ______ ____
ROOT
ATOM      1  C   UNL     1      47.952   7.977  13.354  0.00  0.00    +0.000 A 
ATOM      2  C   UNL     1      47.841   8.893  14.401  0.00  0.00    +0.000 A 
ATOM      3  C   UNL     1      48.415   8.613  15.635  0.00  0.00    +0.000 A 
ATOM      4  C   UNL     1      49.112   7.420  15.791  0.00  0.00    +0.000 A 
ATOM      5  N   UNL     1      49.229   6.506  14.794  0.00  0.00    +0.000 NA
ATOM      6  C   UNL     1      48.656   6.807  13.605  0.00  0.00    +0.000 A 
ENDROOT
BRANCH   1   7
ATOM      7  C   UNL     1      47.323   8.241  12.017  0.00  0.00    +0.000 C 
BRANCH   7   8
ATOM      8  O   UNL     1      46.732   7.045  11.494  0.00  0.00    +0.000 OA
BRANCH   8  10
ATOM      9  O   UNL     1      44.709   8.086  11.316  0.00  0.00    +0.000 OA
ATOM     10  C   UNL     1      45.379   7.063  11.382  0.00  0.00    +0.000 C 
BRANCH  10  11
ATOM     11  C   UNL     1      44.780   5.732  11.432  0.00  0.00    +0.000 A 
ATOM     12  C   UNL     1      43.985   5.360  12.506  0.00  0.00    +0.000 A 
ATOM     13  S   UNL     1      43.411   3.757  12.398  0.00  0.00    +0.000 S 
ATOM     14  C   UNL     1      44.149   3.536  10.879  0.00  0.00    +0.000 A 
ATOM     15  N   UNL     1      43.996   2.370  10.197  0.00  0.00    +0.000 NA
ATOM     16  C   UNL     1      44.566   2.352   9.037  0.00  0.00    +0.000 A 
ATOM     17  N   UNL     1      45.285   3.392   8.507  0.00  0.00    +0.000 N 
ATOM     18  C   UNL     1      45.480   4.586   9.164  0.00  0.00    +0.000 A 
ATOM     19  O   UNL     1      46.120   5.485   8.632  0.00  0.00    +0.000 OA
ATOM     20  C   UNL     1      44.850   4.659  10.471  0.00  0.00    +0.000 A 
ATOM     21  H   UNL     1      45.694   3.324   7.586  0.00  0.00    +0.000 HD
ENDBRANCH  10  11
ENDBRANCH   8  10
ENDBRANCH   7   8
ENDBRANCH   1   7
BRANCH   4  22
ATOM     22  C   UNL     1      49.760   7.094  17.110  0.00  0.00    +0.000 C 
BRANCH  22  23
ATOM     23  C   UNL     1      48.742   6.771  18.214  0.00  0.00    +0.000 C 
BRANCH  23  24
ATOM     24  N   UNL     1      48.554   5.359  18.576  0.00  0.00    +0.000 NA
ATOM     25  H   UNL     1      47.615   5.242  18.971  0.00  0.00    +0.000 HD
BRANCH  24  26
ATOM     26  CA  UNL     1      48.646   4.427  17.419  0.00  0.00    +0.000 C 
BRANCH  26  27
ATOM     27  C   UNL     1      49.782   3.429  17.516  0.00  0.00    +0.000 A 
ATOM     28  C   UNL     1      50.988   3.730  18.140  0.00  0.00    +0.000 A 
ATOM     29  C   UNL     1      52.037   2.826  18.042  0.00  0.00    +0.000 A 
ATOM     30  C   UNL     1      51.820   1.652  17.349  0.00  0.00    +0.000 A 
ATOM     31  N   UNL     1      50.633   1.352  16.788  0.00  0.00    +0.000 NA
ATOM     32  N   UNL     1      49.609   2.250  16.870  0.00  0.00    +0.000 NA
ENDBRANCH  26  27
BRANCH  26  33
ATOM     33  C   UNL     1      47.283   3.730  17.212  0.00  0.00    +0.000 C 
BRANCH  33  34
ATOM     34  O   UNL     1      46.982   3.592  15.815  0.00  0.00    +0.000 OA
ATOM     35  H   UNL     1      46.958   4.487  15.427  0.00  0.00    +0.000 HD
ENDBRANCH  33  34
ENDBRANCH  26  33
ENDBRANCH  24  26
ENDBRANCH  23  24
ENDBRANCH  22  23
ENDBRANCH   4  22
TORSDOF 11
ENDMDL
MODEL 7
REMARK VINA RESULT:    -6.989      2.680      3.820
REMARK INTER + INTRA:         -12.416
REMARK INTER:                  -9.997
REMARK INTRA:                  -2.419
REMARK UNBOUND:                -1.137
REMARK  Name = 
REMARK  11 active torsions:
REMARK  status: ('A' for Active; 'I' for Inactive)
REMARK    1  A    between atoms: C_2  and  O_3
REMARK    2  A    between atoms: C_2  and  C_23
REMARK    3  A    between atoms: O_3  and  C_4
REMARK    4  A    between atoms: C_4  and  C_5
REMARK    5  A    between atoms: C_8  and  C_9
REMARK    6  A    between atoms: C_9  and  C_10
REMARK    7  A    between atoms: C_10  and  N_11
REMARK    8  A    between atoms: N_11  and  CA_12
REMARK    9  A    between atoms: CA_12  and  C_13
REMARK   10  A    between atoms: CA_12  and  C_15
REMARK   11  A    between atoms: C_13  and  O_14
REMARK                            x       y       z     vdW  Elec       q    Type
REMARK                         _______ _______ _______ _____ _____    ______ ____
ROOT
ATOM      1  C   UNL     1      48.933   7.950  16.872  0.00  0.00    +0.000 A 
ATOM      2  C   UNL     1      48.238   9.011  16.288  0.00  0.00    +0.000 A 
ATOM      3  C   UNL     1      48.113   9.082  14.906  0.00  0.00    +0.000 A 
ATOM      4  C   UNL     1      48.672   8.072  14.131  0.00  0.00    +0.000 A 
ATOM      5  N   UNL     1      49.361   7.034  14.671  0.00  0.00    +0.000 NA
ATOM      6  C   UNL     1      49.469   6.994  16.019  0.00  0.00    +0.000 A 
ENDROOT
BRANCH   1   7
ATOM      7  C   UNL     1      49.106   7.857  18.360  0.00  0.00    +0.000 C 
BRANCH   7   8
ATOM      8  O   UNL     1      50.373   7.271  18.684  0.00  0.00    +0.000 OA
BRANCH   8  10
ATOM      9  O   UNL     1      49.983   6.172  20.646  0.00  0.00    +0.000 OA
ATOM     10  C   UNL     1      50.321   6.164  19.469  0.00  0.00    +0.000 C 
BRANCH  10  11
ATOM     11  C   UNL     1      50.793   4.958  18.793  0.00  0.00    +0.000 A 
ATOM     12  C   UNL     1      52.130   4.598  18.853  0.00  0.00    +0.000 A 
ATOM     13  S   UNL     1      52.488   3.181  17.971  0.00  0.00    +0.000 S 
ATOM     14  C   UNL     1      50.853   2.968  17.543  0.00  0.00    +0.000 A 
ATOM     15  N   UNL     1      50.461   1.887  16.818  0.00  0.00    +0.000 NA
ATOM     16  C   UNL     1      49.188   1.820  16.605  0.00  0.00    +0.000 A 
ATOM     17  N   UNL     1      48.276   2.746  17.043  0.00  0.00    +0.000 N 
ATOM     18  C   UNL     1      48.625   3.863  17.768  0.00  0.00    +0.000 A 
ATOM     19  O   UNL     1      47.762   4.647  18.144  0.00  0.00    +0.000 OA
ATOM     20  C   UNL     1      50.047   3.979  18.041  0.00  0.00    +0.000 A 
ATOM     21  H   UNL     1      47.290   2.630  16.858  0.00  0.00    +0.000 HD
ENDBRANCH  10  11
ENDBRANCH   8  10
ENDBRANCH   7   8
ENDBRANCH   1   7
BRANCH   4  22
ATOM     22  C   UNL     1      48.539   8.112  12.632  0.00  0.00    +0.000 C 
BRANCH  22  23
ATOM     23  C   UNL     1      47.427   7.195  12.104  0.00  0.00    +0.000 C 
BRANCH  23  24
ATOM     24  N   UNL     1      47.463   5.780  12.502  0.00  0.00    +0.000 NA
ATOM     25  H   UNL     1      48.282   5.626  13.099  0.00  0.00    +0.000 HD
BRANCH  24  26
ATOM     26  CA  UNL     1      46.276   5.350  13.291  0.00  0.00    +0.000 C 
BRANCH  26  27
ATOM     27  C   UNL     1      45.268   4.539  12.502  0.00  0.00    +0.000 A 
ATOM     28  C   UNL     1      44.873   4.889  11.215  0.00  0.00    +0.000 A 
ATOM     29  C   UNL     1      43.826   4.195  10.624  0.00  0.00    +0.000 A 
ATOM     30  C   UNL     1      43.244   3.168  11.338  0.00  0.00    +0.000 A 
ATOM     31  N   UNL     1      43.665   2.809  12.564  0.00  0.00    +0.000 NA
ATOM     32  N   UNL     1      44.683   3.503  13.152  0.00  0.00    +0.000 NA
ENDBRANCH  26  27
BRANCH  26  33
ATOM     33  C   UNL     1      46.748   4.605  14.560  0.00  0.00    +0.000 C 
BRANCH  33  34
ATOM     34  O   UNL     1      47.374   3.358  14.223  0.00  0.00    +0.000 OA
ATOM     35  H   UNL     1      47.760   3.451  13.331  0.00  0.00    +0.000 HD
ENDBRANCH  33  34
ENDBRANCH  26  33
ENDBRANCH  24  26
ENDBRANCH  23  24
ENDBRANCH  22  23
ENDBRANCH   4  22
TORSDOF 11
ENDMDL
MODEL 8
REMARK VINA RESULT:    -6.840      3.486      8.672
REMARK INTER + INTRA:         -12.175
REMARK INTER:                 -10.709
REMARK INTRA:                  -1.466
REMARK UNBOUND:                -1.137
REMARK  Name = 
REMARK  11 active torsions:
REMARK  status: ('A' for Active; 'I' for Inactive)
REMARK    1  A    between atoms: C_2  and  O_3
REMARK    2  A    between atoms: C_2  and  C_23
REMARK    3  A    between atoms: O_3  and  C_4
REMARK    4  A    between atoms: C_4  and  C_5
REMARK    5  A    between atoms: C_8  and  C_9
REMARK    6  A    between atoms: C_9  and  C_10
REMARK    7  A    between atoms: C_10  and  N_11
REMARK    8  A    between atoms: N_11  and  CA_12
REMARK    9  A    between atoms: CA_12  and  C_13
REMARK   10  A    between atoms: CA_12  and  C_15
REMARK   11  A    between atoms: C_13  and  O_14
REMARK                            x       y       z     vdW  Elec       q    Type
REMARK                         _______ _______ _______ _____ _____    ______ ____
ROOT
ATOM      1  C   UNL     1      49.257   7.635  13.171  0.00  0.00    +0.000 A 
ATOM      2  C   UNL     1      50.451   8.340  13.334  0.00  0.00    +0.000 A 
ATOM      3  C   UNL     1      51.093   8.345  14.567  0.00  0.00    +0.000 A 
ATOM      4  C   UNL     1      50.533   7.622  15.614  0.00  0.00    +0.000 A 
ATOM      5  N   UNL     1      49.368   6.935  15.488  0.00  0.00    +0.000 NA
ATOM      6  C   UNL     1      48.766   6.952  14.276  0.00  0.00    +0.000 A 
ENDROOT
BRANCH   1   7
ATOM      7  C   UNL     1      48.529   7.630  11.859  0.00  0.00    +0.000 C 
BRANCH   7   8
ATOM      8  O   UNL     1      47.648   6.502  11.776  0.00  0.00    +0.000 OA
BRANCH   8  10
ATOM      9  O   UNL     1      45.807   7.848  11.662  0.00  0.00    +0.000 OA
ATOM     10  C   UNL     1      46.368   6.785  11.421  0.00  0.00    +0.000 C 
BRANCH  10  11
ATOM     11  C   UNL     1      45.684   5.660  10.790  0.00  0.00    +0.000 A 
ATOM     12  C   UNL     1      45.827   5.425   9.431  0.00  0.00    +0.000 A 
ATOM     13  S   UNL     1      44.921   4.089   8.878  0.00  0.00    +0.000 S 
ATOM     14  C   UNL     1      44.368   3.741  10.451  0.00  0.00    +0.000 A 
ATOM     15  N   UNL     1      43.577   2.661  10.686  0.00  0.00    +0.000 NA
ATOM     16  C   UNL     1      43.270   2.484  11.929  0.00  0.00    +0.000 A 
ATOM     17  N   UNL     1      43.675   3.300  12.954  0.00  0.00    +0.000 N 
ATOM     18  C   UNL     1      44.464   4.412  12.766  0.00  0.00    +0.000 A 
ATOM     19  O   UNL     1      44.805   5.095  13.724  0.00  0.00    +0.000 OA
ATOM     20  C   UNL     1      44.844   4.649  11.384  0.00  0.00    +0.000 A 
ATOM     21  H   UNL     1      43.415   3.100  13.909  0.00  0.00    +0.000 HD
ENDBRANCH  10  11
ENDBRANCH   8  10
ENDBRANCH   7   8
ENDBRANCH   1   7
BRANCH   4  22
ATOM     22  C   UNL     1      51.212   7.593  16.957  0.00  0.00    +0.000 C 
BRANCH  22  23
ATOM     23  C   UNL     1      50.222   7.495  18.127  0.00  0.00    +0.000 C 
BRANCH  23  24
ATOM     24  N   UNL     1      50.047   6.182  18.764  0.00  0.00    +0.000 NA
ATOM     25  H   UNL     1      49.716   6.322  19.725  0.00  0.00    +0.000 HD
BRANCH  24  26
ATOM     26  CA  UNL     1      49.038   5.320  18.090  0.00  0.00    +0.000 C 
BRANCH  26  27
ATOM     27  C   UNL     1      49.559   3.957  17.682  0.00  0.00    +0.000 A 
ATOM     28  C   UNL     1      50.833   3.515  18.022  0.00  0.00    +0.000 A 
ATOM     29  C   UNL     1      51.299   2.328  17.472  0.00  0.00    +0.000 A 
ATOM     30  C   UNL     1      50.457   1.628  16.632  0.00  0.00    +0.000 A 
ATOM     31  N   UNL     1      49.209   2.044  16.347  0.00  0.00    +0.000 NA
ATOM     32  N   UNL     1      48.759   3.220  16.874  0.00  0.00    +0.000 NA
ENDBRANCH  26  27
BRANCH  26  33
ATOM     33  C   UNL     1      47.779   5.212  18.980  0.00  0.00    +0.000 C 
BRANCH  33  34
ATOM     34  O   UNL     1      46.617   4.907  18.194  0.00  0.00    +0.000 OA
ATOM     35  H   UNL     1      45.851   4.874  18.798  0.00  0.00    +0.000 HD
ENDBRANCH  33  34
ENDBRANCH  26  33
ENDBRANCH  24  26
ENDBRANCH  23  24
ENDBRANCH  22  23
ENDBRANCH   4  22
TORSDOF 11
ENDMDL
MODEL 9
REMARK VINA RESULT:    -6.771      3.639      9.203
REMARK INTER + INTRA:         -12.065
REMARK INTER:                 -10.760
REMARK INTRA:                  -1.305
REMARK UNBOUND:                -1.137
REMARK  Name = 
REMARK  11 active torsions:
REMARK  status: ('A' for Active; 'I' for Inactive)
REMARK    1  A    between atoms: C_2  and  O_3
REMARK    2  A    between atoms: C_2  and  C_23
REMARK    3  A    between atoms: O_3  and  C_4
REMARK    4  A    between atoms: C_4  and  C_5
REMARK    5  A    between atoms: C_8  and  C_9
REMARK    6  A    between atoms: C_9  and  C_10
REMARK    7  A    between atoms: C_10  and  N_11
REMARK    8  A    between atoms: N_11  and  CA_12
REMARK    9  A    between atoms: CA_12  and  C_13
REMARK   10  A    between atoms: CA_12  and  C_15
REMARK   11  A    between atoms: C_13  and  O_14
REMARK                            x       y       z     vdW  Elec       q    Type
REMARK                         _______ _______ _______ _____ _____    ______ ____
ROOT
ATOM      1  C   UNL     1      47.771   7.893  14.029  0.00  0.00    +0.000 A 
ATOM      2  C   UNL     1      48.640   8.815  14.615  0.00  0.00    +0.000 A 
ATOM      3  C   UNL     1      49.695   8.371  15.404  0.00  0.00    +0.000 A 
ATOM      4  C   UNL     1      49.871   7.003  15.574  0.00  0.00    +0.000 A 
ATOM      5  N   UNL     1      49.037   6.084  15.024  0.00  0.00    +0.000 NA
ATOM      6  C   UNL     1      48.018   6.547  14.264  0.00  0.00    +0.000 A 
ENDROOT
BRANCH   1   7
ATOM      7  C   UNL     1      46.609   8.341  13.190  0.00  0.00    +0.000 C 
BRANCH   7   8
ATOM      8  O   UNL     1      45.600   7.325  13.144  0.00  0.00    +0.000 OA
BRANCH   8  10
ATOM      9  O   UNL     1      45.004   7.888  11.014  0.00  0.00    +0.000 OA
ATOM     10  C   UNL     1      45.094   7.060  11.912  0.00  0.00    +0.000 C 
BRANCH  10  11
ATOM     11  C   UNL     1      44.584   5.697  11.781  0.00  0.00    +0.000 A 
ATOM     12  C   UNL     1      43.764   5.158  12.760  0.00  0.00    +0.000 A 
ATOM     13  S   UNL     1      43.305   3.546  12.443  0.00  0.00    +0.000 S 
ATOM     14  C   UNL     1      44.131   3.544  10.954  0.00  0.00    +0.000 A 
ATOM     15  N   UNL     1      44.091   2.456  10.140  0.00  0.00    +0.000 NA
ATOM     16  C   UNL     1      44.718   2.605   9.019  0.00  0.00    +0.000 A 
ATOM     17  N   UNL     1      45.390   3.741   8.649  0.00  0.00    +0.000 N 
ATOM     18  C   UNL     1      45.472   4.862   9.444  0.00  0.00    +0.000 A 
ATOM     19  O   UNL     1      46.076   5.853   9.051  0.00  0.00    +0.000 OA
ATOM     20  C   UNL     1      44.774   4.747  10.713  0.00  0.00    +0.000 A 
ATOM     21  H   UNL     1      45.849   3.803   7.751  0.00  0.00    +0.000 HD
ENDBRANCH  10  11
ENDBRANCH   8  10
ENDBRANCH   7   8
ENDBRANCH   1   7
BRANCH   4  22
ATOM     22  C   UNL     1      51.014   6.490  16.410  0.00  0.00    +0.000 C 
BRANCH  22  23
ATOM     23  C   UNL     1      50.573   5.463  17.462  0.00  0.00    +0.000 C 
BRANCH  23  24
ATOM     24  N   UNL     1      50.033   4.182  16.981  0.00  0.00    +0.000 NA
ATOM     25  H   UNL     1      50.776   3.476  17.017  0.00  0.00    +0.000 HD
BRANCH  24  26
ATOM     26  CA  UNL     1      48.910   3.660  17.805  0.00  0.00    +0.000 C 
BRANCH  26  27
ATOM     27  C   UNL     1      48.464   4.595  18.911  0.00  0.00    +0.000 A 
ATOM     28  C   UNL     1      48.875   4.438  20.230  0.00  0.00    +0.000 A 
ATOM     29  C   UNL     1      48.293   5.230  21.211  0.00  0.00    +0.000 A 
ATOM     30  C   UNL     1      47.351   6.159  20.821  0.00  0.00    +0.000 A 
ATOM     31  N   UNL     1      46.995   6.332  19.535  0.00  0.00    +0.000 NA
ATOM     32  N   UNL     1      47.553   5.540  18.573  0.00  0.00    +0.000 NA
ENDBRANCH  26  27
BRANCH  26  33
ATOM     33  C   UNL     1      47.738   3.261  16.880  0.00  0.00    +0.000 C 
BRANCH  33  34
ATOM     34  O   UNL     1      46.616   2.793  17.644  0.00  0.00    +0.000 OA
ATOM     35  H   UNL     1      46.568   3.328  18.459  0.00  0.00    +0.000 HD
ENDBRANCH  33  34
ENDBRANCH  26  33
ENDBRANCH  24  26
ENDBRANCH  23  24
ENDBRANCH  22  23
ENDBRANCH   4  22
TORSDOF 11
ENDMDL
