MODEL 1
REMARK VINA RESULT:    -6.884      0.000      0.000
REMARK INTER + INTRA:          -9.039
REMARK INTER:                  -8.494
REMARK INTRA:                  -0.546
REMARK UNBOUND:                -0.546
REMARK  Name = 
REMARK  6 active torsions:
REMARK  status: ('A' for Active; 'I' for Inactive)
REMARK    1  A    between atoms: C_1  and  O_2
REMARK    2  A    between atoms: O_2  and  C_3
REMARK    3  A    between atoms: C_14  and  C_15
REMARK    4  A    between atoms: C_15  and  O_16
REMARK    5  A    between atoms: O_16  and  C_17
REMARK    6  A    between atoms: C_21  and  C_22
REMARK                            x       y       z     vdW  Elec       q    Type
REMARK                         _______ _______ _______ _____ _____    ______ ____
ROOT
ATOM      1  C   UNL     1      45.460   5.369  12.783  0.00  0.00    +0.000 A 
ATOM      2  C   UNL     1      46.255   6.424  13.215  0.00  0.00    +0.000 A 
ATOM      3  C   UNL     1      46.028   7.707  12.729  0.00  0.00    +0.000 A 
ATOM      4  C   UNL     1      45.006   7.948  11.819  0.00  0.00    +0.000 A 
ATOM      5  N   UNL     1      44.735   9.224  11.387  0.00  0.00    +0.000 N 
ATOM      6  C   UNL     1      45.750  10.257  11.185  0.00  0.00    +0.000 C 
ATOM      7  C   UNL     1      45.286  11.578  11.840  0.00  0.00    +0.000 C 
ATOM      8  N   UNL     1      43.942  12.016  11.405  0.00  0.00    +0.000 NA
ATOM      9  C   UNL     1      42.979  10.910  11.636  0.00  0.00    +0.000 C 
ATOM     10  C   UNL     1      43.382   9.575  10.960  0.00  0.00    +0.000 C 
ATOM     11  N   UNL     1      44.236   6.925  11.384  0.00  0.00    +0.000 NA
ATOM     12  C   UNL     1      44.470   5.656  11.840  0.00  0.00    +0.000 A 
ATOM     13  H   UNL     1      43.977  12.188  10.401  0.00  0.00    +0.000 HD
ENDROOT
BRANCH   1  15
ATOM     14  C   UNL     1      46.875   3.754  13.778  0.00  0.00    +0.000 C 
ATOM     15  O   UNL     1      45.611   4.076  13.200  0.00  0.00    +0.000 OA
ENDBRANCH   1  15
BRANCH  12  16
ATOM     16  C   UNL     1      43.595   4.557  11.258  0.00  0.00    +0.000 C 
BRANCH  16  17
ATOM     17  O   UNL     1      43.595   4.624   9.830  0.00  0.00    +0.000 OA
BRANCH  17  18
ATOM     18  C   UNL     1      44.437   3.783   9.156  0.00  0.00    +0.000 A 
ATOM     19  C   UNL     1      44.510   2.483   9.645  0.00  0.00    +0.000 A 
ATOM     20  N   UNL     1      45.289   1.501   9.127  0.00  0.00    +0.000 NA
ATOM     21  C   UNL     1      46.043   1.835   8.059  0.00  0.00    +0.000 A 
ATOM     22  C   UNL     1      46.054   3.100   7.482  0.00  0.00    +0.000 A 
ATOM     23  C   UNL     1      46.929   3.397   6.304  0.00  0.00    +0.000 C 
ATOM     24  C   UNL     1      45.228   4.087   8.048  0.00  0.00    +0.000 A 
ENDBRANCH  17  18
ENDBRANCH  16  17
ENDBRANCH  12  16
TORSDOF 4
ENDMDL
MODEL 2
REMARK VINA RESULT:    -6.839      2.627      3.259
REMARK INTER + INTRA:          -8.984
REMARK INTER:                  -8.560
REMARK INTRA:                  -0.424
REMARK UNBOUND:                -0.546
REMARK  Name = 
REMARK  6 active torsions:
REMARK  status: ('A' for Active; 'I' for Inactive)
REMARK    1  A    between atoms: C_1  and  O_2
REMARK    2  A    between atoms: O_2  and  C_3
REMARK    3  A    between atoms: C_14  and  C_15
REMARK    4  A    between atoms: C_15  and  O_16
REMARK    5  A    between atoms: O_16  and  C_17
REMARK    6  A    between atoms: C_21  and  C_22
REMARK                            x       y       z     vdW  Elec       q    Type
REMARK                         _______ _______ _______ _____ _____    ______ ____
ROOT
ATOM      1  C   UNL     1      44.079   4.288  11.770  0.00  0.00    +0.000 A 
ATOM      2  C   UNL     1      44.515   4.506  13.072  0.00  0.00    +0.000 A 
ATOM      3  C   UNL     1      45.610   5.330  13.308  0.00  0.00    +0.000 A 
ATOM      4  C   UNL     1      46.271   5.947  12.253  0.00  0.00    +0.000 A 
ATOM      5  N   UNL     1      47.311   6.814  12.485  0.00  0.00    +0.000 N 
ATOM      6  C   UNL     1      48.272   6.672  13.577  0.00  0.00    +0.000 C 
ATOM      7  C   UNL     1      48.450   8.028  14.296  0.00  0.00    +0.000 C 
ATOM      8  N   UNL     1      48.792   9.142  13.384  0.00  0.00    +0.000 NA
ATOM      9  C   UNL     1      47.776   9.211  12.306  0.00  0.00    +0.000 C 
ATOM     10  C   UNL     1      47.594   7.882  11.528  0.00  0.00    +0.000 C 
ATOM     11  N   UNL     1      45.861   5.731  10.983  0.00  0.00    +0.000 NA
ATOM     12  C   UNL     1      44.799   4.902  10.742  0.00  0.00    +0.000 A 
ATOM     13  H   UNL     1      49.689   8.926  12.948  0.00  0.00    +0.000 HD
ENDROOT
BRANCH   1  15
ATOM     14  C   UNL     1      43.198   2.094  11.666  0.00  0.00    +0.000 C 
ATOM     15  O   UNL     1      43.018   3.492  11.441  0.00  0.00    +0.000 OA
ENDBRANCH   1  15
BRANCH  12  16
ATOM     16  C   UNL     1      44.440   4.669   9.283  0.00  0.00    +0.000 C 
BRANCH  16  17
ATOM     17  O   UNL     1      45.611   4.730   8.465  0.00  0.00    +0.000 OA
BRANCH  17  18
ATOM     18  C   UNL     1      46.048   3.566   7.896  0.00  0.00    +0.000 A 
ATOM     19  C   UNL     1      45.872   2.417   8.661  0.00  0.00    +0.000 A 
ATOM     20  N   UNL     1      46.243   1.169   8.283  0.00  0.00    +0.000 NA
ATOM     21  C   UNL     1      46.827   1.058   7.073  0.00  0.00    +0.000 A 
ATOM     22  C   UNL     1      47.056   2.132   6.220  0.00  0.00    +0.000 A 
ATOM     23  C   UNL     1      47.722   1.929   4.894  0.00  0.00    +0.000 C 
ATOM     24  C   UNL     1      46.651   3.409   6.649  0.00  0.00    +0.000 A 
ENDBRANCH  17  18
ENDBRANCH  16  17
ENDBRANCH  12  16
TORSDOF 4
ENDMDL
MODEL 3
REMARK VINA RESULT:    -6.460      4.062      6.389
REMARK INTER + INTRA:          -8.517
REMARK INTER:                  -7.994
REMARK INTRA:                  -0.523
REMARK UNBOUND:                -0.546
REMARK  Name = 
REMARK  6 active torsions:
REMARK  status: ('A' for Active; 'I' for Inactive)
REMARK    1  A    between atoms: C_1  and  O_2
REMARK    2  A    between atoms: O_2  and  C_3
REMARK    3  A    between atoms: C_14  and  C_15
REMARK    4  A    between atoms: C_15  and  O_16
REMARK    5  A    between atoms: O_16  and  C_17
REMARK    6  A    between atoms: C_21  and  C_22
REMARK                            x       y       z     vdW  Elec       q    Type
REMARK                         _______ _______ _______ _____ _____    ______ ____
ROOT
ATOM      1  C   UNL     1      49.135   7.441  13.373  0.00  0.00    +0.000 A 
ATOM      2  C   UNL     1      49.870   7.586  14.544  0.00  0.00    +0.000 A 
ATOM      3  C   UNL     1      49.533   6.843  15.671  0.00  0.00    +0.000 A 
ATOM      4  C   UNL     1      48.470   5.949  15.636  0.00  0.00    +0.000 A 
ATOM      5  N   UNL     1      48.174   5.165  16.724  0.00  0.00    +0.000 N 
ATOM      6  C   UNL     1      48.340   5.590  18.114  0.00  0.00    +0.000 C 
ATOM      7  C   UNL     1      49.061   4.483  18.915  0.00  0.00    +0.000 C 
ATOM      8  N   UNL     1      48.417   3.156  18.805  0.00  0.00    +0.000 NA
ATOM      9  C   UNL     1      48.280   2.806  17.369  0.00  0.00    +0.000 C 
ATOM     10  C   UNL     1      47.523   3.870  16.533  0.00  0.00    +0.000 C 
ATOM     11  N   UNL     1      47.742   5.811  14.505  0.00  0.00    +0.000 NA
ATOM     12  C   UNL     1      48.053   6.557  13.400  0.00  0.00    +0.000 A 
ATOM     13  H   UNL     1      47.477   3.229  19.194  0.00  0.00    +0.000 HD
ENDROOT
BRANCH   1  15
ATOM     14  C   UNL     1      50.561   7.737  11.508  0.00  0.00    +0.000 C 
ATOM     15  O   UNL     1      49.388   8.130  12.220  0.00  0.00    +0.000 OA
ENDBRANCH   1  15
BRANCH  12  16
ATOM     16  C   UNL     1      47.151   6.382  12.190  0.00  0.00    +0.000 C 
BRANCH  16  17
ATOM     17  O   UNL     1      45.787   6.248  12.599  0.00  0.00    +0.000 OA
BRANCH  17  18
ATOM     18  C   UNL     1      45.104   5.141  12.176  0.00  0.00    +0.000 A 
ATOM     19  C   UNL     1      44.285   4.538  13.124  0.00  0.00    +0.000 A 
ATOM     20  N   UNL     1      43.533   3.431  12.909  0.00  0.00    +0.000 NA
ATOM     21  C   UNL     1      43.603   2.890  11.675  0.00  0.00    +0.000 A 
ATOM     22  C   UNL     1      44.385   3.403  10.646  0.00  0.00    +0.000 A 
ATOM     23  C   UNL     1      44.419   2.737   9.305  0.00  0.00    +0.000 C 
ATOM     24  C   UNL     1      45.146   4.555  10.911  0.00  0.00    +0.000 A 
ENDBRANCH  17  18
ENDBRANCH  16  17
ENDBRANCH  12  16
TORSDOF 4
ENDMDL
MODEL 4
REMARK VINA RESULT:    -6.315      3.191      6.132
REMARK INTER + INTRA:          -8.337
REMARK INTER:                  -7.909
REMARK INTRA:                  -0.428
REMARK UNBOUND:                -0.546
REMARK  Name = 
REMARK  6 active torsions:
REMARK  status: ('A' for Active; 'I' for Inactive)
REMARK    1  A    between atoms: C_1  and  O_2
REMARK    2  A    between atoms: O_2  and  C_3
REMARK    3  A    between atoms: C_14  and  C_15
REMARK    4  A    between atoms: C_15  and  O_16
REMARK    5  A    between atoms: O_16  and  C_17
REMARK    6  A    between atoms: C_21  and  C_22
REMARK                            x       y       z     vdW  Elec       q    Type
REMARK                         _______ _______ _______ _____ _____    ______ ____
ROOT
ATOM      1  C   UNL     1      45.093   4.366  12.367  0.00  0.00    +0.000 A 
ATOM      2  C   UNL     1      44.349   5.314  11.675  0.00  0.00    +0.000 A 
ATOM      3  C   UNL     1      44.672   6.663  11.784  0.00  0.00    +0.000 A 
ATOM      4  C   UNL     1      45.739   7.073  12.574  0.00  0.00    +0.000 A 
ATOM      5  N   UNL     1      46.103   8.396  12.633  0.00  0.00    +0.000 N 
ATOM      6  C   UNL     1      45.161   9.512  12.560  0.00  0.00    +0.000 C 
ATOM      7  C   UNL     1      45.680  10.568  11.558  0.00  0.00    +0.000 C 
ATOM      8  N   UNL     1      47.064  11.015  11.831  0.00  0.00    +0.000 NA
ATOM      9  C   UNL     1      47.949   9.825  11.897  0.00  0.00    +0.000 C 
ATOM     10  C   UNL     1      47.489   8.757  12.922  0.00  0.00    +0.000 C 
ATOM     11  N   UNL     1      46.460   6.158  13.260  0.00  0.00    +0.000 NA
ATOM     12  C   UNL     1      46.133   4.832  13.177  0.00  0.00    +0.000 A 
ATOM     13  H   UNL     1      47.076  11.458  12.750  0.00  0.00    +0.000 HD
ENDROOT
BRANCH   1  15
ATOM     14  C   UNL     1      43.501   2.645  12.044  0.00  0.00    +0.000 C 
ATOM     15  O   UNL     1      44.849   3.022  12.326  0.00  0.00    +0.000 OA
ENDBRANCH   1  15
BRANCH  12  16
ATOM     16  C   UNL     1      46.958   3.877  14.023  0.00  0.00    +0.000 C 
BRANCH  16  17
ATOM     17  O   UNL     1      46.554   3.947  15.393  0.00  0.00    +0.000 OA
BRANCH  17  18
ATOM     18  C   UNL     1      47.514   3.752  16.348  0.00  0.00    +0.000 A 
ATOM     19  C   UNL     1      47.401   4.542  17.487  0.00  0.00    +0.000 A 
ATOM     20  N   UNL     1      48.252   4.508  18.542  0.00  0.00    +0.000 NA
ATOM     21  C   UNL     1      49.278   3.637  18.456  0.00  0.00    +0.000 A 
ATOM     22  C   UNL     1      49.494   2.796  17.370  0.00  0.00    +0.000 A 
ATOM     23  C   UNL     1      50.666   1.863  17.343  0.00  0.00    +0.000 C 
ATOM     24  C   UNL     1      48.585   2.860  16.299  0.00  0.00    +0.000 A 
ENDBRANCH  17  18
ENDBRANCH  16  17
ENDBRANCH  12  16
TORSDOF 4
ENDMDL
MODEL 5
REMARK VINA RESULT:    -6.141      3.940      7.207
REMARK INTER + INTRA:          -8.123
REMARK INTER:                  -7.603
REMARK INTRA:                  -0.520
REMARK UNBOUND:                -0.546
REMARK  Name = 
REMARK  6 active torsions:
REMARK  status: ('A' for Active; 'I' for Inactive)
REMARK    1  A    between atoms: C_1  and  O_2
REMARK    2  A    between atoms: O_2  and  C_3
REMARK    3  A    between atoms: C_14  and  C_15
REMARK    4  A    between atoms: C_15  and  O_16
REMARK    5  A    between atoms: O_16  and  C_17
REMARK    6  A    between atoms: C_21  and  C_22
REMARK                            x       y       z     vdW  Elec       q    Type
REMARK                         _______ _______ _______ _____ _____    ______ ____
ROOT
ATOM      1  C   UNL     1      48.512   7.525  13.406  0.00  0.00    +0.000 A 
ATOM      2  C   UNL     1      48.005   7.589  12.114  0.00  0.00    +0.000 A 
ATOM      3  C   UNL     1      46.987   6.725  11.724  0.00  0.00    +0.000 A 
ATOM      4  C   UNL     1      46.464   5.800  12.620  0.00  0.00    +0.000 A 
ATOM      5  N   UNL     1      45.414   4.990  12.261  0.00  0.00    +0.000 N 
ATOM      6  C   UNL     1      45.209   4.457  10.915  0.00  0.00    +0.000 C 
ATOM      7  C   UNL     1      43.738   4.666  10.490  0.00  0.00    +0.000 C 
ATOM      8  N   UNL     1      42.758   4.134  11.463  0.00  0.00    +0.000 NA
ATOM      9  C   UNL     1      43.042   4.717  12.798  0.00  0.00    +0.000 C 
ATOM     10  C   UNL     1      44.497   4.493  13.285  0.00  0.00    +0.000 C 
ATOM     11  N   UNL     1      46.960   5.723  13.875  0.00  0.00    +0.000 NA
ATOM     12  C   UNL     1      47.978   6.554  14.257  0.00  0.00    +0.000 A 
ATOM     13  H   UNL     1      42.899   3.127  11.531  0.00  0.00    +0.000 HD
ENDROOT
BRANCH   1  15
ATOM     14  C   UNL     1      50.049   9.264  12.942  0.00  0.00    +0.000 C 
ATOM     15  O   UNL     1      49.513   8.328  13.877  0.00  0.00    +0.000 OA
ENDBRANCH   1  15
BRANCH  12  16
ATOM     16  C   UNL     1      48.514   6.363  15.667  0.00  0.00    +0.000 C 
BRANCH  16  17
ATOM     17  O   UNL     1      47.988   5.164  16.243  0.00  0.00    +0.000 OA
BRANCH  17  18
ATOM     18  C   UNL     1      48.874   4.176  16.569  0.00  0.00    +0.000 A 
ATOM     19  C   UNL     1      48.546   2.900  16.123  0.00  0.00    +0.000 A 
ATOM     20  N   UNL     1      49.286   1.785  16.347  0.00  0.00    +0.000 NA
ATOM     21  C   UNL     1      50.418   1.951  17.060  0.00  0.00    +0.000 A 
ATOM     22  C   UNL     1      50.850   3.176  17.557  0.00  0.00    +0.000 A 
ATOM     23  C   UNL     1      52.115   3.277  18.352  0.00  0.00    +0.000 C 
ATOM     24  C   UNL     1      50.056   4.307  17.298  0.00  0.00    +0.000 A 
ENDBRANCH  17  18
ENDBRANCH  16  17
ENDBRANCH  12  16
TORSDOF 4
ENDMDL
MODEL 6
REMARK VINA RESULT:    -6.119      2.068      2.527
REMARK INTER + INTRA:          -8.096
REMARK INTER:                  -7.565
REMARK INTRA:                  -0.530
REMARK UNBOUND:                -0.546
REMARK  Name = 
REMARK  6 active torsions:
REMARK  status: ('A' for Active; 'I' for Inactive)
REMARK    1  A    between atoms: C_1  and  O_2
REMARK    2  A    between atoms: O_2  and  C_3
REMARK    3  A    between atoms: C_14  and  C_15
REMARK    4  A    between atoms: C_15  and  O_16
REMARK    5  A    between atoms: O_16  and  C_17
REMARK    6  A    between atoms: C_21  and  C_22
REMARK                            x       y       z     vdW  Elec       q    Type
REMARK                         _______ _______ _______ _____ _____    ______ ____
ROOT
ATOM      1  C   UNL     1      47.128   5.741  13.604  0.00  0.00    +0.000 A 
ATOM      2  C   UNL     1      48.358   6.374  13.739  0.00  0.00    +0.000 A 
ATOM      3  C   UNL     1      48.571   7.613  13.145  0.00  0.00    +0.000 A 
ATOM      4  C   UNL     1      47.560   8.232  12.420  0.00  0.00    +0.000 A 
ATOM      5  N   UNL     1      47.742   9.484  11.887  0.00  0.00    +0.000 N 
ATOM      6  C   UNL     1      49.015   9.980  11.367  0.00  0.00    +0.000 C 
ATOM      7  C   UNL     1      49.291  11.396  11.923  0.00  0.00    +0.000 C 
ATOM      8  N   UNL     1      48.180  12.347  11.696  0.00  0.00    +0.000 NA
ATOM      9  C   UNL     1      46.930  11.766  12.244  0.00  0.00    +0.000 C 
ATOM     10  C   UNL     1      46.590  10.362  11.681  0.00  0.00    +0.000 C 
ATOM     11  N   UNL     1      46.364   7.618  12.273  0.00  0.00    +0.000 NA
ATOM     12  C   UNL     1      46.156   6.388  12.835  0.00  0.00    +0.000 A 
ATOM     13  H   UNL     1      48.056  12.451  10.690  0.00  0.00    +0.000 HD
ENDROOT
BRANCH   1  15
ATOM     14  C   UNL     1      47.202   4.345  15.513  0.00  0.00    +0.000 C 
ATOM     15  O   UNL     1      46.829   4.523  14.147  0.00  0.00    +0.000 OA
ENDBRANCH   1  15
BRANCH  12  16
ATOM     16  C   UNL     1      44.804   5.745  12.575  0.00  0.00    +0.000 C 
BRANCH  16  17
ATOM     17  O   UNL     1      44.435   5.897  11.201  0.00  0.00    +0.000 OA
BRANCH  17  18
ATOM     18  C   UNL     1      44.577   4.811  10.383  0.00  0.00    +0.000 A 
ATOM     19  C   UNL     1      43.916   3.657  10.791  0.00  0.00    +0.000 A 
ATOM     20  N   UNL     1      43.936   2.475  10.127  0.00  0.00    +0.000 NA
ATOM     21  C   UNL     1      44.661   2.439   8.990  0.00  0.00    +0.000 A 
ATOM     22  C   UNL     1      45.364   3.526   8.482  0.00  0.00    +0.000 A 
ATOM     23  C   UNL     1      46.157   3.403   7.218  0.00  0.00    +0.000 C 
ATOM     24  C   UNL     1      45.312   4.734   9.200  0.00  0.00    +0.000 A 
ENDBRANCH  17  18
ENDBRANCH  16  17
ENDBRANCH  12  16
TORSDOF 4
ENDMDL
MODEL 7
REMARK VINA RESULT:    -5.936      4.319      7.785
REMARK INTER + INTRA:          -7.870
REMARK INTER:                  -7.423
REMARK INTRA:                  -0.447
REMARK UNBOUND:                -0.546
REMARK  Name = 
REMARK  6 active torsions:
REMARK  status: ('A' for Active; 'I' for Inactive)
REMARK    1  A    between atoms: C_1  and  O_2
REMARK    2  A    between atoms: O_2  and  C_3
REMARK    3  A    between atoms: C_14  and  C_15
REMARK    4  A    between atoms: C_15  and  O_16
REMARK    5  A    between atoms: O_16  and  C_17
REMARK    6  A    between atoms: C_21  and  C_22
REMARK                            x       y       z     vdW  Elec       q    Type
REMARK                         _______ _______ _______ _____ _____    ______ ____
ROOT
ATOM      1  C   UNL     1      48.613   7.697  13.016  0.00  0.00    +0.000 A 
ATOM      2  C   UNL     1      48.010   7.740  11.765  0.00  0.00    +0.000 A 
ATOM      3  C   UNL     1      46.954   6.882  11.474  0.00  0.00    +0.000 A 
ATOM      4  C   UNL     1      46.490   5.984  12.427  0.00  0.00    +0.000 A 
ATOM      5  N   UNL     1      45.406   5.181  12.167  0.00  0.00    +0.000 N 
ATOM      6  C   UNL     1      45.092   4.622  10.853  0.00  0.00    +0.000 C 
ATOM      7  C   UNL     1      43.595   4.843  10.536  0.00  0.00    +0.000 C 
ATOM      8  N   UNL     1      42.686   4.346  11.593  0.00  0.00    +0.000 NA
ATOM      9  C   UNL     1      43.078   4.953  12.889  0.00  0.00    +0.000 C 
ATOM     10  C   UNL     1      44.563   4.719  13.269  0.00  0.00    +0.000 C 
ATOM     11  N   UNL     1      47.079   5.927  13.642  0.00  0.00    +0.000 NA
ATOM     12  C   UNL     1      48.133   6.752  13.927  0.00  0.00    +0.000 A 
ATOM     13  H   UNL     1      42.820   3.338  11.673  0.00  0.00    +0.000 HD
ENDROOT
BRANCH   1  15
ATOM     14  C   UNL     1      50.839   8.382  12.601  0.00  0.00    +0.000 C 
ATOM     15  O   UNL     1      49.657   8.496  13.392  0.00  0.00    +0.000 OA
ENDBRANCH   1  15
BRANCH  12  16
ATOM     16  C   UNL     1      48.773   6.584  15.296  0.00  0.00    +0.000 C 
BRANCH  16  17
ATOM     17  O   UNL     1      48.493   5.283  15.821  0.00  0.00    +0.000 OA
BRANCH  17  18
ATOM     18  C   UNL     1      48.486   5.137  17.181  0.00  0.00    +0.000 A 
ATOM     19  C   UNL     1      48.814   3.871  17.653  0.00  0.00    +0.000 A 
ATOM     20  N   UNL     1      48.858   3.518  18.962  0.00  0.00    +0.000 NA
ATOM     21  C   UNL     1      48.554   4.483  19.853  0.00  0.00    +0.000 A 
ATOM     22  C   UNL     1      48.211   5.784  19.502  0.00  0.00    +0.000 A 
ATOM     23  C   UNL     1      47.874   6.798  20.551  0.00  0.00    +0.000 C 
ATOM     24  C   UNL     1      48.183   6.109  18.134  0.00  0.00    +0.000 A 
ENDBRANCH  17  18
ENDBRANCH  16  17
ENDBRANCH  12  16
TORSDOF 4
ENDMDL
MODEL 8
REMARK VINA RESULT:    -5.927      3.374      4.773
REMARK INTER + INTRA:          -7.858
REMARK INTER:                  -7.396
REMARK INTRA:                  -0.463
REMARK UNBOUND:                -0.546
REMARK  Name = 
REMARK  6 active torsions:
REMARK  status: ('A' for Active; 'I' for Inactive)
REMARK    1  A    between atoms: C_1  and  O_2
REMARK    2  A    between atoms: O_2  and  C_3
REMARK    3  A    between atoms: C_14  and  C_15
REMARK    4  A    between atoms: C_15  and  O_16
REMARK    5  A    between atoms: O_16  and  C_17
REMARK    6  A    between atoms: C_21  and  C_22
REMARK                            x       y       z     vdW  Elec       q    Type
REMARK                         _______ _______ _______ _____ _____    ______ ____
ROOT
ATOM      1  C   UNL     1      47.619   4.686  16.230  0.00  0.00    +0.000 A 
ATOM      2  C   UNL     1      48.348   5.605  16.974  0.00  0.00    +0.000 A 
ATOM      3  C   UNL     1      48.948   6.690  16.343  0.00  0.00    +0.000 A 
ATOM      4  C   UNL     1      48.820   6.869  14.971  0.00  0.00    +0.000 A 
ATOM      5  N   UNL     1      49.354   7.972  14.352  0.00  0.00    +0.000 N 
ATOM      6  C   UNL     1      50.598   8.623  14.761  0.00  0.00    +0.000 C 
ATOM      7  C   UNL     1      50.386  10.152  14.838  0.00  0.00    +0.000 C 
ATOM      8  N   UNL     1      49.825  10.736  13.600  0.00  0.00    +0.000 NA
ATOM      9  C   UNL     1      48.574  10.016  13.253  0.00  0.00    +0.000 C 
ATOM     10  C   UNL     1      48.749   8.481  13.122  0.00  0.00    +0.000 C 
ATOM     11  N   UNL     1      48.122   5.972  14.237  0.00  0.00    +0.000 NA
ATOM     12  C   UNL     1      47.550   4.890  14.849  0.00  0.00    +0.000 A 
ATOM     13  H   UNL     1      50.492  10.574  12.846  0.00  0.00    +0.000 HD
ENDROOT
BRANCH   1  15
ATOM     14  C   UNL     1      47.770   2.834  17.695  0.00  0.00    +0.000 C 
ATOM     15  O   UNL     1      47.000   3.589  16.760  0.00  0.00    +0.000 OA
ENDBRANCH   1  15
BRANCH  12  16
ATOM     16  C   UNL     1      46.832   3.903  13.943  0.00  0.00    +0.000 C 
BRANCH  16  17
ATOM     17  O   UNL     1      45.445   4.234  13.843  0.00  0.00    +0.000 OA
BRANCH  17  18
ATOM     18  C   UNL     1      44.881   4.230  12.597  0.00  0.00    +0.000 A 
ATOM     19  C   UNL     1      44.007   5.278  12.328  0.00  0.00    +0.000 A 
ATOM     20  N   UNL     1      43.340   5.452  11.160  0.00  0.00    +0.000 NA
ATOM     21  C   UNL     1      43.554   4.525  10.204  0.00  0.00    +0.000 A 
ATOM     22  C   UNL     1      44.404   3.435  10.357  0.00  0.00    +0.000 A 
ATOM     23  C   UNL     1      44.581   2.439   9.252  0.00  0.00    +0.000 C 
ATOM     24  C   UNL     1      45.079   3.295  11.582  0.00  0.00    +0.000 A 
ENDBRANCH  17  18
ENDBRANCH  16  17
ENDBRANCH  12  16
TORSDOF 4
ENDMDL
MODEL 9
REMARK VINA RESULT:    -5.755      3.918      6.801
REMARK INTER + INTRA:          -7.646
REMARK INTER:                  -7.088
REMARK INTRA:                  -0.558
REMARK UNBOUND:                -0.546
REMARK  Name = 
REMARK  6 active torsions:
REMARK  status: ('A' for Active; 'I' for Inactive)
REMARK    1  A    between atoms: C_1  and  O_2
REMARK    2  A    between atoms: O_2  and  C_3
REMARK    3  A    between atoms: C_14  and  C_15
REMARK    4  A    between atoms: C_15  and  O_16
REMARK    5  A    between atoms: O_16  and  C_17
REMARK    6  A    between atoms: C_21  and  C_22
REMARK                            x       y       z     vdW  Elec       q    Type
REMARK                         _______ _______ _______ _____ _____    ______ ____
ROOT
ATOM      1  C   UNL     1      45.642   4.450  12.643  0.00  0.00    +0.000 A 
ATOM      2  C   UNL     1      45.362   5.557  11.849  0.00  0.00    +0.000 A 
ATOM      3  C   UNL     1      46.208   6.660  11.875  0.00  0.00    +0.000 A 
ATOM      4  C   UNL     1      47.338   6.667  12.682  0.00  0.00    +0.000 A 
ATOM      5  N   UNL     1      48.212   7.726  12.662  0.00  0.00    +0.000 N 
ATOM      6  C   UNL     1      47.811   9.119  12.463  0.00  0.00    +0.000 C 
ATOM      7  C   UNL     1      48.731   9.781  11.412  0.00  0.00    +0.000 C 
ATOM      8  N   UNL     1      50.173   9.647  11.717  0.00  0.00    +0.000 NA
ATOM      9  C   UNL     1      50.491   8.210  11.912  0.00  0.00    +0.000 C 
ATOM     10  C   UNL     1      49.621   7.514  12.989  0.00  0.00    +0.000 C 
ATOM     11  N   UNL     1      47.611   5.600  13.466  0.00  0.00    +0.000 NA
ATOM     12  C   UNL     1      46.771   4.520  13.464  0.00  0.00    +0.000 A 
ATOM     13  H   UNL     1      50.353  10.123  12.601  0.00  0.00    +0.000 HD
ENDROOT
BRANCH   1  15
ATOM     14  C   UNL     1      43.540   3.464  12.186  0.00  0.00    +0.000 C 
ATOM     15  O   UNL     1      44.869   3.324  12.688  0.00  0.00    +0.000 OA
ENDBRANCH   1  15
BRANCH  12  16
ATOM     16  C   UNL     1      47.121   3.388  14.416  0.00  0.00    +0.000 C 
BRANCH  16  17
ATOM     17  O   UNL     1      46.902   3.789  15.771  0.00  0.00    +0.000 OA
BRANCH  17  18
ATOM     18  C   UNL     1      48.000   3.962  16.567  0.00  0.00    +0.000 A 
ATOM     19  C   UNL     1      48.668   2.798  16.934  0.00  0.00    +0.000 A 
ATOM     20  N   UNL     1      49.770   2.752  17.722  0.00  0.00    +0.000 NA
ATOM     21  C   UNL     1      50.234   3.935  18.174  0.00  0.00    +0.000 A 
ATOM     22  C   UNL     1      49.653   5.162  17.875  0.00  0.00    +0.000 A 
ATOM     23  C   UNL     1      50.220   6.434  18.426  0.00  0.00    +0.000 C 
ATOM     24  C   UNL     1      48.514   5.165  17.050  0.00  0.00    +0.000 A 
ENDBRANCH  17  18
ENDBRANCH  16  17
ENDBRANCH  12  16
TORSDOF 4
ENDMDL
