MODEL 1
REMARK VINA RESULT:    -7.039      0.000      0.000
REMARK INTER + INTRA:         -10.102
REMARK INTER:                  -9.303
REMARK INTRA:                  -0.799
REMARK UNBOUND:                -0.799
REMARK  Name = 
REMARK  6 active torsions:
REMARK  status: ('A' for Active; 'I' for Inactive)
REMARK    1  A    between atoms: N_1  and  C_2
REMARK    2  A    between atoms: C_2  and  C_3
REMARK    3  A    between atoms: C_7  and  O_8
REMARK    4  A    between atoms: O_8  and  C_9
REMARK    5  A    between atoms: C_9  and  C_10
REMARK    6  A    between atoms: C_10  and  C_11
REMARK                            x       y       z     vdW  Elec       q    Type
REMARK                         _______ _______ _______ _____ _____    ______ ____
ROOT
ATOM      1  C   UNL     1      46.761   5.307  13.662  0.00  0.00    +0.000 A 
ATOM      2  C   UNL     1      47.561   6.206  12.944  0.00  0.00    +0.000 A 
ATOM      3  C   UNL     1      47.077   6.821  11.793  0.00  0.00    +0.000 A 
ATOM      4  C   UNL     1      45.787   6.539  11.340  0.00  0.00    +0.000 A 
ATOM      5  C   UNL     1      44.970   5.646  12.036  0.00  0.00    +0.000 A 
ATOM      6  C   UNL     1      45.461   5.038  13.198  0.00  0.00    +0.000 A 
ENDROOT
BRANCH   1   7
ATOM      7  C   UNL     1      47.311   4.615  14.883  0.00  0.00    +0.000 C 
BRANCH   7   8
ATOM      8  N   UNL     1      47.436   3.176  14.682  0.00  0.00    +0.000 NA
ATOM      9  H   UNL     1      47.085   2.936  13.758  0.00  0.00    +0.000 HD
ATOM     10  H   UNL     1      46.834   2.700  15.354  0.00  0.00    +0.000 HD
ENDBRANCH   7   8
ENDBRANCH   1   7
BRANCH   5  11
ATOM     11  O   UNL     1      43.694   5.287  11.677  0.00  0.00    +0.000 OA
BRANCH  11  12
ATOM     12  C   UNL     1      43.563   4.739  10.364  0.00  0.00    +0.000 C 
BRANCH  12  13
ATOM     13  C   UNL     1      44.021   3.281  10.340  0.00  0.00    +0.000 C 
BRANCH  13  14
ATOM     14  C   UNL     1      44.970   3.064   9.183  0.00  0.00    +0.000 A 
ATOM     15  C   UNL     1      45.493   4.160   8.480  0.00  0.00    +0.000 A 
ATOM     16  C   UNL     1      46.458   3.971   7.489  0.00  0.00    +0.000 A 
ATOM     17  C   UNL     1      46.910   2.686   7.190  0.00  0.00    +0.000 A 
ATOM     18  C   UNL     1      46.387   1.592   7.876  0.00  0.00    +0.000 A 
ATOM     19 CL   UNL     1      46.955   0.008   7.517  0.00  0.00    +0.000 Cl
ATOM     20  C   UNL     1      45.422   1.774   8.868  0.00  0.00    +0.000 A 
ENDBRANCH  13  14
ENDBRANCH  12  13
ENDBRANCH  11  12
ENDBRANCH   5  11
TORSDOF 6
ENDMDL
MODEL 2
REMARK VINA RESULT:    -6.815      3.275      5.847
REMARK INTER + INTRA:          -9.805
REMARK INTER:                  -9.004
REMARK INTRA:                  -0.801
REMARK UNBOUND:                -0.799
REMARK  Name = 
REMARK  6 active torsions:
REMARK  status: ('A' for Active; 'I' for Inactive)
REMARK    1  A    between atoms: N_1  and  C_2
REMARK    2  A    between atoms: C_2  and  C_3
REMARK    3  A    between atoms: C_7  and  O_8
REMARK    4  A    between atoms: O_8  and  C_9
REMARK    5  A    between atoms: C_9  and  C_10
REMARK    6  A    between atoms: C_10  and  C_11
REMARK                            x       y       z     vdW  Elec       q    Type
REMARK                         _______ _______ _______ _____ _____    ______ ____
ROOT
ATOM      1  C   UNL     1      46.273   2.275   7.981  0.00  0.00    +0.000 A 
ATOM      2  C   UNL     1      46.501   3.610   7.621  0.00  0.00    +0.000 A 
ATOM      3  C   UNL     1      45.795   4.640   8.234  0.00  0.00    +0.000 A 
ATOM      4  C   UNL     1      44.845   4.348   9.214  0.00  0.00    +0.000 A 
ATOM      5  C   UNL     1      44.596   3.026   9.590  0.00  0.00    +0.000 A 
ATOM      6  C   UNL     1      45.318   1.996   8.975  0.00  0.00    +0.000 A 
ENDROOT
BRANCH   1   7
ATOM      7  C   UNL     1      47.013   1.165   7.279  0.00  0.00    +0.000 C 
BRANCH   7   8
ATOM      8  N   UNL     1      48.184   1.660   6.564  0.00  0.00    +0.000 NA
ATOM      9  H   UNL     1      47.880   2.267   5.806  0.00  0.00    +0.000 HD
ATOM     10  H   UNL     1      48.659   0.869   6.130  0.00  0.00    +0.000 HD
ENDBRANCH   7   8
ENDBRANCH   1   7
BRANCH   5  11
ATOM     11  O   UNL     1      43.680   2.624  10.531  0.00  0.00    +0.000 OA
BRANCH  11  12
ATOM     12  C   UNL     1      43.165   3.666  11.362  0.00  0.00    +0.000 C 
BRANCH  12  13
ATOM     13  C   UNL     1      43.731   3.559  12.778  0.00  0.00    +0.000 C 
BRANCH  13  14
ATOM     14  C   UNL     1      44.808   4.600  12.976  0.00  0.00    +0.000 A 
ATOM     15  C   UNL     1      46.110   4.215  13.330  0.00  0.00    +0.000 A 
ATOM     16  C   UNL     1      47.135   5.161  13.400  0.00  0.00    +0.000 A 
ATOM     17  C   UNL     1      46.870   6.501  13.119  0.00  0.00    +0.000 A 
ATOM     18  C   UNL     1      45.577   6.892  12.778  0.00  0.00    +0.000 A 
ATOM     19 CL   UNL     1      45.253   8.543  12.417  0.00  0.00    +0.000 Cl
ATOM     20  C   UNL     1      44.548   5.952  12.706  0.00  0.00    +0.000 A 
ENDBRANCH  13  14
ENDBRANCH  12  13
ENDBRANCH  11  12
ENDBRANCH   5  11
TORSDOF 6
ENDMDL
MODEL 3
REMARK VINA RESULT:    -6.411      1.539      2.461
REMARK INTER + INTRA:          -9.272
REMARK INTER:                  -8.990
REMARK INTRA:                  -0.282
REMARK UNBOUND:                -0.799
REMARK  Name = 
REMARK  6 active torsions:
REMARK  status: ('A' for Active; 'I' for Inactive)
REMARK    1  A    between atoms: N_1  and  C_2
REMARK    2  A    between atoms: C_2  and  C_3
REMARK    3  A    between atoms: C_7  and  O_8
REMARK    4  A    between atoms: O_8  and  C_9
REMARK    5  A    between atoms: C_9  and  C_10
REMARK    6  A    between atoms: C_10  and  C_11
REMARK                            x       y       z     vdW  Elec       q    Type
REMARK                         _______ _______ _______ _____ _____    ______ ____
ROOT
ATOM      1  C   UNL     1      45.486   4.468  12.958  0.00  0.00    +0.000 A 
ATOM      2  C   UNL     1      44.348   5.140  13.422  0.00  0.00    +0.000 A 
ATOM      3  C   UNL     1      43.173   5.142  12.676  0.00  0.00    +0.000 A 
ATOM      4  C   UNL     1      43.123   4.476  11.450  0.00  0.00    +0.000 A 
ATOM      5  C   UNL     1      44.244   3.800  10.964  0.00  0.00    +0.000 A 
ATOM      6  C   UNL     1      45.419   3.795  11.725  0.00  0.00    +0.000 A 
ENDROOT
BRANCH   1   7
ATOM      7  C   UNL     1      46.766   4.509  13.754  0.00  0.00    +0.000 C 
BRANCH   7   8
ATOM      8  N   UNL     1      47.242   3.170  14.085  0.00  0.00    +0.000 NA
ATOM      9  H   UNL     1      46.464   2.615  14.430  0.00  0.00    +0.000 HD
ATOM     10  H   UNL     1      47.910   3.243  14.853  0.00  0.00    +0.000 HD
ENDBRANCH   7   8
ENDBRANCH   1   7
BRANCH   5  11
ATOM     11  O   UNL     1      44.311   3.123   9.770  0.00  0.00    +0.000 OA
BRANCH  11  12
ATOM     12  C   UNL     1      44.384   3.948   8.607  0.00  0.00    +0.000 C 
BRANCH  12  13
ATOM     13  C   UNL     1      45.840   4.192   8.207  0.00  0.00    +0.000 C 
BRANCH  13  14
ATOM     14  C   UNL     1      46.325   3.058   7.334  0.00  0.00    +0.000 A 
ATOM     15  C   UNL     1      46.851   3.319   6.060  0.00  0.00    +0.000 A 
ATOM     16  C   UNL     1      47.407   2.290   5.297  0.00  0.00    +0.000 A 
ATOM     17  C   UNL     1      47.443   0.990   5.799  0.00  0.00    +0.000 A 
ATOM     18  C   UNL     1      46.913   0.721   7.059  0.00  0.00    +0.000 A 
ATOM     19 CL   UNL     1      46.970  -0.882   7.685  0.00  0.00    +0.000 Cl
ATOM     20  C   UNL     1      46.355   1.745   7.826  0.00  0.00    +0.000 A 
ENDBRANCH  13  14
ENDBRANCH  12  13
ENDBRANCH  11  12
ENDBRANCH   5  11
TORSDOF 6
ENDMDL
MODEL 4
REMARK VINA RESULT:    -6.348      2.966      5.809
REMARK INTER + INTRA:          -9.188
REMARK INTER:                  -8.498
REMARK INTRA:                  -0.690
REMARK UNBOUND:                -0.799
REMARK  Name = 
REMARK  6 active torsions:
REMARK  status: ('A' for Active; 'I' for Inactive)
REMARK    1  A    between atoms: N_1  and  C_2
REMARK    2  A    between atoms: C_2  and  C_3
REMARK    3  A    between atoms: C_7  and  O_8
REMARK    4  A    between atoms: O_8  and  C_9
REMARK    5  A    between atoms: C_9  and  C_10
REMARK    6  A    between atoms: C_10  and  C_11
REMARK                            x       y       z     vdW  Elec       q    Type
REMARK                         _______ _______ _______ _____ _____    ______ ____
ROOT
ATOM      1  C   UNL     1      46.413   3.104   7.500  0.00  0.00    +0.000 A 
ATOM      2  C   UNL     1      46.317   1.763   7.892  0.00  0.00    +0.000 A 
ATOM      3  C   UNL     1      45.352   1.360   8.809  0.00  0.00    +0.000 A 
ATOM      4  C   UNL     1      44.472   2.297   9.353  0.00  0.00    +0.000 A 
ATOM      5  C   UNL     1      44.547   3.641   8.981  0.00  0.00    +0.000 A 
ATOM      6  C   UNL     1      45.516   4.036   8.050  0.00  0.00    +0.000 A 
ENDROOT
BRANCH   1   7
ATOM      7  C   UNL     1      47.490   3.536   6.537  0.00  0.00    +0.000 C 
BRANCH   7   8
ATOM      8  N   UNL     1      48.555   2.544   6.432  0.00  0.00    +0.000 NA
ATOM      9  H   UNL     1      48.536   2.131   5.503  0.00  0.00    +0.000 HD
ATOM     10  H   UNL     1      48.362   1.788   7.090  0.00  0.00    +0.000 HD
ENDBRANCH   7   8
ENDBRANCH   1   7
BRANCH   5  11
ATOM     11  O   UNL     1      43.743   4.647   9.459  0.00  0.00    +0.000 OA
BRANCH  11  12
ATOM     12  C   UNL     1      43.319   4.494  10.815  0.00  0.00    +0.000 C 
BRANCH  12  13
ATOM     13  C   UNL     1      43.605   5.763  11.617  0.00  0.00    +0.000 C 
BRANCH  13  14
ATOM     14  C   UNL     1      45.041   5.756  12.088  0.00  0.00    +0.000 A 
ATOM     15  C   UNL     1      46.000   6.558  11.450  0.00  0.00    +0.000 A 
ATOM     16  C   UNL     1      47.300   6.644  11.953  0.00  0.00    +0.000 A 
ATOM     17  C   UNL     1      47.654   5.930  13.097  0.00  0.00    +0.000 A 
ATOM     18  C   UNL     1      46.710   5.124  13.729  0.00  0.00    +0.000 A 
ATOM     19 CL   UNL     1      47.145   4.254  15.149  0.00  0.00    +0.000 Cl
ATOM     20  C   UNL     1      45.410   5.033  13.231  0.00  0.00    +0.000 A 
ENDBRANCH  13  14
ENDBRANCH  12  13
ENDBRANCH  11  12
ENDBRANCH   5  11
TORSDOF 6
ENDMDL
MODEL 5
REMARK VINA RESULT:    -6.343      2.096      2.668
REMARK INTER + INTRA:          -9.182
REMARK INTER:                  -8.418
REMARK INTRA:                  -0.765
REMARK UNBOUND:                -0.799
REMARK  Name = 
REMARK  6 active torsions:
REMARK  status: ('A' for Active; 'I' for Inactive)
REMARK    1  A    between atoms: N_1  and  C_2
REMARK    2  A    between atoms: C_2  and  C_3
REMARK    3  A    between atoms: C_7  and  O_8
REMARK    4  A    between atoms: O_8  and  C_9
REMARK    5  A    between atoms: C_9  and  C_10
REMARK    6  A    between atoms: C_10  and  C_11
REMARK                            x       y       z     vdW  Elec       q    Type
REMARK                         _______ _______ _______ _____ _____    ______ ____
ROOT
ATOM      1  C   UNL     1      45.683   7.363  12.727  0.00  0.00    +0.000 A 
ATOM      2  C   UNL     1      47.023   7.276  13.123  0.00  0.00    +0.000 A 
ATOM      3  C   UNL     1      47.551   6.072  13.578  0.00  0.00    +0.000 A 
ATOM      4  C   UNL     1      46.742   4.937  13.649  0.00  0.00    +0.000 A 
ATOM      5  C   UNL     1      45.401   4.996  13.262  0.00  0.00    +0.000 A 
ATOM      6  C   UNL     1      44.880   6.210  12.797  0.00  0.00    +0.000 A 
ENDROOT
BRANCH   1   7
ATOM      7  C   UNL     1      45.111   8.683  12.276  0.00  0.00    +0.000 C 
BRANCH   7   8
ATOM      8  N   UNL     1      44.133   8.515  11.206  0.00  0.00    +0.000 NA
ATOM      9  H   UNL     1      44.298   7.627  10.740  0.00  0.00    +0.000 HD
ATOM     10  H   UNL     1      44.287   9.242  10.508  0.00  0.00    +0.000 HD
ENDBRANCH   7   8
ENDBRANCH   1   7
BRANCH   5  11
ATOM     11  O   UNL     1      44.514   3.949  13.300  0.00  0.00    +0.000 OA
BRANCH  11  12
ATOM     12  C   UNL     1      43.458   4.012  12.339  0.00  0.00    +0.000 C 
BRANCH  12  13
ATOM     13  C   UNL     1      43.460   2.767  11.452  0.00  0.00    +0.000 C 
BRANCH  13  14
ATOM     14  C   UNL     1      44.272   3.030  10.205  0.00  0.00    +0.000 A 
ATOM     15  C   UNL     1      44.456   4.342   9.743  0.00  0.00    +0.000 A 
ATOM     16  C   UNL     1      45.299   4.601   8.660  0.00  0.00    +0.000 A 
ATOM     17  C   UNL     1      45.967   3.552   8.029  0.00  0.00    +0.000 A 
ATOM     18  C   UNL     1      45.780   2.245   8.475  0.00  0.00    +0.000 A 
ATOM     19 CL   UNL     1      46.614   0.952   7.704  0.00  0.00    +0.000 Cl
ATOM     20  C   UNL     1      44.938   1.980   9.556  0.00  0.00    +0.000 A 
ENDBRANCH  13  14
ENDBRANCH  12  13
ENDBRANCH  11  12
ENDBRANCH   5  11
TORSDOF 6
ENDMDL
MODEL 6
REMARK VINA RESULT:    -6.143      1.435      2.024
REMARK INTER + INTRA:          -8.917
REMARK INTER:                  -8.320
REMARK INTRA:                  -0.597
REMARK UNBOUND:                -0.799
REMARK  Name = 
REMARK  6 active torsions:
REMARK  status: ('A' for Active; 'I' for Inactive)
REMARK    1  A    between atoms: N_1  and  C_2
REMARK    2  A    between atoms: C_2  and  C_3
REMARK    3  A    between atoms: C_7  and  O_8
REMARK    4  A    between atoms: O_8  and  C_9
REMARK    5  A    between atoms: C_9  and  C_10
REMARK    6  A    between atoms: C_10  and  C_11
REMARK                            x       y       z     vdW  Elec       q    Type
REMARK                         _______ _______ _______ _____ _____    ______ ____
ROOT
ATOM      1  C   UNL     1      46.871   6.628  12.754  0.00  0.00    +0.000 A 
ATOM      2  C   UNL     1      47.378   5.647  13.616  0.00  0.00    +0.000 A 
ATOM      3  C   UNL     1      46.648   4.492  13.880  0.00  0.00    +0.000 A 
ATOM      4  C   UNL     1      45.397   4.305  13.289  0.00  0.00    +0.000 A 
ATOM      5  C   UNL     1      44.869   5.269  12.428  0.00  0.00    +0.000 A 
ATOM      6  C   UNL     1      45.613   6.424  12.160  0.00  0.00    +0.000 A 
ENDROOT
BRANCH   1   7
ATOM      7  C   UNL     1      47.651   7.895  12.509  0.00  0.00    +0.000 C 
BRANCH   7   8
ATOM      8  N   UNL     1      48.772   7.676  11.601  0.00  0.00    +0.000 NA
ATOM      9  H   UNL     1      49.624   7.563  12.144  0.00  0.00    +0.000 HD
ATOM     10  H   UNL     1      48.898   8.513  11.032  0.00  0.00    +0.000 HD
ENDBRANCH   7   8
ENDBRANCH   1   7
BRANCH   5  11
ATOM     11  O   UNL     1      43.648   5.195  11.802  0.00  0.00    +0.000 OA
BRANCH  11  12
ATOM     12  C   UNL     1      43.692   4.799  10.430  0.00  0.00    +0.000 C 
BRANCH  12  13
ATOM     13  C   UNL     1      43.997   3.306  10.307  0.00  0.00    +0.000 C 
BRANCH  13  14
ATOM     14  C   UNL     1      44.955   3.074   9.162  0.00  0.00    +0.000 A 
ATOM     15  C   UNL     1      45.494   4.160   8.456  0.00  0.00    +0.000 A 
ATOM     16  C   UNL     1      46.467   3.957   7.476  0.00  0.00    +0.000 A 
ATOM     17  C   UNL     1      46.911   2.666   7.190  0.00  0.00    +0.000 A 
ATOM     18  C   UNL     1      46.373   1.582   7.879  0.00  0.00    +0.000 A 
ATOM     19 CL   UNL     1      46.932  -0.010   7.536  0.00  0.00    +0.000 Cl
ATOM     20  C   UNL     1      45.400   1.779   8.860  0.00  0.00    +0.000 A 
ENDBRANCH  13  14
ENDBRANCH  12  13
ENDBRANCH  11  12
ENDBRANCH   5  11
TORSDOF 6
ENDMDL
MODEL 7
REMARK VINA RESULT:    -5.795      4.501      7.649
REMARK INTER + INTRA:          -8.457
REMARK INTER:                  -8.102
REMARK INTRA:                  -0.356
REMARK UNBOUND:                -0.799
REMARK  Name = 
REMARK  6 active torsions:
REMARK  status: ('A' for Active; 'I' for Inactive)
REMARK    1  A    between atoms: N_1  and  C_2
REMARK    2  A    between atoms: C_2  and  C_3
REMARK    3  A    between atoms: C_7  and  O_8
REMARK    4  A    between atoms: O_8  and  C_9
REMARK    5  A    between atoms: C_9  and  C_10
REMARK    6  A    between atoms: C_10  and  C_11
REMARK                            x       y       z     vdW  Elec       q    Type
REMARK                         _______ _______ _______ _____ _____    ______ ____
ROOT
ATOM      1  C   UNL     1      44.996   3.877  11.573  0.00  0.00    +0.000 A 
ATOM      2  C   UNL     1      45.204   5.222  11.242  0.00  0.00    +0.000 A 
ATOM      3  C   UNL     1      46.088   6.005  11.979  0.00  0.00    +0.000 A 
ATOM      4  C   UNL     1      46.773   5.453  13.063  0.00  0.00    +0.000 A 
ATOM      5  C   UNL     1      46.582   4.115  13.416  0.00  0.00    +0.000 A 
ATOM      6  C   UNL     1      45.698   3.332  12.663  0.00  0.00    +0.000 A 
ENDROOT
BRANCH   1   7
ATOM      7  C   UNL     1      44.005   3.051  10.794  0.00  0.00    +0.000 C 
BRANCH   7   8
ATOM      8  N   UNL     1      43.084   2.336  11.672  0.00  0.00    +0.000 NA
ATOM      9  H   UNL     1      42.146   2.387  11.284  0.00  0.00    +0.000 HD
ATOM     10  H   UNL     1      43.053   2.817  12.571  0.00  0.00    +0.000 HD
ENDBRANCH   7   8
ENDBRANCH   1   7
BRANCH   5  11
ATOM     11  O   UNL     1      47.192   3.473  14.465  0.00  0.00    +0.000 OA
BRANCH  11  12
ATOM     12  C   UNL     1      47.283   4.231  15.672  0.00  0.00    +0.000 C 
BRANCH  12  13
ATOM     13  C   UNL     1      47.445   3.309  16.880  0.00  0.00    +0.000 C 
BRANCH  13  14
ATOM     14  C   UNL     1      48.906   3.207  17.251  0.00  0.00    +0.000 A 
ATOM     15  C   UNL     1      49.621   2.027  16.998  0.00  0.00    +0.000 A 
ATOM     16  C   UNL     1      50.997   1.967  17.231  0.00  0.00    +0.000 A 
ATOM     17  C   UNL     1      51.672   3.086  17.719  0.00  0.00    +0.000 A 
ATOM     18  C   UNL     1      50.966   4.257  17.983  0.00  0.00    +0.000 A 
ATOM     19 CL   UNL     1      51.802   5.642  18.573  0.00  0.00    +0.000 Cl
ATOM     20  C   UNL     1      49.592   4.323  17.753  0.00  0.00    +0.000 A 
ENDBRANCH  13  14
ENDBRANCH  12  13
ENDBRANCH  11  12
ENDBRANCH   5  11
TORSDOF 6
ENDMDL
MODEL 8
REMARK VINA RESULT:    -5.719      3.086      6.038
REMARK INTER + INTRA:          -8.358
REMARK INTER:                  -7.725
REMARK INTRA:                  -0.633
REMARK UNBOUND:                -0.799
REMARK  Name = 
REMARK  6 active torsions:
REMARK  status: ('A' for Active; 'I' for Inactive)
REMARK    1  A    between atoms: N_1  and  C_2
REMARK    2  A    between atoms: C_2  and  C_3
REMARK    3  A    between atoms: C_7  and  O_8
REMARK    4  A    between atoms: O_8  and  C_9
REMARK    5  A    between atoms: C_9  and  C_10
REMARK    6  A    between atoms: C_10  and  C_11
REMARK                            x       y       z     vdW  Elec       q    Type
REMARK                         _______ _______ _______ _____ _____    ______ ____
ROOT
ATOM      1  C   UNL     1      45.751   3.507   8.017  0.00  0.00    +0.000 A 
ATOM      2  C   UNL     1      45.315   2.226   8.381  0.00  0.00    +0.000 A 
ATOM      3  C   UNL     1      44.549   2.038   9.528  0.00  0.00    +0.000 A 
ATOM      4  C   UNL     1      44.214   3.129  10.331  0.00  0.00    +0.000 A 
ATOM      5  C   UNL     1      44.637   4.416   9.992  0.00  0.00    +0.000 A 
ATOM      6  C   UNL     1      45.400   4.598   8.831  0.00  0.00    +0.000 A 
ENDROOT
BRANCH   1   7
ATOM      7  C   UNL     1      46.615   3.692   6.796  0.00  0.00    +0.000 C 
BRANCH   7   8
ATOM      8  N   UNL     1      47.860   2.937   6.892  0.00  0.00    +0.000 NA
ATOM      9  H   UNL     1      48.490   3.238   6.152  0.00  0.00    +0.000 HD
ATOM     10  H   UNL     1      47.657   1.953   6.719  0.00  0.00    +0.000 HD
ENDBRANCH   7   8
ENDBRANCH   1   7
BRANCH   5  11
ATOM     11  O   UNL     1      44.376   5.557  10.711  0.00  0.00    +0.000 OA
BRANCH  11  12
ATOM     12  C   UNL     1      44.047   5.346  12.085  0.00  0.00    +0.000 C 
BRANCH  12  13
ATOM     13  C   UNL     1      45.290   5.475  12.965  0.00  0.00    +0.000 C 
BRANCH  13  14
ATOM     14  C   UNL     1      46.043   6.734  12.602  0.00  0.00    +0.000 A 
ATOM     15  C   UNL     1      45.465   7.994  12.820  0.00  0.00    +0.000 A 
ATOM     16  C   UNL     1      46.201   9.160  12.596  0.00  0.00    +0.000 A 
ATOM     17  C   UNL     1      47.520   9.079  12.152  0.00  0.00    +0.000 A 
ATOM     18  C   UNL     1      48.097   7.831  11.923  0.00  0.00    +0.000 A 
ATOM     19 CL   UNL     1      49.730   7.731  11.388  0.00  0.00    +0.000 Cl
ATOM     20  C   UNL     1      47.367   6.663  12.145  0.00  0.00    +0.000 A 
ENDBRANCH  13  14
ENDBRANCH  12  13
ENDBRANCH  11  12
ENDBRANCH   5  11
TORSDOF 6
ENDMDL
MODEL 9
REMARK VINA RESULT:    -5.527      4.020      7.183
REMARK INTER + INTRA:          -8.104
REMARK INTER:                  -7.839
REMARK INTRA:                  -0.265
REMARK UNBOUND:                -0.799
REMARK  Name = 
REMARK  6 active torsions:
REMARK  status: ('A' for Active; 'I' for Inactive)
REMARK    1  A    between atoms: N_1  and  C_2
REMARK    2  A    between atoms: C_2  and  C_3
REMARK    3  A    between atoms: C_7  and  O_8
REMARK    4  A    between atoms: O_8  and  C_9
REMARK    5  A    between atoms: C_9  and  C_10
REMARK    6  A    between atoms: C_10  and  C_11
REMARK                            x       y       z     vdW  Elec       q    Type
REMARK                         _______ _______ _______ _____ _____    ______ ____
ROOT
ATOM      1  C   UNL     1      46.933   1.351   5.016  0.00  0.00    +0.000 A 
ATOM      2  C   UNL     1      47.208   0.400   6.007  0.00  0.00    +0.000 A 
ATOM      3  C   UNL     1      47.096   0.728   7.355  0.00  0.00    +0.000 A 
ATOM      4  C   UNL     1      46.713   2.017   7.730  0.00  0.00    +0.000 A 
ATOM      5  C   UNL     1      46.435   2.984   6.763  0.00  0.00    +0.000 A 
ATOM      6  C   UNL     1      46.541   2.643   5.409  0.00  0.00    +0.000 A 
ENDROOT
BRANCH   1   7
ATOM      7  C   UNL     1      47.099   0.996   3.561  0.00  0.00    +0.000 C 
BRANCH   7   8
ATOM      8  N   UNL     1      47.168  -0.447   3.357  0.00  0.00    +0.000 NA
ATOM      9  H   UNL     1      46.286  -0.771   2.969  0.00  0.00    +0.000 HD
ATOM     10  H   UNL     1      47.269  -0.899   4.266  0.00  0.00    +0.000 HD
ENDBRANCH   7   8
ENDBRANCH   1   7
BRANCH   5  11
ATOM     11  O   UNL     1      46.062   4.281   7.017  0.00  0.00    +0.000 OA
BRANCH  11  12
ATOM     12  C   UNL     1      45.923   4.614   8.400  0.00  0.00    +0.000 C 
BRANCH  12  13
ATOM     13  C   UNL     1      44.527   4.249   8.905  0.00  0.00    +0.000 C 
BRANCH  13  14
ATOM     14  C   UNL     1      44.343   4.768  10.312  0.00  0.00    +0.000 A 
ATOM     15  C   UNL     1      43.213   4.405  11.060  0.00  0.00    +0.000 A 
ATOM     16  C   UNL     1      43.094   4.786  12.398  0.00  0.00    +0.000 A 
ATOM     17  C   UNL     1      44.104   5.535  13.002  0.00  0.00    +0.000 A 
ATOM     18  C   UNL     1      45.223   5.910  12.263  0.00  0.00    +0.000 A 
ATOM     19 CL   UNL     1      46.475   6.822  13.013  0.00  0.00    +0.000 Cl
ATOM     20  C   UNL     1      45.347   5.532  10.925  0.00  0.00    +0.000 A 
ENDBRANCH  13  14
ENDBRANCH  12  13
ENDBRANCH  11  12
ENDBRANCH   5  11
TORSDOF 6
ENDMDL
