MODEL 1
REMARK VINA RESULT:    -7.119      0.000      0.000
REMARK INTER + INTRA:         -10.265
REMARK INTER:                  -9.200
REMARK INTRA:                  -1.066
REMARK UNBOUND:                -1.066
REMARK  Name = 
REMARK  5 active torsions:
REMARK  status: ('A' for Active; 'I' for Inactive)
REMARK    1  A    between atoms: C_4  and  C_5
REMARK    2  A    between atoms: C_5  and  N_6
REMARK    3  A    between atoms: N_6  and  C_7
REMARK    4  A    between atoms: C_11  and  C_12
REMARK    5  A    between atoms: C_20  and  C_21
REMARK                            x       y       z     vdW  Elec       q    Type
REMARK                         _______ _______ _______ _____ _____    ______ ____
ROOT
ATOM      1  N   UNL     1      43.961   6.533  12.673  0.00  0.00    +0.000 N 
ATOM      2  H   UNL     1      43.512   7.343  13.095  0.00  0.00    +0.000 HD
ENDROOT
BRANCH   1   3
ATOM      3  C   UNL     1      45.347   6.550  12.905  0.00  0.00    +0.000 A 
ATOM      4  C   UNL     1      45.973   5.421  13.445  0.00  0.00    +0.000 A 
ATOM      5  C   UNL     1      47.346   5.415  13.688  0.00  0.00    +0.000 A 
ATOM      6  C   UNL     1      48.129   6.507  13.321  0.00  0.00    +0.000 A 
ATOM      7  C   UNL     1      47.558   7.591  12.648  0.00  0.00    +0.000 A 
ATOM      8  C   UNL     1      46.163   7.607  12.479  0.00  0.00    +0.000 A 
BRANCH   7   9
ATOM      9  C   UNL     1      48.372   8.652  11.914  0.00  0.00    +0.000 C 
ATOM     10  C   UNL     1      49.763   8.755  12.572  0.00  0.00    +0.000 C 
ATOM     11  C   UNL     1      49.691   9.514  13.896  0.00  0.00    +0.000 C 
ATOM     12  C   UNL     1      49.011  10.874  13.730  0.00  0.00    +0.000 C 
ATOM     13  N   UNL     1      47.714  10.806  13.062  0.00  0.00    +0.000 NA
ATOM     14  C   UNL     1      47.762  10.063  11.798  0.00  0.00    +0.000 C 
ATOM     15  H   UNL     1      47.365  11.748  12.893  0.00  0.00    +0.000 HD
ENDBRANCH   7   9
ENDBRANCH   1   3
BRANCH   1  16
ATOM     16  C   UNL     1      43.567   6.393  11.274  0.00  0.00    +0.000 C 
BRANCH  16  20
ATOM     17  F   UNL     1      43.113   1.532  11.436  0.00  0.00    +0.000 F 
ATOM     18  C   UNL     1      43.654   2.613  10.861  0.00  0.00    +0.000 A 
ATOM     19  C   UNL     1      43.370   3.874  11.379  0.00  0.00    +0.000 A 
ATOM     20  C   UNL     1      43.918   5.009  10.779  0.00  0.00    +0.000 A 
ATOM     21  C   UNL     1      44.759   4.856   9.662  0.00  0.00    +0.000 A 
ATOM     22  C   UNL     1      45.044   3.585   9.137  0.00  0.00    +0.000 A 
ATOM     23  C   UNL     1      44.476   2.462   9.753  0.00  0.00    +0.000 A 
BRANCH  22  24
ATOM     24  C   UNL     1      45.929   3.417   7.929  0.00  0.00    +0.000 C 
ATOM     25  F   UNL     1      46.786   4.456   7.727  0.00  0.00    +0.000 F 
ATOM     26  F   UNL     1      46.705   2.301   8.006  0.00  0.00    +0.000 F 
ATOM     27  F   UNL     1      45.213   3.296   6.776  0.00  0.00    +0.000 F 
ENDBRANCH  22  24
ENDBRANCH  16  20
ENDBRANCH   1  16
TORSDOF 5
ENDMDL
MODEL 2
REMARK VINA RESULT:    -7.024      0.839      1.090
REMARK INTER + INTRA:         -10.143
REMARK INTER:                  -9.092
REMARK INTRA:                  -1.052
REMARK UNBOUND:                -1.066
REMARK  Name = 
REMARK  5 active torsions:
REMARK  status: ('A' for Active; 'I' for Inactive)
REMARK    1  A    between atoms: C_4  and  C_5
REMARK    2  A    between atoms: C_5  and  N_6
REMARK    3  A    between atoms: N_6  and  C_7
REMARK    4  A    between atoms: C_11  and  C_12
REMARK    5  A    between atoms: C_20  and  C_21
REMARK                            x       y       z     vdW  Elec       q    Type
REMARK                         _______ _______ _______ _____ _____    ______ ____
ROOT
ATOM      1  N   UNL     1      44.817   6.898  12.750  0.00  0.00    +0.000 N 
ATOM      2  H   UNL     1      44.321   7.552  13.351  0.00  0.00    +0.000 HD
ENDROOT
BRANCH   1   3
ATOM      3  C   UNL     1      46.185   7.216  12.682  0.00  0.00    +0.000 A 
ATOM      4  C   UNL     1      47.140   6.220  12.912  0.00  0.00    +0.000 A 
ATOM      5  C   UNL     1      48.502   6.512  12.853  0.00  0.00    +0.000 A 
ATOM      6  C   UNL     1      48.932   7.785  12.487  0.00  0.00    +0.000 A 
ATOM      7  C   UNL     1      48.006   8.762  12.111  0.00  0.00    +0.000 A 
ATOM      8  C   UNL     1      46.639   8.468  12.247  0.00  0.00    +0.000 A 
BRANCH   7   9
ATOM      9  C   UNL     1      48.386  10.045  11.378  0.00  0.00    +0.000 C 
ATOM     10  C   UNL     1      49.765  10.518  11.883  0.00  0.00    +0.000 C 
ATOM     11  C   UNL     1      49.655  11.163  13.264  0.00  0.00    +0.000 C 
ATOM     12  C   UNL     1      48.604  12.273  13.286  0.00  0.00    +0.000 C 
ATOM     13  N   UNL     1      47.303  11.863  12.763  0.00  0.00    +0.000 NA
ATOM     14  C   UNL     1      47.392  11.223  11.447  0.00  0.00    +0.000 C 
ATOM     15  H   UNL     1      46.683  12.669  12.711  0.00  0.00    +0.000 HD
ENDBRANCH   7   9
ENDBRANCH   1   3
BRANCH   1  16
ATOM     16  C   UNL     1      44.144   6.767  11.461  0.00  0.00    +0.000 C 
BRANCH  16  20
ATOM     17  F   UNL     1      42.994   2.026  11.704  0.00  0.00    +0.000 F 
ATOM     18  C   UNL     1      43.655   3.014  11.089  0.00  0.00    +0.000 A 
ATOM     19  C   UNL     1      43.587   4.305  11.606  0.00  0.00    +0.000 A 
ATOM     20  C   UNL     1      44.262   5.344  10.964  0.00  0.00    +0.000 A 
ATOM     21  C   UNL     1      45.010   5.066   9.806  0.00  0.00    +0.000 A 
ATOM     22  C   UNL     1      45.076   3.765   9.281  0.00  0.00    +0.000 A 
ATOM     23  C   UNL     1      44.384   2.739   9.940  0.00  0.00    +0.000 A 
BRANCH  22  24
ATOM     24  C   UNL     1      45.860   3.464   8.030  0.00  0.00    +0.000 C 
ATOM     25  F   UNL     1      46.804   4.401   7.735  0.00  0.00    +0.000 F 
ATOM     26  F   UNL     1      46.521   2.276   8.105  0.00  0.00    +0.000 F 
ATOM     27  F   UNL     1      45.063   3.380   6.928  0.00  0.00    +0.000 F 
ENDBRANCH  22  24
ENDBRANCH  16  20
ENDBRANCH   1  16
TORSDOF 5
ENDMDL
MODEL 3
REMARK VINA RESULT:    -6.847      3.120      4.818
REMARK INTER + INTRA:          -9.914
REMARK INTER:                  -8.953
REMARK INTRA:                  -0.962
REMARK UNBOUND:                -1.066
REMARK  Name = 
REMARK  5 active torsions:
REMARK  status: ('A' for Active; 'I' for Inactive)
REMARK    1  A    between atoms: C_4  and  C_5
REMARK    2  A    between atoms: C_5  and  N_6
REMARK    3  A    between atoms: N_6  and  C_7
REMARK    4  A    between atoms: C_11  and  C_12
REMARK    5  A    between atoms: C_20  and  C_21
REMARK                            x       y       z     vdW  Elec       q    Type
REMARK                         _______ _______ _______ _____ _____    ______ ____
ROOT
ATOM      1  N   UNL     1      47.973   6.878  12.805  0.00  0.00    +0.000 N 
ATOM      2  H   UNL     1      48.017   5.953  12.382  0.00  0.00    +0.000 HD
ENDROOT
BRANCH   1   3
ATOM      3  C   UNL     1      48.363   6.831  14.154  0.00  0.00    +0.000 A 
ATOM      4  C   UNL     1      48.862   7.984  14.771  0.00  0.00    +0.000 A 
ATOM      5  C   UNL     1      49.259   7.961  16.108  0.00  0.00    +0.000 A 
ATOM      6  C   UNL     1      49.089   6.809  16.872  0.00  0.00    +0.000 A 
ATOM      7  C   UNL     1      48.460   5.687  16.326  0.00  0.00    +0.000 A 
ATOM      8  C   UNL     1      48.135   5.707  14.959  0.00  0.00    +0.000 A 
BRANCH   7   9
ATOM      9  C   UNL     1      47.928   4.528  17.163  0.00  0.00    +0.000 C 
ATOM     10  C   UNL     1      48.898   4.274  18.335  0.00  0.00    +0.000 C 
ATOM     11  C   UNL     1      50.156   3.548  17.861  0.00  0.00    +0.000 C 
ATOM     12  C   UNL     1      49.815   2.274  17.088  0.00  0.00    +0.000 C 
ATOM     13  N   UNL     1      48.858   2.481  16.005  0.00  0.00    +0.000 NA
ATOM     14  C   UNL     1      47.652   3.195  16.439  0.00  0.00    +0.000 C 
ATOM     15  H   UNL     1      48.598   1.584  15.599  0.00  0.00    +0.000 HD
ENDBRANCH   7   9
ENDBRANCH   1   3
BRANCH   1  16
ATOM     16  C   UNL     1      46.678   7.502  12.553  0.00  0.00    +0.000 C 
BRANCH  16  20
ATOM     17  F   UNL     1      42.504   5.010  13.032  0.00  0.00    +0.000 F 
ATOM     18  C   UNL     1      43.611   5.266  12.324  0.00  0.00    +0.000 A 
ATOM     19  C   UNL     1      44.540   6.178  12.816  0.00  0.00    +0.000 A 
ATOM     20  C   UNL     1      45.691   6.461  12.078  0.00  0.00    +0.000 A 
ATOM     21  C   UNL     1      45.896   5.809  10.849  0.00  0.00    +0.000 A 
ATOM     22  C   UNL     1      44.957   4.891  10.350  0.00  0.00    +0.000 A 
ATOM     23  C   UNL     1      43.807   4.629  11.106  0.00  0.00    +0.000 A 
BRANCH  22  24
ATOM     24  C   UNL     1      45.163   4.204   9.025  0.00  0.00    +0.000 C 
ATOM     25  F   UNL     1      45.435   2.874   9.132  0.00  0.00    +0.000 F 
ATOM     26  F   UNL     1      44.072   4.300   8.215  0.00  0.00    +0.000 F 
ATOM     27  F   UNL     1      46.199   4.739   8.320  0.00  0.00    +0.000 F 
ENDBRANCH  22  24
ENDBRANCH  16  20
ENDBRANCH   1  16
TORSDOF 5
ENDMDL
MODEL 4
REMARK VINA RESULT:    -6.803      1.437      2.430
REMARK INTER + INTRA:          -9.857
REMARK INTER:                  -8.958
REMARK INTRA:                  -0.899
REMARK UNBOUND:                -1.066
REMARK  Name = 
REMARK  5 active torsions:
REMARK  status: ('A' for Active; 'I' for Inactive)
REMARK    1  A    between atoms: C_4  and  C_5
REMARK    2  A    between atoms: C_5  and  N_6
REMARK    3  A    between atoms: N_6  and  C_7
REMARK    4  A    between atoms: C_11  and  C_12
REMARK    5  A    between atoms: C_20  and  C_21
REMARK                            x       y       z     vdW  Elec       q    Type
REMARK                         _______ _______ _______ _____ _____    ______ ____
ROOT
ATOM      1  N   UNL     1      44.671   6.906  12.562  0.00  0.00    +0.000 N 
ATOM      2  H   UNL     1      44.132   6.984  13.421  0.00  0.00    +0.000 HD
ENDROOT
BRANCH   1   3
ATOM      3  C   UNL     1      45.522   8.013  12.401  0.00  0.00    +0.000 A 
ATOM      4  C   UNL     1      44.987   9.247  12.014  0.00  0.00    +0.000 A 
ATOM      5  C   UNL     1      45.811  10.359  11.844  0.00  0.00    +0.000 A 
ATOM      6  C   UNL     1      47.170  10.277  12.136  0.00  0.00    +0.000 A 
ATOM      7  C   UNL     1      47.710   9.100  12.664  0.00  0.00    +0.000 A 
ATOM      8  C   UNL     1      46.876   7.972  12.758  0.00  0.00    +0.000 A 
BRANCH   7   9
ATOM      9  C   UNL     1      49.082   9.024  13.325  0.00  0.00    +0.000 C 
ATOM     10  C   UNL     1      50.013  10.059  12.662  0.00  0.00    +0.000 C 
ATOM     11  C   UNL     1      50.483   9.578  11.290  0.00  0.00    +0.000 C 
ATOM     12  C   UNL     1      51.106   8.184  11.365  0.00  0.00    +0.000 C 
ATOM     13  N   UNL     1      50.263   7.198  12.036  0.00  0.00    +0.000 NA
ATOM     14  C   UNL     1      49.786   7.652  13.346  0.00  0.00    +0.000 C 
ATOM     15  H   UNL     1      50.774   6.323  12.141  0.00  0.00    +0.000 HD
ENDBRANCH   7   9
ENDBRANCH   1   3
BRANCH   1  16
ATOM     16  C   UNL     1      43.799   6.621  11.427  0.00  0.00    +0.000 C 
BRANCH  16  20
ATOM     17  F   UNL     1      43.019   1.804  11.640  0.00  0.00    +0.000 F 
ATOM     18  C   UNL     1      43.617   2.842  11.043  0.00  0.00    +0.000 A 
ATOM     19  C   UNL     1      43.433   4.123  11.558  0.00  0.00    +0.000 A 
ATOM     20  C   UNL     1      44.043   5.213  10.934  0.00  0.00    +0.000 A 
ATOM     21  C   UNL     1      44.842   4.996   9.797  0.00  0.00    +0.000 A 
ATOM     22  C   UNL     1      45.025   3.705   9.276  0.00  0.00    +0.000 A 
ATOM     23  C   UNL     1      44.398   2.627   9.916  0.00  0.00    +0.000 A 
BRANCH  22  24
ATOM     24  C   UNL     1      45.865   3.469   8.048  0.00  0.00    +0.000 C 
ATOM     25  F   UNL     1      46.597   2.321   8.094  0.00  0.00    +0.000 F 
ATOM     26  F   UNL     1      45.116   3.391   6.914  0.00  0.00    +0.000 F 
ATOM     27  F   UNL     1      46.762   4.472   7.834  0.00  0.00    +0.000 F 
ENDBRANCH  22  24
ENDBRANCH  16  20
ENDBRANCH   1  16
TORSDOF 5
ENDMDL
MODEL 5
REMARK VINA RESULT:    -6.683      1.684      2.387
REMARK INTER + INTRA:          -9.703
REMARK INTER:                  -8.800
REMARK INTRA:                  -0.903
REMARK UNBOUND:                -1.066
REMARK  Name = 
REMARK  5 active torsions:
REMARK  status: ('A' for Active; 'I' for Inactive)
REMARK    1  A    between atoms: C_4  and  C_5
REMARK    2  A    between atoms: C_5  and  N_6
REMARK    3  A    between atoms: N_6  and  C_7
REMARK    4  A    between atoms: C_11  and  C_12
REMARK    5  A    between atoms: C_20  and  C_21
REMARK                            x       y       z     vdW  Elec       q    Type
REMARK                         _______ _______ _______ _____ _____    ______ ____
ROOT
ATOM      1  N   UNL     1      45.442   6.758  12.933  0.00  0.00    +0.000 N 
ATOM      2  H   UNL     1      44.988   7.377  13.601  0.00  0.00    +0.000 HD
ENDROOT
BRANCH   1   3
ATOM      3  C   UNL     1      46.825   7.005  12.881  0.00  0.00    +0.000 A 
ATOM      4  C   UNL     1      47.370   7.660  11.771  0.00  0.00    +0.000 A 
ATOM      5  C   UNL     1      48.739   7.913  11.694  0.00  0.00    +0.000 A 
ATOM      6  C   UNL     1      49.574   7.585  12.760  0.00  0.00    +0.000 A 
ATOM      7  C   UNL     1      49.041   7.062  13.941  0.00  0.00    +0.000 A 
ATOM      8  C   UNL     1      47.671   6.749  13.968  0.00  0.00    +0.000 A 
BRANCH   7   9
ATOM      9  C   UNL     1      49.809   6.997  15.257  0.00  0.00    +0.000 C 
ATOM     10  C   UNL     1      48.887   7.482  16.395  0.00  0.00    +0.000 C 
ATOM     11  C   UNL     1      48.746   9.003  16.380  0.00  0.00    +0.000 C 
ATOM     12  C   UNL     1      50.109   9.696  16.387  0.00  0.00    +0.000 C 
ATOM     13  N   UNL     1      51.018   9.216  15.349  0.00  0.00    +0.000 NA
ATOM     14  C   UNL     1      51.149   7.755  15.336  0.00  0.00    +0.000 C 
ATOM     15  H   UNL     1      51.936   9.641  15.471  0.00  0.00    +0.000 HD
ENDBRANCH   7   9
ENDBRANCH   1   3
BRANCH   1  16
ATOM     16  C   UNL     1      44.755   6.792  11.646  0.00  0.00    +0.000 C 
BRANCH  16  20
ATOM     17  F   UNL     1      42.988   2.239  11.711  0.00  0.00    +0.000 F 
ATOM     18  C   UNL     1      43.753   3.161  11.117  0.00  0.00    +0.000 A 
ATOM     19  C   UNL     1      43.877   4.421  11.697  0.00  0.00    +0.000 A 
ATOM     20  C   UNL     1      44.663   5.394  11.078  0.00  0.00    +0.000 A 
ATOM     21  C   UNL     1      45.326   5.081   9.877  0.00  0.00    +0.000 A 
ATOM     22  C   UNL     1      45.198   3.812   9.289  0.00  0.00    +0.000 A 
ATOM     23  C   UNL     1      44.398   2.853   9.927  0.00  0.00    +0.000 A 
BRANCH  22  24
ATOM     24  C   UNL     1      45.891   3.476   7.994  0.00  0.00    +0.000 C 
ATOM     25  F   UNL     1      46.834   4.386   7.623  0.00  0.00    +0.000 F 
ATOM     26  F   UNL     1      46.527   2.274   8.042  0.00  0.00    +0.000 F 
ATOM     27  F   UNL     1      45.021   3.397   6.948  0.00  0.00    +0.000 F 
ENDBRANCH  22  24
ENDBRANCH  16  20
ENDBRANCH   1  16
TORSDOF 5
ENDMDL
MODEL 6
REMARK VINA RESULT:    -6.532      3.495      5.602
REMARK INTER + INTRA:          -9.507
REMARK INTER:                  -8.803
REMARK INTRA:                  -0.704
REMARK UNBOUND:                -1.066
REMARK  Name = 
REMARK  5 active torsions:
REMARK  status: ('A' for Active; 'I' for Inactive)
REMARK    1  A    between atoms: C_4  and  C_5
REMARK    2  A    between atoms: C_5  and  N_6
REMARK    3  A    between atoms: N_6  and  C_7
REMARK    4  A    between atoms: C_11  and  C_12
REMARK    5  A    between atoms: C_20  and  C_21
REMARK                            x       y       z     vdW  Elec       q    Type
REMARK                         _______ _______ _______ _____ _____    ______ ____
ROOT
ATOM      1  N   UNL     1      47.745   7.761  14.483  0.00  0.00    +0.000 N 
ATOM      2  H   UNL     1      47.626   8.746  14.711  0.00  0.00    +0.000 HD
ENDROOT
BRANCH   1   3
ATOM      3  C   UNL     1      48.820   7.207  15.200  0.00  0.00    +0.000 A 
ATOM      4  C   UNL     1      50.111   7.712  15.013  0.00  0.00    +0.000 A 
ATOM      5  C   UNL     1      51.193   7.177  15.710  0.00  0.00    +0.000 A 
ATOM      6  C   UNL     1      50.992   6.181  16.663  0.00  0.00    +0.000 A 
ATOM      7  C   UNL     1      49.698   5.756  16.977  0.00  0.00    +0.000 A 
ATOM      8  C   UNL     1      48.631   6.257  16.212  0.00  0.00    +0.000 A 
BRANCH   7   9
ATOM      9  C   UNL     1      49.357   4.941  18.221  0.00  0.00    +0.000 C 
ATOM     10  C   UNL     1      49.769   3.474  17.983  0.00  0.00    +0.000 C 
ATOM     11  C   UNL     1      48.774   2.765  17.065  0.00  0.00    +0.000 C 
ATOM     12  C   UNL     1      47.339   2.902  17.573  0.00  0.00    +0.000 C 
ATOM     13  N   UNL     1      46.944   4.280  17.855  0.00  0.00    +0.000 NA
ATOM     14  C   UNL     1      47.898   4.982  18.720  0.00  0.00    +0.000 C 
ATOM     15  H   UNL     1      46.020   4.292  18.283  0.00  0.00    +0.000 HD
ENDBRANCH   7   9
ENDBRANCH   1   3
BRANCH   1  16
ATOM     16  C   UNL     1      47.795   7.566  13.037  0.00  0.00    +0.000 C 
BRANCH  16  20
ATOM     17  F   UNL     1      43.340   7.771  11.046  0.00  0.00    +0.000 F 
ATOM     18  C   UNL     1      44.334   7.033  11.553  0.00  0.00    +0.000 A 
ATOM     19  C   UNL     1      45.471   7.669  12.046  0.00  0.00    +0.000 A 
ATOM     20  C   UNL     1      46.520   6.907  12.565  0.00  0.00    +0.000 A 
ATOM     21  C   UNL     1      46.405   5.505  12.587  0.00  0.00    +0.000 A 
ATOM     22  C   UNL     1      45.260   4.864  12.087  0.00  0.00    +0.000 A 
ATOM     23  C   UNL     1      44.224   5.650  11.566  0.00  0.00    +0.000 A 
BRANCH  22  24
ATOM     24  C   UNL     1      45.140   3.361  12.092  0.00  0.00    +0.000 C 
ATOM     25  F   UNL     1      46.083   2.737  12.850  0.00  0.00    +0.000 F 
ATOM     26  F   UNL     1      43.936   2.939  12.567  0.00  0.00    +0.000 F 
ATOM     27  F   UNL     1      45.256   2.829  10.843  0.00  0.00    +0.000 F 
ENDBRANCH  22  24
ENDBRANCH  16  20
ENDBRANCH   1  16
TORSDOF 5
ENDMDL
MODEL 7
REMARK VINA RESULT:    -6.482      4.908      7.464
REMARK INTER + INTRA:          -9.442
REMARK INTER:                  -8.432
REMARK INTRA:                  -1.011
REMARK UNBOUND:                -1.066
REMARK  Name = 
REMARK  5 active torsions:
REMARK  status: ('A' for Active; 'I' for Inactive)
REMARK    1  A    between atoms: C_4  and  C_5
REMARK    2  A    between atoms: C_5  and  N_6
REMARK    3  A    between atoms: N_6  and  C_7
REMARK    4  A    between atoms: C_11  and  C_12
REMARK    5  A    between atoms: C_20  and  C_21
REMARK                            x       y       z     vdW  Elec       q    Type
REMARK                         _______ _______ _______ _____ _____    ______ ____
ROOT
ATOM      1  N   UNL     1      44.885   9.742  12.705  0.00  0.00    +0.000 N 
ATOM      2  H   UNL     1      45.122  10.006  13.659  0.00  0.00    +0.000 HD
ENDROOT
BRANCH   1   3
ATOM      3  C   UNL     1      45.416   8.480  12.388  0.00  0.00    +0.000 A 
ATOM      4  C   UNL     1      46.590   8.045  13.013  0.00  0.00    +0.000 A 
ATOM      5  C   UNL     1      47.138   6.799  12.712  0.00  0.00    +0.000 A 
ATOM      6  C   UNL     1      46.479   5.934  11.843  0.00  0.00    +0.000 A 
ATOM      7  C   UNL     1      45.232   6.278  11.314  0.00  0.00    +0.000 A 
ATOM      8  C   UNL     1      44.734   7.567  11.573  0.00  0.00    +0.000 A 
BRANCH   7   9
ATOM      9  C   UNL     1      44.293   5.277  10.646  0.00  0.00    +0.000 C 
ATOM     10  C   UNL     1      42.944   5.286  11.393  0.00  0.00    +0.000 C 
ATOM     11  C   UNL     1      43.043   4.533  12.719  0.00  0.00    +0.000 C 
ATOM     12  C   UNL     1      43.605   3.124  12.527  0.00  0.00    +0.000 C 
ATOM     13  N   UNL     1      44.858   3.087  11.777  0.00  0.00    +0.000 NA
ATOM     14  C   UNL     1      44.786   3.822  10.510  0.00  0.00    +0.000 C 
ATOM     15  H   UNL     1      45.123   2.120  11.598  0.00  0.00    +0.000 HD
ENDBRANCH   7   9
ENDBRANCH   1   3
BRANCH   1  16
ATOM     16  C   UNL     1      45.225  10.812  11.772  0.00  0.00    +0.000 C 
BRANCH  16  20
ATOM     17  F   UNL     1      43.392  11.677   7.328  0.00  0.00    +0.000 F 
ATOM     18  C   UNL     1      43.181  11.467   8.632  0.00  0.00    +0.000 A 
ATOM     19  C   UNL     1      44.272  11.302   9.482  0.00  0.00    +0.000 A 
ATOM     20  C   UNL     1      44.061  11.069  10.842  0.00  0.00    +0.000 A 
ATOM     21  C   UNL     1      42.745  11.013  11.334  0.00  0.00    +0.000 A 
ATOM     22  C   UNL     1      41.644  11.176  10.477  0.00  0.00    +0.000 A 
ATOM     23  C   UNL     1      41.881  11.402   9.114  0.00  0.00    +0.000 A 
BRANCH  22  24
ATOM     24  C   UNL     1      40.231  11.099  10.995  0.00  0.00    +0.000 C 
ATOM     25  F   UNL     1      39.562  12.284  10.947  0.00  0.00    +0.000 F 
ATOM     26  F   UNL     1      39.470  10.211  10.298  0.00  0.00    +0.000 F 
ATOM     27  F   UNL     1      40.178  10.695  12.296  0.00  0.00    +0.000 F 
ENDBRANCH  22  24
ENDBRANCH  16  20
ENDBRANCH   1  16
TORSDOF 5
ENDMDL
MODEL 8
REMARK VINA RESULT:    -6.463      4.043      5.359
REMARK INTER + INTRA:          -9.417
REMARK INTER:                  -8.617
REMARK INTRA:                  -0.801
REMARK UNBOUND:                -1.066
REMARK  Name = 
REMARK  5 active torsions:
REMARK  status: ('A' for Active; 'I' for Inactive)
REMARK    1  A    between atoms: C_4  and  C_5
REMARK    2  A    between atoms: C_5  and  N_6
REMARK    3  A    between atoms: N_6  and  C_7
REMARK    4  A    between atoms: C_11  and  C_12
REMARK    5  A    between atoms: C_20  and  C_21
REMARK                            x       y       z     vdW  Elec       q    Type
REMARK                         _______ _______ _______ _____ _____    ______ ____
ROOT
ATOM      1  N   UNL     1      46.678   3.891  15.551  0.00  0.00    +0.000 N 
ATOM      2  H   UNL     1      46.058   4.698  15.557  0.00  0.00    +0.000 HD
ENDROOT
BRANCH   1   3
ATOM      3  C   UNL     1      47.724   4.055  16.475  0.00  0.00    +0.000 A 
ATOM      4  C   UNL     1      48.516   2.957  16.827  0.00  0.00    +0.000 A 
ATOM      5  C   UNL     1      49.557   3.094  17.744  0.00  0.00    +0.000 A 
ATOM      6  C   UNL     1      49.875   4.347  18.264  0.00  0.00    +0.000 A 
ATOM      7  C   UNL     1      49.197   5.487  17.823  0.00  0.00    +0.000 A 
ATOM      8  C   UNL     1      48.105   5.315  16.954  0.00  0.00    +0.000 A 
BRANCH   7   9
ATOM      9  C   UNL     1      49.692   6.909  18.066  0.00  0.00    +0.000 C 
ATOM     10  C   UNL     1      49.881   7.119  19.582  0.00  0.00    +0.000 C 
ATOM     11  C   UNL     1      48.536   7.308  20.284  0.00  0.00    +0.000 C 
ATOM     12  C   UNL     1      47.711   8.417  19.631  0.00  0.00    +0.000 C 
ATOM     13  N   UNL     1      47.563   8.267  18.185  0.00  0.00    +0.000 NA
ATOM     14  C   UNL     1      48.842   8.065  17.499  0.00  0.00    +0.000 C 
ATOM     15  H   UNL     1      47.093   9.086  17.801  0.00  0.00    +0.000 HD
ENDBRANCH   7   9
ENDBRANCH   1   3
BRANCH   1  16
ATOM     16  C   UNL     1      47.095   3.567  14.190  0.00  0.00    +0.000 C 
BRANCH  16  20
ATOM     17  F   UNL     1      47.288   7.749  11.672  0.00  0.00    +0.000 F 
ATOM     18  C   UNL     1      46.634   6.619  11.968  0.00  0.00    +0.000 A 
ATOM     19  C   UNL     1      47.168   5.750  12.916  0.00  0.00    +0.000 A 
ATOM     20  C   UNL     1      46.500   4.563  13.221  0.00  0.00    +0.000 A 
ATOM     21  C   UNL     1      45.288   4.270  12.570  0.00  0.00    +0.000 A 
ATOM     22  C   UNL     1      44.751   5.144  11.611  0.00  0.00    +0.000 A 
ATOM     23  C   UNL     1      45.443   6.326  11.317  0.00  0.00    +0.000 A 
BRANCH  22  24
ATOM     24  C   UNL     1      43.462   4.826  10.897  0.00  0.00    +0.000 C 
ATOM     25  F   UNL     1      43.613   4.612   9.560  0.00  0.00    +0.000 F 
ATOM     26  F   UNL     1      42.858   3.710  11.389  0.00  0.00    +0.000 F 
ATOM     27  F   UNL     1      42.546   5.828  11.011  0.00  0.00    +0.000 F 
ENDBRANCH  22  24
ENDBRANCH  16  20
ENDBRANCH   1  16
TORSDOF 5
ENDMDL
MODEL 9
REMARK VINA RESULT:    -6.295      5.128      7.865
REMARK INTER + INTRA:          -9.200
REMARK INTER:                  -8.361
REMARK INTRA:                  -0.839
REMARK UNBOUND:                -1.066
REMARK  Name = 
REMARK  5 active torsions:
REMARK  status: ('A' for Active; 'I' for Inactive)
REMARK    1  A    between atoms: C_4  and  C_5
REMARK    2  A    between atoms: C_5  and  N_6
REMARK    3  A    between atoms: N_6  and  C_7
REMARK    4  A    between atoms: C_11  and  C_12
REMARK    5  A    between atoms: C_20  and  C_21
REMARK                            x       y       z     vdW  Elec       q    Type
REMARK                         _______ _______ _______ _____ _____    ______ ____
ROOT
ATOM      1  N   UNL     1      48.633   6.499  14.331  0.00  0.00    +0.000 N 
ATOM      2  H   UNL     1      49.424   6.946  13.875  0.00  0.00    +0.000 HD
ENDROOT
BRANCH   1   3
ATOM      3  C   UNL     1      47.434   6.792  13.658  0.00  0.00    +0.000 A 
ATOM      4  C   UNL     1      47.355   7.931  12.849  0.00  0.00    +0.000 A 
ATOM      5  C   UNL     1      46.176   8.245  12.174  0.00  0.00    +0.000 A 
ATOM      6  C   UNL     1      45.083   7.384  12.233  0.00  0.00    +0.000 A 
ATOM      7  C   UNL     1      45.177   6.168  12.915  0.00  0.00    +0.000 A 
ATOM      8  C   UNL     1      46.349   5.906  13.646  0.00  0.00    +0.000 A 
BRANCH   7   9
ATOM      9  C   UNL     1      44.176   5.028  12.750  0.00  0.00    +0.000 C 
ATOM     10  C   UNL     1      44.916   3.792  12.198  0.00  0.00    +0.000 C 
ATOM     11  C   UNL     1      45.211   3.947  10.707  0.00  0.00    +0.000 C 
ATOM     12  C   UNL     1      43.948   4.285   9.914  0.00  0.00    +0.000 C 
ATOM     13  N   UNL     1      43.203   5.421  10.450  0.00  0.00    +0.000 NA
ATOM     14  C   UNL     1      42.928   5.298  11.885  0.00  0.00    +0.000 C 
ATOM     15  H   UNL     1      42.327   5.529   9.941  0.00  0.00    +0.000 HD
ENDBRANCH   7   9
ENDBRANCH   1   3
BRANCH   1  16
ATOM     16  C   UNL     1      48.629   6.786  15.762  0.00  0.00    +0.000 C 
BRANCH  16  20
ATOM     17  F   UNL     1      47.005   2.573  17.625  0.00  0.00    +0.000 F 
ATOM     18  C   UNL     1      48.021   3.421  17.426  0.00  0.00    +0.000 A 
ATOM     19  C   UNL     1      47.785   4.624  16.766  0.00  0.00    +0.000 A 
ATOM     20  C   UNL     1      48.842   5.509  16.542  0.00  0.00    +0.000 A 
ATOM     21  C   UNL     1      50.129   5.172  16.999  0.00  0.00    +0.000 A 
ATOM     22  C   UNL     1      50.367   3.957  17.662  0.00  0.00    +0.000 A 
ATOM     23  C   UNL     1      49.292   3.082  17.868  0.00  0.00    +0.000 A 
BRANCH  22  24
ATOM     24  C   UNL     1      51.748   3.583  18.136  0.00  0.00    +0.000 C 
ATOM     25  F   UNL     1      52.751   4.145  17.407  0.00  0.00    +0.000 F 
ATOM     26  F   UNL     1      51.970   3.952  19.428  0.00  0.00    +0.000 F 
ATOM     27  F   UNL     1      51.963   2.238  18.090  0.00  0.00    +0.000 F 
ENDBRANCH  22  24
ENDBRANCH  16  20
ENDBRANCH   1  16
TORSDOF 5
ENDMDL
