MODEL 1
REMARK VINA RESULT:    -7.755      0.000      0.000
REMARK INTER + INTRA:         -11.120
REMARK INTER:                 -10.022
REMARK INTRA:                  -1.098
REMARK UNBOUND:                -1.098
REMARK  Name = 
REMARK  6 active torsions:
REMARK  status: ('A' for Active; 'I' for Inactive)
REMARK    1  A    between atoms: C_1  and  C_2
REMARK    2  A    between atoms: C_2  and  N_3
REMARK    3  A    between atoms: C_2  and  C_16
REMARK    4  A    between atoms: C_4  and  C_6
REMARK    5  A    between atoms: C_19  and  C_20
REMARK    6  A    between atoms: C_20  and  N_21
REMARK                            x       y       z     vdW  Elec       q    Type
REMARK                         _______ _______ _______ _____ _____    ______ ____
ROOT
ATOM      1  C   UNL     1      43.732   2.944  11.004  0.00  0.00    +0.000 C 
ATOM      2  C   UNL     1      44.589   3.986  10.277  0.00  0.00    +0.000 C 
ENDROOT
BRANCH   2   3
ATOM      3  C   UNL     1      45.288   3.347   9.085  0.00  0.00    +0.000 A 
ATOM      4  C   UNL     1      45.833   4.138   8.066  0.00  0.00    +0.000 A 
ATOM      5  C   UNL     1      46.531   3.552   7.005  0.00  0.00    +0.000 A 
ATOM      6  C   UNL     1      46.707   2.162   6.945  0.00  0.00    +0.000 A 
ATOM      7  C   UNL     1      46.139   1.366   7.948  0.00  0.00    +0.000 A 
ATOM      8  C   UNL     1      45.437   1.952   9.003  0.00  0.00    +0.000 A 
BRANCH   6   9
ATOM      9  C   UNL     1      47.488   1.531   5.814  0.00  0.00    +0.000 C 
BRANCH   9  10
ATOM     10  N   UNL     1      46.665   0.724   4.882  0.00  0.00    +0.000 NA
ATOM     11  C   UNL     1      46.471   1.437   3.608  0.00  0.00    +0.000 C 
ATOM     12  C   UNL     1      45.783   0.588   2.536  0.00  0.00    +0.000 C 
ATOM     13  C   UNL     1      46.518  -0.726   2.320  0.00  0.00    +0.000 C 
ATOM     14  C   UNL     1      46.626  -1.462   3.646  0.00  0.00    +0.000 C 
ATOM     15  C   UNL     1      47.303  -0.592   4.705  0.00  0.00    +0.000 C 
ENDBRANCH   9  10
ENDBRANCH   6   9
ENDBRANCH   2   3
BRANCH   2  16
ATOM     16  N   UNL     1      45.593   4.598  11.137  0.00  0.00    +0.000 N 
ATOM     17  C   UNL     1      45.670   5.947  11.365  0.00  0.00    +0.000 C 
ATOM     18  O   UNL     1      44.867   6.749  10.898  0.00  0.00    +0.000 OA
ATOM     19  H   UNL     1      46.438   4.052  11.276  0.00  0.00    +0.000 HD
BRANCH  17  20
ATOM     20  C   UNL     1      46.734   6.392  12.274  0.00  0.00    +0.000 A 
ATOM     21  C   UNL     1      47.578   7.422  11.887  0.00  0.00    +0.000 A 
ATOM     22  S   UNL     1      48.757   7.817  13.054  0.00  0.00    +0.000 S 
ATOM     23  C   UNL     1      48.206   6.594  14.100  0.00  0.00    +0.000 A 
ATOM     24  N   UNL     1      48.828   6.360  15.287  0.00  0.00    +0.000 NA
ATOM     25  C   UNL     1      48.324   5.386  15.968  0.00  0.00    +0.000 A 
ATOM     26  N   UNL     1      47.245   4.632  15.574  0.00  0.00    +0.000 N 
ATOM     27  C   UNL     1      46.563   4.862  14.408  0.00  0.00    +0.000 A 
ATOM     28  O   UNL     1      45.558   4.220  14.112  0.00  0.00    +0.000 OA
ATOM     29  C   UNL     1      47.113   5.921  13.585  0.00  0.00    +0.000 A 
ATOM     30  H   UNL     1      46.889   3.897  16.167  0.00  0.00    +0.000 HD
ENDBRANCH  17  20
ENDBRANCH   2  16
TORSDOF 5
ENDMDL
MODEL 2
REMARK VINA RESULT:    -7.276      2.317      4.003
REMARK INTER + INTRA:         -10.501
REMARK INTER:                  -9.518
REMARK INTRA:                  -0.983
REMARK UNBOUND:                -1.098
REMARK  Name = 
REMARK  6 active torsions:
REMARK  status: ('A' for Active; 'I' for Inactive)
REMARK    1  A    between atoms: C_1  and  C_2
REMARK    2  A    between atoms: C_2  and  N_3
REMARK    3  A    between atoms: C_2  and  C_16
REMARK    4  A    between atoms: C_4  and  C_6
REMARK    5  A    between atoms: C_19  and  C_20
REMARK    6  A    between atoms: C_20  and  N_21
REMARK                            x       y       z     vdW  Elec       q    Type
REMARK                         _______ _______ _______ _____ _____    ______ ____
ROOT
ATOM      1  C   UNL     1      44.933   8.548  12.601  0.00  0.00    +0.000 C 
ATOM      2  C   UNL     1      46.212   7.724  12.414  0.00  0.00    +0.000 C 
ENDROOT
BRANCH   2   3
ATOM      3  C   UNL     1      45.937   6.530  11.511  0.00  0.00    +0.000 A 
ATOM      4  C   UNL     1      45.145   5.463  11.954  0.00  0.00    +0.000 A 
ATOM      5  C   UNL     1      44.841   4.399  11.100  0.00  0.00    +0.000 A 
ATOM      6  C   UNL     1      45.315   4.382   9.781  0.00  0.00    +0.000 A 
ATOM      7  C   UNL     1      46.130   5.433   9.343  0.00  0.00    +0.000 A 
ATOM      8  C   UNL     1      46.439   6.492  10.198  0.00  0.00    +0.000 A 
BRANCH   6   9
ATOM      9  C   UNL     1      44.961   3.245   8.847  0.00  0.00    +0.000 C 
BRANCH   9  10
ATOM     10  N   UNL     1      46.115   2.683   8.107  0.00  0.00    +0.000 NA
ATOM     11  C   UNL     1      46.088   1.210   8.141  0.00  0.00    +0.000 C 
ATOM     12  C   UNL     1      47.149   0.563   7.247  0.00  0.00    +0.000 C 
ATOM     13  C   UNL     1      47.053   1.079   5.819  0.00  0.00    +0.000 C 
ATOM     14  C   UNL     1      47.164   2.595   5.826  0.00  0.00    +0.000 C 
ATOM     15  C   UNL     1      46.106   3.220   6.735  0.00  0.00    +0.000 C 
ENDBRANCH   9  10
ENDBRANCH   6   9
ENDBRANCH   2   3
BRANCH   2  16
ATOM     16  N   UNL     1      46.768   7.242  13.671  0.00  0.00    +0.000 N 
ATOM     17  C   UNL     1      48.092   6.931  13.840  0.00  0.00    +0.000 C 
ATOM     18  O   UNL     1      48.929   7.078  12.955  0.00  0.00    +0.000 OA
ATOM     19  H   UNL     1      46.102   6.810  14.305  0.00  0.00    +0.000 HD
BRANCH  17  20
ATOM     20  C   UNL     1      48.486   6.476  15.180  0.00  0.00    +0.000 A 
ATOM     21  C   UNL     1      49.410   7.210  15.908  0.00  0.00    +0.000 A 
ATOM     22  S   UNL     1      49.757   6.550  17.440  0.00  0.00    +0.000 S 
ATOM     23  C   UNL     1      48.714   5.234  17.167  0.00  0.00    +0.000 A 
ATOM     24  N   UNL     1      48.580   4.247  18.093  0.00  0.00    +0.000 NA
ATOM     25  C   UNL     1      47.779   3.297  17.745  0.00  0.00    +0.000 A 
ATOM     26  N   UNL     1      47.088   3.252  16.558  0.00  0.00    +0.000 N 
ATOM     27  C   UNL     1      47.159   4.246  15.617  0.00  0.00    +0.000 A 
ATOM     28  O   UNL     1      46.478   4.216  14.596  0.00  0.00    +0.000 OA
ATOM     29  C   UNL     1      48.079   5.319  15.942  0.00  0.00    +0.000 A 
ATOM     30  H   UNL     1      46.460   2.488  16.359  0.00  0.00    +0.000 HD
ENDBRANCH  17  20
ENDBRANCH   2  16
TORSDOF 5
ENDMDL
MODEL 3
REMARK VINA RESULT:    -7.245      3.563      5.913
REMARK INTER + INTRA:         -10.461
REMARK INTER:                  -9.963
REMARK INTRA:                  -0.498
REMARK UNBOUND:                -1.098
REMARK  Name = 
REMARK  6 active torsions:
REMARK  status: ('A' for Active; 'I' for Inactive)
REMARK    1  A    between atoms: C_1  and  C_2
REMARK    2  A    between atoms: C_2  and  N_3
REMARK    3  A    between atoms: C_2  and  C_16
REMARK    4  A    between atoms: C_4  and  C_6
REMARK    5  A    between atoms: C_19  and  C_20
REMARK    6  A    between atoms: C_20  and  N_21
REMARK                            x       y       z     vdW  Elec       q    Type
REMARK                         _______ _______ _______ _____ _____    ______ ____
ROOT
ATOM      1  C   UNL     1      49.173   7.795  13.062  0.00  0.00    +0.000 C 
ATOM      2  C   UNL     1      48.581   6.539  13.713  0.00  0.00    +0.000 C 
ENDROOT
BRANCH   2   3
ATOM      3  C   UNL     1      47.314   6.120  12.981  0.00  0.00    +0.000 A 
ATOM      4  C   UNL     1      46.813   6.885  11.919  0.00  0.00    +0.000 A 
ATOM      5  C   UNL     1      45.686   6.463  11.208  0.00  0.00    +0.000 A 
ATOM      6  C   UNL     1      45.039   5.263  11.536  0.00  0.00    +0.000 A 
ATOM      7  C   UNL     1      45.520   4.511  12.615  0.00  0.00    +0.000 A 
ATOM      8  C   UNL     1      46.642   4.935  13.330  0.00  0.00    +0.000 A 
BRANCH   6   9
ATOM      9  C   UNL     1      43.838   4.792  10.747  0.00  0.00    +0.000 C 
BRANCH   9  10
ATOM     10  N   UNL     1      44.172   3.970   9.560  0.00  0.00    +0.000 NA
ATOM     11  C   UNL     1      45.353   4.514   8.866  0.00  0.00    +0.000 C 
ATOM     12  C   UNL     1      45.860   3.614   7.737  0.00  0.00    +0.000 C 
ATOM     13  C   UNL     1      46.123   2.201   8.236  0.00  0.00    +0.000 C 
ATOM     14  C   UNL     1      44.857   1.652   8.874  0.00  0.00    +0.000 C 
ATOM     15  C   UNL     1      44.360   2.573   9.989  0.00  0.00    +0.000 C 
ENDBRANCH   9  10
ENDBRANCH   6   9
ENDBRANCH   2   3
BRANCH   2  16
ATOM     16  N   UNL     1      48.269   6.722  15.123  0.00  0.00    +0.000 N 
ATOM     17  C   UNL     1      49.173   6.504  16.131  0.00  0.00    +0.000 C 
ATOM     18  O   UNL     1      50.338   6.182  15.922  0.00  0.00    +0.000 OA
ATOM     19  H   UNL     1      47.282   6.668  15.361  0.00  0.00    +0.000 HD
BRANCH  17  20
ATOM     20  C   UNL     1      48.694   6.755  17.496  0.00  0.00    +0.000 A 
ATOM     21  C   UNL     1      48.279   8.029  17.853  0.00  0.00    +0.000 A 
ATOM     22  S   UNL     1      47.753   8.151  19.470  0.00  0.00    +0.000 S 
ATOM     23  C   UNL     1      48.102   6.513  19.763  0.00  0.00    +0.000 A 
ATOM     24  N   UNL     1      47.920   5.971  20.997  0.00  0.00    +0.000 NA
ATOM     25  C   UNL     1      48.251   4.726  21.085  0.00  0.00    +0.000 A 
ATOM     26  N   UNL     1      48.737   3.970  20.045  0.00  0.00    +0.000 N 
ATOM     27  C   UNL     1      48.895   4.464  18.776  0.00  0.00    +0.000 A 
ATOM     28  O   UNL     1      49.264   3.749  17.848  0.00  0.00    +0.000 OA
ATOM     29  C   UNL     1      48.575   5.871  18.632  0.00  0.00    +0.000 A 
ATOM     30  H   UNL     1      48.956   2.994  20.179  0.00  0.00    +0.000 HD
ENDBRANCH  17  20
ENDBRANCH   2  16
TORSDOF 5
ENDMDL
MODEL 4
REMARK VINA RESULT:    -7.068      3.554      6.098
REMARK INTER + INTRA:         -10.232
REMARK INTER:                  -9.526
REMARK INTRA:                  -0.707
REMARK UNBOUND:                -1.098
REMARK  Name = 
REMARK  6 active torsions:
REMARK  status: ('A' for Active; 'I' for Inactive)
REMARK    1  A    between atoms: C_1  and  C_2
REMARK    2  A    between atoms: C_2  and  N_3
REMARK    3  A    between atoms: C_2  and  C_16
REMARK    4  A    between atoms: C_4  and  C_6
REMARK    5  A    between atoms: C_19  and  C_20
REMARK    6  A    between atoms: C_20  and  N_21
REMARK                            x       y       z     vdW  Elec       q    Type
REMARK                         _______ _______ _______ _____ _____    ______ ____
ROOT
ATOM      1  C   UNL     1      49.330   7.715  12.730  0.00  0.00    +0.000 C 
ATOM      2  C   UNL     1      48.621   6.654  13.578  0.00  0.00    +0.000 C 
ENDROOT
BRANCH   2   3
ATOM      3  C   UNL     1      47.341   6.202  12.887  0.00  0.00    +0.000 A 
ATOM      4  C   UNL     1      46.785   6.956  11.846  0.00  0.00    +0.000 A 
ATOM      5  C   UNL     1      45.646   6.506  11.170  0.00  0.00    +0.000 A 
ATOM      6  C   UNL     1      45.044   5.287  11.515  0.00  0.00    +0.000 A 
ATOM      7  C   UNL     1      45.581   4.545  12.574  0.00  0.00    +0.000 A 
ATOM      8  C   UNL     1      46.714   4.998  13.253  0.00  0.00    +0.000 A 
BRANCH   6   9
ATOM      9  C   UNL     1      43.830   4.786  10.765  0.00  0.00    +0.000 C 
BRANCH   9  10
ATOM     10  N   UNL     1      44.148   3.961   9.575  0.00  0.00    +0.000 NA
ATOM     11  C   UNL     1      45.313   4.508   8.858  0.00  0.00    +0.000 C 
ATOM     12  C   UNL     1      45.805   3.606   7.724  0.00  0.00    +0.000 C 
ATOM     13  C   UNL     1      46.083   2.197   8.222  0.00  0.00    +0.000 C 
ATOM     14  C   UNL     1      44.830   1.644   8.885  0.00  0.00    +0.000 C 
ATOM     15  C   UNL     1      44.349   2.566  10.005  0.00  0.00    +0.000 C 
ENDBRANCH   9  10
ENDBRANCH   6   9
ENDBRANCH   2   3
BRANCH   2  16
ATOM     16  N   UNL     1      48.289   7.122  14.917  0.00  0.00    +0.000 N 
ATOM     17  C   UNL     1      48.985   6.753  16.039  0.00  0.00    +0.000 C 
ATOM     18  O   UNL     1      49.977   6.033  16.001  0.00  0.00    +0.000 OA
ATOM     19  H   UNL     1      47.331   7.437  15.043  0.00  0.00    +0.000 HD
BRANCH  17  20
ATOM     20  C   UNL     1      48.525   7.335  17.307  0.00  0.00    +0.000 A 
ATOM     21  C   UNL     1      48.333   6.512  18.407  0.00  0.00    +0.000 A 
ATOM     22  S   UNL     1      47.800   7.341  19.797  0.00  0.00    +0.000 S 
ATOM     23  C   UNL     1      47.766   8.823  18.965  0.00  0.00    +0.000 A 
ATOM     24  N   UNL     1      47.345   9.960  19.583  0.00  0.00    +0.000 NA
ATOM     25  C   UNL     1      47.343  11.006  18.826  0.00  0.00    +0.000 A 
ATOM     26  N   UNL     1      47.738  11.021  17.510  0.00  0.00    +0.000 N 
ATOM     27  C   UNL     1      48.210   9.909  16.862  0.00  0.00    +0.000 A 
ATOM     28  O   UNL     1      48.623   9.964  15.707  0.00  0.00    +0.000 OA
ATOM     29  C   UNL     1      48.194   8.696  17.656  0.00  0.00    +0.000 A 
ATOM     30  H   UNL     1      47.731  11.881  16.982  0.00  0.00    +0.000 HD
ENDBRANCH  17  20
ENDBRANCH   2  16
TORSDOF 5
ENDMDL
MODEL 5
REMARK VINA RESULT:    -6.988      5.067     11.641
REMARK INTER + INTRA:         -10.128
REMARK INTER:                  -9.068
REMARK INTRA:                  -1.060
REMARK UNBOUND:                -1.098
REMARK  Name = 
REMARK  6 active torsions:
REMARK  status: ('A' for Active; 'I' for Inactive)
REMARK    1  A    between atoms: C_1  and  C_2
REMARK    2  A    between atoms: C_2  and  N_3
REMARK    3  A    between atoms: C_2  and  C_16
REMARK    4  A    between atoms: C_4  and  C_6
REMARK    5  A    between atoms: C_19  and  C_20
REMARK    6  A    between atoms: C_20  and  N_21
REMARK                            x       y       z     vdW  Elec       q    Type
REMARK                         _______ _______ _______ _____ _____    ______ ____
ROOT
ATOM      1  C   UNL     1      47.703   3.152  16.824  0.00  0.00    +0.000 C 
ATOM      2  C   UNL     1      48.024   4.511  16.192  0.00  0.00    +0.000 C 
ENDROOT
BRANCH   2   3
ATOM      3  C   UNL     1      48.058   5.590  17.265  0.00  0.00    +0.000 A 
ATOM      4  C   UNL     1      48.812   6.757  17.084  0.00  0.00    +0.000 A 
ATOM      5  C   UNL     1      48.790   7.775  18.043  0.00  0.00    +0.000 A 
ATOM      6  C   UNL     1      48.008   7.652  19.200  0.00  0.00    +0.000 A 
ATOM      7  C   UNL     1      47.276   6.475  19.398  0.00  0.00    +0.000 A 
ATOM      8  C   UNL     1      47.302   5.456  18.443  0.00  0.00    +0.000 A 
BRANCH   6   9
ATOM      9  C   UNL     1      47.961   8.766  20.222  0.00  0.00    +0.000 C 
BRANCH   9  10
ATOM     10  N   UNL     1      46.940   9.804  19.947  0.00  0.00    +0.000 NA
ATOM     11  C   UNL     1      46.170  10.113  21.164  0.00  0.00    +0.000 C 
ATOM     12  C   UNL     1      45.221  11.302  20.996  0.00  0.00    +0.000 C 
ATOM     13  C   UNL     1      45.962  12.530  20.492  0.00  0.00    +0.000 C 
ATOM     14  C   UNL     1      46.677  12.186  19.195  0.00  0.00    +0.000 C 
ATOM     15  C   UNL     1      47.609  10.989  19.381  0.00  0.00    +0.000 C 
ENDBRANCH   9  10
ENDBRANCH   6   9
ENDBRANCH   2   3
BRANCH   2  16
ATOM     16  N   UNL     1      47.068   4.902  15.165  0.00  0.00    +0.000 N 
ATOM     17  C   UNL     1      47.421   5.569  14.021  0.00  0.00    +0.000 C 
ATOM     18  O   UNL     1      48.582   5.852  13.746  0.00  0.00    +0.000 OA
ATOM     19  H   UNL     1      46.104   4.984  15.476  0.00  0.00    +0.000 HD
BRANCH  17  20
ATOM     20  C   UNL     1      46.331   5.869  13.084  0.00  0.00    +0.000 A 
ATOM     21  C   UNL     1      46.061   7.188  12.747  0.00  0.00    +0.000 A 
ATOM     22  S   UNL     1      44.769   7.364  11.650  0.00  0.00    +0.000 S 
ATOM     23  C   UNL     1      44.497   5.686  11.619  0.00  0.00    +0.000 A 
ATOM     24  N   UNL     1      43.477   5.158  10.890  0.00  0.00    +0.000 NA
ATOM     25  C   UNL     1      43.367   3.875  10.980  0.00  0.00    +0.000 A 
ATOM     26  N   UNL     1      44.196   3.070  11.723  0.00  0.00    +0.000 N 
ATOM     27  C   UNL     1      45.261   3.554  12.437  0.00  0.00    +0.000 A 
ATOM     28  O   UNL     1      46.028   2.806  13.037  0.00  0.00    +0.000 OA
ATOM     29  C   UNL     1      45.404   4.997  12.403  0.00  0.00    +0.000 A 
ATOM     30  H   UNL     1      44.066   2.069  11.732  0.00  0.00    +0.000 HD
ENDBRANCH  17  20
ENDBRANCH   2  16
TORSDOF 5
ENDMDL
MODEL 6
REMARK VINA RESULT:    -6.694      3.665     10.592
REMARK INTER + INTRA:          -9.749
REMARK INTER:                  -8.650
REMARK INTRA:                  -1.099
REMARK UNBOUND:                -1.098
REMARK  Name = 
REMARK  6 active torsions:
REMARK  status: ('A' for Active; 'I' for Inactive)
REMARK    1  A    between atoms: C_1  and  C_2
REMARK    2  A    between atoms: C_2  and  N_3
REMARK    3  A    between atoms: C_2  and  C_16
REMARK    4  A    between atoms: C_4  and  C_6
REMARK    5  A    between atoms: C_19  and  C_20
REMARK    6  A    between atoms: C_20  and  N_21
REMARK                            x       y       z     vdW  Elec       q    Type
REMARK                         _______ _______ _______ _____ _____    ______ ____
ROOT
ATOM      1  C   UNL     1      48.995   7.817  11.593  0.00  0.00    +0.000 C 
ATOM      2  C   UNL     1      47.711   7.702  12.422  0.00  0.00    +0.000 C 
ENDROOT
BRANCH   2   3
ATOM      3  C   UNL     1      48.046   7.698  13.907  0.00  0.00    +0.000 A 
ATOM      4  C   UNL     1      48.427   6.514  14.552  0.00  0.00    +0.000 A 
ATOM      5  C   UNL     1      48.796   6.525  15.901  0.00  0.00    +0.000 A 
ATOM      6  C   UNL     1      48.801   7.721  16.632  0.00  0.00    +0.000 A 
ATOM      7  C   UNL     1      48.393   8.902  15.998  0.00  0.00    +0.000 A 
ATOM      8  C   UNL     1      48.019   8.889  14.653  0.00  0.00    +0.000 A 
BRANCH   6   9
ATOM      9  C   UNL     1      49.229   7.738  18.083  0.00  0.00    +0.000 C 
BRANCH   9  10
ATOM     10  N   UNL     1      48.655   6.644  18.900  0.00  0.00    +0.000 NA
ATOM     11  C   UNL     1      49.723   5.806  19.472  0.00  0.00    +0.000 C 
ATOM     12  C   UNL     1      49.209   4.766  20.470  0.00  0.00    +0.000 C 
ATOM     13  C   UNL     1      48.381   5.419  21.567  0.00  0.00    +0.000 C 
ATOM     14  C   UNL     1      47.247   6.209  20.934  0.00  0.00    +0.000 C 
ATOM     15  C   UNL     1      47.781   7.231  19.931  0.00  0.00    +0.000 C 
ENDBRANCH   9  10
ENDBRANCH   6   9
ENDBRANCH   2   3
BRANCH   2  16
ATOM     16  N   UNL     1      46.938   6.508  12.112  0.00  0.00    +0.000 N 
ATOM     17  C   UNL     1      45.569   6.463  12.154  0.00  0.00    +0.000 C 
ATOM     18  O   UNL     1      44.878   7.443  12.410  0.00  0.00    +0.000 OA
ATOM     19  H   UNL     1      47.437   5.628  12.211  0.00  0.00    +0.000 HD
BRANCH  17  20
ATOM     20  C   UNL     1      44.951   5.180  11.794  0.00  0.00    +0.000 A 
ATOM     21  C   UNL     1      44.230   4.476  12.747  0.00  0.00    +0.000 A 
ATOM     22  S   UNL     1      43.578   3.011  12.170  0.00  0.00    +0.000 S 
ATOM     23  C   UNL     1      44.274   3.245  10.636  0.00  0.00    +0.000 A 
ATOM     24  N   UNL     1      44.135   2.310   9.657  0.00  0.00    +0.000 NA
ATOM     25  C   UNL     1      44.737   2.603   8.553  0.00  0.00    +0.000 A 
ATOM     26  N   UNL     1      45.455   3.754   8.335  0.00  0.00    +0.000 N 
ATOM     27  C   UNL     1      45.583   4.741   9.277  0.00  0.00    +0.000 A 
ATOM     28  O   UNL     1      46.171   5.791   9.034  0.00  0.00    +0.000 OA
ATOM     29  C   UNL     1      44.959   4.443  10.552  0.00  0.00    +0.000 A 
ATOM     30  H   UNL     1      45.883   3.929   7.438  0.00  0.00    +0.000 HD
ENDBRANCH  17  20
ENDBRANCH   2  16
TORSDOF 5
ENDMDL
MODEL 7
REMARK VINA RESULT:    -6.687      4.534     10.492
REMARK INTER + INTRA:          -9.739
REMARK INTER:                  -8.771
REMARK INTRA:                  -0.968
REMARK UNBOUND:                -1.098
REMARK  Name = 
REMARK  6 active torsions:
REMARK  status: ('A' for Active; 'I' for Inactive)
REMARK    1  A    between atoms: C_1  and  C_2
REMARK    2  A    between atoms: C_2  and  N_3
REMARK    3  A    between atoms: C_2  and  C_16
REMARK    4  A    between atoms: C_4  and  C_6
REMARK    5  A    between atoms: C_19  and  C_20
REMARK    6  A    between atoms: C_20  and  N_21
REMARK                            x       y       z     vdW  Elec       q    Type
REMARK                         _______ _______ _______ _____ _____    ______ ____
ROOT
ATOM      1  C   UNL     1      49.666   7.636  12.606  0.00  0.00    +0.000 C 
ATOM      2  C   UNL     1      48.348   7.245  13.282  0.00  0.00    +0.000 C 
ENDROOT
BRANCH   2   3
ATOM      3  C   UNL     1      48.624   6.632  14.649  0.00  0.00    +0.000 A 
ATOM      4  C   UNL     1      47.837   5.580  15.135  0.00  0.00    +0.000 A 
ATOM      5  C   UNL     1      48.133   4.977  16.361  0.00  0.00    +0.000 A 
ATOM      6  C   UNL     1      49.228   5.406  17.124  0.00  0.00    +0.000 A 
ATOM      7  C   UNL     1      50.000   6.475  16.655  0.00  0.00    +0.000 A 
ATOM      8  C   UNL     1      49.700   7.082  15.433  0.00  0.00    +0.000 A 
BRANCH   6   9
ATOM      9  C   UNL     1      49.566   4.733  18.436  0.00  0.00    +0.000 C 
BRANCH   9  10
ATOM     10  N   UNL     1      49.208   5.525  19.637  0.00  0.00    +0.000 NA
ATOM     11  C   UNL     1      47.769   5.840  19.642  0.00  0.00    +0.000 C 
ATOM     12  C   UNL     1      47.298   6.501  20.940  0.00  0.00    +0.000 C 
ATOM     13  C   UNL     1      47.679   5.665  22.152  0.00  0.00    +0.000 C 
ATOM     14  C   UNL     1      49.182   5.431  22.147  0.00  0.00    +0.000 C 
ATOM     15  C   UNL     1      49.632   4.783  20.837  0.00  0.00    +0.000 C 
ENDBRANCH   9  10
ENDBRANCH   6   9
ENDBRANCH   2   3
BRANCH   2  16
ATOM     16  N   UNL     1      47.561   6.304  12.497  0.00  0.00    +0.000 N 
ATOM     17  C   UNL     1      46.461   6.666  11.765  0.00  0.00    +0.000 C 
ATOM     18  O   UNL     1      46.075   7.827  11.673  0.00  0.00    +0.000 OA
ATOM     19  H   UNL     1      47.631   5.331  12.785  0.00  0.00    +0.000 HD
BRANCH  17  20
ATOM     20  C   UNL     1      45.797   5.591  11.017  0.00  0.00    +0.000 A 
ATOM     21  C   UNL     1      45.893   5.559   9.633  0.00  0.00    +0.000 A 
ATOM     22  S   UNL     1      45.069   4.250   8.919  0.00  0.00    +0.000 S 
ATOM     23  C   UNL     1      44.518   3.703  10.432  0.00  0.00    +0.000 A 
ATOM     24  N   UNL     1      43.701   2.619  10.527  0.00  0.00    +0.000 NA
ATOM     25  C   UNL     1      43.336   2.332  11.731  0.00  0.00    +0.000 A 
ATOM     26  N   UNL     1      43.726   3.024  12.852  0.00  0.00    +0.000 N 
ATOM     27  C   UNL     1      44.581   4.094  12.807  0.00  0.00    +0.000 A 
ATOM     28  O   UNL     1      44.970   4.652  13.830  0.00  0.00    +0.000 OA
ATOM     29  C   UNL     1      44.989   4.484  11.471  0.00  0.00    +0.000 A 
ATOM     30  H   UNL     1      43.420   2.731  13.768  0.00  0.00    +0.000 HD
ENDBRANCH  17  20
ENDBRANCH   2  16
TORSDOF 5
ENDMDL
MODEL 8
REMARK VINA RESULT:    -6.427      5.755     11.688
REMARK INTER + INTRA:          -9.403
REMARK INTER:                  -8.250
REMARK INTRA:                  -1.153
REMARK UNBOUND:                -1.098
REMARK  Name = 
REMARK  6 active torsions:
REMARK  status: ('A' for Active; 'I' for Inactive)
REMARK    1  A    between atoms: C_1  and  C_2
REMARK    2  A    between atoms: C_2  and  N_3
REMARK    3  A    between atoms: C_2  and  C_16
REMARK    4  A    between atoms: C_4  and  C_6
REMARK    5  A    between atoms: C_19  and  C_20
REMARK    6  A    between atoms: C_20  and  N_21
REMARK                            x       y       z     vdW  Elec       q    Type
REMARK                         _______ _______ _______ _____ _____    ______ ____
ROOT
ATOM      1  C   UNL     1      47.328   2.991  17.381  0.00  0.00    +0.000 C 
ATOM      2  C   UNL     1      47.767   4.189  16.532  0.00  0.00    +0.000 C 
ENDROOT
BRANCH   2   3
ATOM      3  C   UNL     1      47.971   5.410  17.419  0.00  0.00    +0.000 A 
ATOM      4  C   UNL     1      48.725   6.503  16.972  0.00  0.00    +0.000 A 
ATOM      5  C   UNL     1      48.857   7.648  17.763  0.00  0.00    +0.000 A 
ATOM      6  C   UNL     1      48.231   7.730  19.015  0.00  0.00    +0.000 A 
ATOM      7  C   UNL     1      47.500   6.628  19.477  0.00  0.00    +0.000 A 
ATOM      8  C   UNL     1      47.374   5.482  18.690  0.00  0.00    +0.000 A 
BRANCH   6   9
ATOM      9  C   UNL     1      48.348   8.981  19.858  0.00  0.00    +0.000 C 
BRANCH   9  10
ATOM     10  N   UNL     1      47.206   9.915  19.724  0.00  0.00    +0.000 NA
ATOM     11  C   UNL     1      46.452   9.998  20.987  0.00  0.00    +0.000 C 
ATOM     12  C   UNL     1      45.368  11.078  20.976  0.00  0.00    +0.000 C 
ATOM     13  C   UNL     1      45.945  12.433  20.594  0.00  0.00    +0.000 C 
ATOM     14  C   UNL     1      46.645  12.317  19.249  0.00  0.00    +0.000 C 
ATOM     15  C   UNL     1      47.714  11.224  19.278  0.00  0.00    +0.000 C 
ENDBRANCH   9  10
ENDBRANCH   6   9
ENDBRANCH   2   3
BRANCH   2  16
ATOM     16  N   UNL     1      46.813   4.526  15.485  0.00  0.00    +0.000 N 
ATOM     17  C   UNL     1      46.885   4.027  14.210  0.00  0.00    +0.000 C 
ATOM     18  O   UNL     1      47.735   3.216  13.859  0.00  0.00    +0.000 OA
ATOM     19  H   UNL     1      46.312   5.400  15.617  0.00  0.00    +0.000 HD
BRANCH  17  20
ATOM     20  C   UNL     1      45.829   4.458  13.285  0.00  0.00    +0.000 A 
ATOM     21  C   UNL     1      44.952   3.519  12.762  0.00  0.00    +0.000 A 
ATOM     22  S   UNL     1      43.788   4.180  11.707  0.00  0.00    +0.000 S 
ATOM     23  C   UNL     1      44.442   5.741  11.880  0.00  0.00    +0.000 A 
ATOM     24  N   UNL     1      43.926   6.793  11.189  0.00  0.00    +0.000 NA
ATOM     25  C   UNL     1      44.537   7.913  11.392  0.00  0.00    +0.000 A 
ATOM     26  N   UNL     1      45.608   8.077  12.236  0.00  0.00    +0.000 N 
ATOM     27  C   UNL     1      46.132   7.055  12.983  0.00  0.00    +0.000 A 
ATOM     28  O   UNL     1      47.045   7.243  13.782  0.00  0.00    +0.000 OA
ATOM     29  C   UNL     1      45.508   5.764  12.761  0.00  0.00    +0.000 A 
ATOM     30  H   UNL     1      46.025   8.988  12.364  0.00  0.00    +0.000 HD
ENDBRANCH  17  20
ENDBRANCH   2  16
TORSDOF 5
ENDMDL
MODEL 9
REMARK VINA RESULT:    -6.289      3.701      6.632
REMARK INTER + INTRA:          -9.226
REMARK INTER:                  -8.156
REMARK INTRA:                  -1.070
REMARK UNBOUND:                -1.098
REMARK  Name = 
REMARK  6 active torsions:
REMARK  status: ('A' for Active; 'I' for Inactive)
REMARK    1  A    between atoms: C_1  and  C_2
REMARK    2  A    between atoms: C_2  and  N_3
REMARK    3  A    between atoms: C_2  and  C_16
REMARK    4  A    between atoms: C_4  and  C_6
REMARK    5  A    between atoms: C_19  and  C_20
REMARK    6  A    between atoms: C_20  and  N_21
REMARK                            x       y       z     vdW  Elec       q    Type
REMARK                         _______ _______ _______ _____ _____    ______ ____
ROOT
ATOM      1  C   UNL     1      48.424   9.458  14.408  0.00  0.00    +0.000 C 
ATOM      2  C   UNL     1      48.526   7.933  14.520  0.00  0.00    +0.000 C 
ENDROOT
BRANCH   2   3
ATOM      3  C   UNL     1      47.476   7.273  13.637  0.00  0.00    +0.000 A 
ATOM      4  C   UNL     1      46.613   8.045  12.849  0.00  0.00    +0.000 A 
ATOM      5  C   UNL     1      45.694   7.435  11.991  0.00  0.00    +0.000 A 
ATOM      6  C   UNL     1      45.624   6.038  11.893  0.00  0.00    +0.000 A 
ATOM      7  C   UNL     1      46.466   5.262  12.700  0.00  0.00    +0.000 A 
ATOM      8  C   UNL     1      47.379   5.872  13.562  0.00  0.00    +0.000 A 
BRANCH   6   9
ATOM      9  C   UNL     1      44.650   5.378  10.942  0.00  0.00    +0.000 C 
BRANCH   9  10
ATOM     10  N   UNL     1      45.247   4.313  10.101  0.00  0.00    +0.000 NA
ATOM     11  C   UNL     1      44.283   3.220   9.885  0.00  0.00    +0.000 C 
ATOM     12  C   UNL     1      44.770   2.173   8.880  0.00  0.00    +0.000 C 
ATOM     13  C   UNL     1      45.168   2.819   7.562  0.00  0.00    +0.000 C 
ATOM     14  C   UNL     1      46.219   3.886   7.825  0.00  0.00    +0.000 C 
ATOM     15  C   UNL     1      45.718   4.912   8.841  0.00  0.00    +0.000 C 
ENDBRANCH   9  10
ENDBRANCH   6   9
ENDBRANCH   2   3
BRANCH   2  16
ATOM     16  N   UNL     1      48.361   7.450  15.884  0.00  0.00    +0.000 N 
ATOM     17  C   UNL     1      49.279   6.656  16.520  0.00  0.00    +0.000 C 
ATOM     18  O   UNL     1      50.343   6.325  16.007  0.00  0.00    +0.000 OA
ATOM     19  H   UNL     1      47.402   7.418  16.222  0.00  0.00    +0.000 HD
BRANCH  17  20
ATOM     20  C   UNL     1      48.961   6.275  17.903  0.00  0.00    +0.000 A 
ATOM     21  C   UNL     1      49.151   4.964  18.312  0.00  0.00    +0.000 A 
ATOM     22  S   UNL     1      48.735   4.688  19.942  0.00  0.00    +0.000 S 
ATOM     23  C   UNL     1      48.246   6.304  20.146  0.00  0.00    +0.000 A 
ATOM     24  N   UNL     1      47.729   6.732  21.329  0.00  0.00    +0.000 NA
ATOM     25  C   UNL     1      47.373   7.973  21.335  0.00  0.00    +0.000 A 
ATOM     26  N   UNL     1      47.500   8.829  20.268  0.00  0.00    +0.000 N 
ATOM     27  C   UNL     1      48.055   8.451  19.073  0.00  0.00    +0.000 A 
ATOM     28  O   UNL     1      48.222   9.253  18.158  0.00  0.00    +0.000 OA
ATOM     29  C   UNL     1      48.435   7.054  18.999  0.00  0.00    +0.000 A 
ATOM     30  H   UNL     1      47.221   9.795  20.350  0.00  0.00    +0.000 HD
ENDBRANCH  17  20
ENDBRANCH   2  16
TORSDOF 5
ENDMDL
