MODEL 1
REMARK VINA RESULT:    -8.092      0.000      0.000
REMARK INTER + INTRA:         -13.024
REMARK INTER:                 -11.877
REMARK INTRA:                  -1.148
REMARK UNBOUND:                -1.148
REMARK  Name = 
REMARK  9 active torsions:
REMARK  status: ('A' for Active; 'I' for Inactive)
REMARK    1  A    between atoms: C_1  and  C_2
REMARK    2  A    between atoms: C_2  and  C_3
REMARK    3  A    between atoms: C_3  and  N_4
REMARK    4  A    between atoms: C_3  and  C_26
REMARK    5  A    between atoms: N_4  and  C_5
REMARK    6  A    between atoms: C_5  and  C_6
REMARK    7  A    between atoms: C_10  and  C_11
REMARK    8  A    between atoms: C_11  and  N_12
REMARK    9  A    between atoms: C_13  and  C_15
REMARK                            x       y       z     vdW  Elec       q    Type
REMARK                         _______ _______ _______ _____ _____    ______ ____
ROOT
ATOM      1  C   UNL     1      45.493   6.203  12.114  0.00  0.00    +0.000 A 
ATOM      2  C   UNL     1      46.675   6.880  11.781  0.00  0.00    +0.000 A 
ATOM      3  C   UNL     1      47.842   6.678  12.517  0.00  0.00    +0.000 A 
ATOM      4  C   UNL     1      47.837   5.820  13.615  0.00  0.00    +0.000 A 
ATOM      5  C   UNL     1      46.659   5.163  13.997  0.00  0.00    +0.000 A 
ATOM      6  C   UNL     1      45.501   5.338  13.222  0.00  0.00    +0.000 A 
ENDROOT
BRANCH   1   7
ATOM      7  C   UNL     1      44.206   6.485  11.369  0.00  0.00    +0.000 C 
BRANCH   7   8
ATOM      8  N   UNL     1      43.943   5.504  10.313  0.00  0.00    +0.000 NA
ATOM      9  H   UNL     1      44.354   5.859   9.448  0.00  0.00    +0.000 HD
BRANCH   8  10
ATOM     10  C   UNL     1      44.525   4.174  10.588  0.00  0.00    +0.000 C 
BRANCH  10  11
ATOM     11  C   UNL     1      45.298   3.713   9.361  0.00  0.00    +0.000 A 
ATOM     12  C   UNL     1      45.483   2.358   9.056  0.00  0.00    +0.000 A 
ATOM     13  C   UNL     1      46.162   1.989   7.896  0.00  0.00    +0.000 A 
ATOM     14  C   UNL     1      46.644   2.991   7.072  0.00  0.00    +0.000 A 
ATOM     15  N   UNL     1      46.504   4.307   7.335  0.00  0.00    +0.000 NA
ATOM     16  C   UNL     1      45.839   4.636   8.468  0.00  0.00    +0.000 A 
ENDBRANCH  10  11
BRANCH  10  18
ATOM     17  C   UNL     1      43.518   2.770  12.491  0.00  0.00    +0.000 C 
ATOM     18  C   UNL     1      43.456   3.141  11.014  0.00  0.00    +0.000 C 
ENDBRANCH  10  18
ENDBRANCH   8  10
ENDBRANCH   7   8
ENDBRANCH   1   7
BRANCH   5  19
ATOM     19  C   UNL     1      46.642   4.286  15.221  0.00  0.00    +0.000 C 
BRANCH  19  20
ATOM     20  N   UNL     1      47.951   4.174  15.809  0.00  0.00    +0.000 N 
ATOM     21  C   UNL     1      48.147   4.407  17.146  0.00  0.00    +0.000 C 
ATOM     22  O   UNL     1      47.215   4.660  17.907  0.00  0.00    +0.000 OA
ATOM     23  H   UNL     1      48.741   4.215  15.174  0.00  0.00    +0.000 HD
BRANCH  21  24
ATOM     24  C   UNL     1      49.523   4.273  17.640  0.00  0.00    +0.000 A 
ATOM     25  C   UNL     1      50.105   5.317  18.346  0.00  0.00    +0.000 A 
ATOM     26  S   UNL     1      51.674   4.966  18.918  0.00  0.00    +0.000 S 
ATOM     27  C   UNL     1      51.651   3.426  18.193  0.00  0.00    +0.000 A 
ATOM     28  N   UNL     1      52.719   2.590  18.294  0.00  0.00    +0.000 NA
ATOM     29  C   UNL     1      52.578   1.468  17.672  0.00  0.00    +0.000 A 
ATOM     30  N   UNL     1      51.470   1.105  16.957  0.00  0.00    +0.000 N 
ATOM     31  C   UNL     1      50.358   1.908  16.844  0.00  0.00    +0.000 A 
ATOM     32  O   UNL     1      49.369   1.544  16.216  0.00  0.00    +0.000 OA
ATOM     33  C   UNL     1      50.462   3.181  17.530  0.00  0.00    +0.000 A 
ATOM     34  H   UNL     1      51.420   0.209  16.496  0.00  0.00    +0.000 HD
ENDBRANCH  21  24
ENDBRANCH  19  20
ENDBRANCH   5  19
TORSDOF 8
ENDMDL
MODEL 2
REMARK VINA RESULT:    -7.801      2.196      3.040
REMARK INTER + INTRA:         -12.597
REMARK INTER:                 -11.068
REMARK INTRA:                  -1.529
REMARK UNBOUND:                -1.148
REMARK  Name = 
REMARK  9 active torsions:
REMARK  status: ('A' for Active; 'I' for Inactive)
REMARK    1  A    between atoms: C_1  and  C_2
REMARK    2  A    between atoms: C_2  and  C_3
REMARK    3  A    between atoms: C_3  and  N_4
REMARK    4  A    between atoms: C_3  and  C_26
REMARK    5  A    between atoms: N_4  and  C_5
REMARK    6  A    between atoms: C_5  and  C_6
REMARK    7  A    between atoms: C_10  and  C_11
REMARK    8  A    between atoms: C_11  and  N_12
REMARK    9  A    between atoms: C_13  and  C_15
REMARK                            x       y       z     vdW  Elec       q    Type
REMARK                         _______ _______ _______ _____ _____    ______ ____
ROOT
ATOM      1  C   UNL     1      45.117   7.412  11.714  0.00  0.00    +0.000 A 
ATOM      2  C   UNL     1      44.790   8.775  11.765  0.00  0.00    +0.000 A 
ATOM      3  C   UNL     1      45.781   9.738  11.954  0.00  0.00    +0.000 A 
ATOM      4  C   UNL     1      47.109   9.349  12.124  0.00  0.00    +0.000 A 
ATOM      5  C   UNL     1      47.459   7.992  12.120  0.00  0.00    +0.000 A 
ATOM      6  C   UNL     1      46.459   7.034  11.885  0.00  0.00    +0.000 A 
ENDROOT
BRANCH   1   7
ATOM      7  C   UNL     1      44.032   6.363  11.595  0.00  0.00    +0.000 C 
BRANCH   7   8
ATOM      8  N   UNL     1      44.152   5.569  10.370  0.00  0.00    +0.000 NA
ATOM      9  H   UNL     1      44.813   6.045   9.753  0.00  0.00    +0.000 HD
BRANCH   8  10
ATOM     10  C   UNL     1      44.647   4.197  10.605  0.00  0.00    +0.000 C 
BRANCH  10  11
ATOM     11  C   UNL     1      45.355   3.707   9.350  0.00  0.00    +0.000 A 
ATOM     12  C   UNL     1      45.523   2.346   9.065  0.00  0.00    +0.000 A 
ATOM     13  C   UNL     1      46.139   1.951   7.880  0.00  0.00    +0.000 A 
ATOM     14  C   UNL     1      46.578   2.934   7.010  0.00  0.00    +0.000 A 
ATOM     15  N   UNL     1      46.453   4.255   7.250  0.00  0.00    +0.000 NA
ATOM     16  C   UNL     1      45.848   4.609   8.410  0.00  0.00    +0.000 A 
ENDBRANCH  10  11
BRANCH  10  18
ATOM     17  C   UNL     1      43.570   2.861  12.519  0.00  0.00    +0.000 C 
ATOM     18  C   UNL     1      43.520   3.232  11.041  0.00  0.00    +0.000 C 
ENDBRANCH  10  18
ENDBRANCH   8  10
ENDBRANCH   7   8
ENDBRANCH   1   7
BRANCH   5  19
ATOM     19  C   UNL     1      48.884   7.575  12.367  0.00  0.00    +0.000 C 
BRANCH  19  20
ATOM     20  N   UNL     1      49.004   6.788  13.566  0.00  0.00    +0.000 N 
ATOM     21  C   UNL     1      49.083   7.385  14.798  0.00  0.00    +0.000 C 
ATOM     22  O   UNL     1      48.994   8.603  14.939  0.00  0.00    +0.000 OA
ATOM     23  H   UNL     1      49.322   5.831  13.453  0.00  0.00    +0.000 HD
BRANCH  21  24
ATOM     24  C   UNL     1      49.211   6.488  15.953  0.00  0.00    +0.000 A 
ATOM     25  C   UNL     1      50.188   6.732  16.909  0.00  0.00    +0.000 A 
ATOM     26  S   UNL     1      50.145   5.648  18.225  0.00  0.00    +0.000 S 
ATOM     27  C   UNL     1      48.855   4.778  17.536  0.00  0.00    +0.000 A 
ATOM     28  N   UNL     1      48.330   3.692  18.163  0.00  0.00    +0.000 NA
ATOM     29  C   UNL     1      47.377   3.110  17.513  0.00  0.00    +0.000 A 
ATOM     30  N   UNL     1      46.902   3.513  16.295  0.00  0.00    +0.000 N 
ATOM     31  C   UNL     1      47.388   4.618  15.633  0.00  0.00    +0.000 A 
ATOM     32  O   UNL     1      46.924   4.968  14.553  0.00  0.00    +0.000 OA
ATOM     33  C   UNL     1      48.458   5.312  16.322  0.00  0.00    +0.000 A 
ATOM     34  H   UNL     1      46.150   3.017  15.841  0.00  0.00    +0.000 HD
ENDBRANCH  21  24
ENDBRANCH  19  20
ENDBRANCH   5  19
TORSDOF 8
ENDMDL
MODEL 3
REMARK VINA RESULT:    -7.632      4.372      7.289
REMARK INTER + INTRA:         -12.349
REMARK INTER:                 -10.329
REMARK INTRA:                  -2.020
REMARK UNBOUND:                -1.148
REMARK  Name = 
REMARK  9 active torsions:
REMARK  status: ('A' for Active; 'I' for Inactive)
REMARK    1  A    between atoms: C_1  and  C_2
REMARK    2  A    between atoms: C_2  and  C_3
REMARK    3  A    between atoms: C_3  and  N_4
REMARK    4  A    between atoms: C_3  and  C_26
REMARK    5  A    between atoms: N_4  and  C_5
REMARK    6  A    between atoms: C_5  and  C_6
REMARK    7  A    between atoms: C_10  and  C_11
REMARK    8  A    between atoms: C_11  and  N_12
REMARK    9  A    between atoms: C_13  and  C_15
REMARK                            x       y       z     vdW  Elec       q    Type
REMARK                         _______ _______ _______ _____ _____    ______ ____
ROOT
ATOM      1  C   UNL     1      46.926   4.680  14.219  0.00  0.00    +0.000 A 
ATOM      2  C   UNL     1      47.356   4.211  15.469  0.00  0.00    +0.000 A 
ATOM      3  C   UNL     1      48.159   5.004  16.288  0.00  0.00    +0.000 A 
ATOM      4  C   UNL     1      48.568   6.265  15.856  0.00  0.00    +0.000 A 
ATOM      5  C   UNL     1      48.189   6.741  14.594  0.00  0.00    +0.000 A 
ATOM      6  C   UNL     1      47.343   5.953  13.796  0.00  0.00    +0.000 A 
ENDROOT
BRANCH   1   7
ATOM      7  C   UNL     1      46.126   3.787  13.295  0.00  0.00    +0.000 C 
BRANCH   7   8
ATOM      8  N   UNL     1      45.478   4.536  12.214  0.00  0.00    +0.000 NA
ATOM      9  H   UNL     1      46.207   4.849  11.571  0.00  0.00    +0.000 HD
BRANCH   8  10
ATOM     10  C   UNL     1      44.501   3.735  11.448  0.00  0.00    +0.000 C 
BRANCH  10  11
ATOM     11  C   UNL     1      45.024   3.542  10.032  0.00  0.00    +0.000 A 
ATOM     12  C   UNL     1      45.423   4.617   9.226  0.00  0.00    +0.000 A 
ATOM     13  C   UNL     1      45.936   4.381   7.953  0.00  0.00    +0.000 A 
ATOM     14  C   UNL     1      46.032   3.071   7.516  0.00  0.00    +0.000 A 
ATOM     15  N   UNL     1      45.644   2.008   8.250  0.00  0.00    +0.000 NA
ATOM     16  C   UNL     1      45.150   2.267   9.485  0.00  0.00    +0.000 A 
ENDBRANCH  10  11
BRANCH  10  18
ATOM     17  C   UNL     1      42.776   5.151  12.726  0.00  0.00    +0.000 C 
ATOM     18  C   UNL     1      43.089   4.367  11.456  0.00  0.00    +0.000 C 
ENDBRANCH  10  18
ENDBRANCH   8  10
ENDBRANCH   7   8
ENDBRANCH   1   7
BRANCH   5  19
ATOM     19  C   UNL     1      48.685   8.077  14.106  0.00  0.00    +0.000 C 
BRANCH  19  20
ATOM     20  N   UNL     1      47.609   8.886  13.598  0.00  0.00    +0.000 N 
ATOM     21  C   UNL     1      47.698   9.489  12.369  0.00  0.00    +0.000 C 
ATOM     22  O   UNL     1      48.664   9.319  11.628  0.00  0.00    +0.000 OA
ATOM     23  H   UNL     1      46.938   9.232  14.276  0.00  0.00    +0.000 HD
BRANCH  21  24
ATOM     24  C   UNL     1      46.547  10.299  11.952  0.00  0.00    +0.000 A 
ATOM     25  C   UNL     1      46.650  11.683  11.933  0.00  0.00    +0.000 A 
ATOM     26  S   UNL     1      45.252  12.465  11.344  0.00  0.00    +0.000 S 
ATOM     27  C   UNL     1      44.440  10.983  11.147  0.00  0.00    +0.000 A 
ATOM     28  N   UNL     1      43.165  10.942  10.677  0.00  0.00    +0.000 NA
ATOM     29  C   UNL     1      42.660   9.755  10.607  0.00  0.00    +0.000 A 
ATOM     30  N   UNL     1      43.312   8.607  10.965  0.00  0.00    +0.000 N 
ATOM     31  C   UNL     1      44.610   8.598  11.426  0.00  0.00    +0.000 A 
ATOM     32  O   UNL     1      45.175   7.548  11.715  0.00  0.00    +0.000 OA
ATOM     33  C   UNL     1      45.226   9.907  11.519  0.00  0.00    +0.000 A 
ATOM     34  H   UNL     1      42.864   7.708  10.882  0.00  0.00    +0.000 HD
ENDBRANCH  21  24
ENDBRANCH  19  20
ENDBRANCH   5  19
TORSDOF 8
ENDMDL
MODEL 4
REMARK VINA RESULT:    -7.601      2.868      3.456
REMARK INTER + INTRA:         -12.303
REMARK INTER:                 -11.198
REMARK INTRA:                  -1.106
REMARK UNBOUND:                -1.148
REMARK  Name = 
REMARK  9 active torsions:
REMARK  status: ('A' for Active; 'I' for Inactive)
REMARK    1  A    between atoms: C_1  and  C_2
REMARK    2  A    between atoms: C_2  and  C_3
REMARK    3  A    between atoms: C_3  and  N_4
REMARK    4  A    between atoms: C_3  and  C_26
REMARK    5  A    between atoms: N_4  and  C_5
REMARK    6  A    between atoms: C_5  and  C_6
REMARK    7  A    between atoms: C_10  and  C_11
REMARK    8  A    between atoms: C_11  and  N_12
REMARK    9  A    between atoms: C_13  and  C_15
REMARK                            x       y       z     vdW  Elec       q    Type
REMARK                         _______ _______ _______ _____ _____    ______ ____
ROOT
ATOM      1  C   UNL     1      44.521   6.729  11.554  0.00  0.00    +0.000 A 
ATOM      2  C   UNL     1      44.629   8.122  11.431  0.00  0.00    +0.000 A 
ATOM      3  C   UNL     1      45.722   8.802  11.968  0.00  0.00    +0.000 A 
ATOM      4  C   UNL     1      46.707   8.102  12.663  0.00  0.00    +0.000 A 
ATOM      5  C   UNL     1      46.604   6.715  12.839  0.00  0.00    +0.000 A 
ATOM      6  C   UNL     1      45.522   6.035  12.255  0.00  0.00    +0.000 A 
ENDROOT
BRANCH   1   7
ATOM      7  C   UNL     1      43.294   6.003  11.045  0.00  0.00    +0.000 C 
BRANCH   7   8
ATOM      8  N   UNL     1      43.605   5.071   9.959  0.00  0.00    +0.000 NA
ATOM      9  H   UNL     1      44.137   5.582   9.252  0.00  0.00    +0.000 HD
BRANCH   8  10
ATOM     10  C   UNL     1      44.410   3.910  10.392  0.00  0.00    +0.000 C 
BRANCH  10  11
ATOM     11  C   UNL     1      45.217   3.400   9.206  0.00  0.00    +0.000 A 
ATOM     12  C   UNL     1      45.790   4.261   8.262  0.00  0.00    +0.000 A 
ATOM     13  C   UNL     1      46.556   3.744   7.219  0.00  0.00    +0.000 A 
ATOM     14  C   UNL     1      46.723   2.372   7.147  0.00  0.00    +0.000 A 
ATOM     15  N   UNL     1      46.176   1.505   8.023  0.00  0.00    +0.000 NA
ATOM     16  C   UNL     1      45.438   2.036   9.027  0.00  0.00    +0.000 A 
ENDBRANCH  10  11
BRANCH  10  18
ATOM     17  C   UNL     1      43.557   2.788  12.542  0.00  0.00    +0.000 C 
ATOM     18  C   UNL     1      43.542   2.793  11.018  0.00  0.00    +0.000 C 
ENDBRANCH  10  18
ENDBRANCH   8  10
ENDBRANCH   7   8
ENDBRANCH   1   7
BRANCH   5  19
ATOM     19  C   UNL     1      47.637   5.973  13.643  0.00  0.00    +0.000 C 
BRANCH  19  20
ATOM     20  N   UNL     1      47.710   6.466  14.993  0.00  0.00    +0.000 N 
ATOM     21  C   UNL     1      48.915   6.795  15.560  0.00  0.00    +0.000 C 
ATOM     22  O   UNL     1      49.969   6.743  14.929  0.00  0.00    +0.000 OA
ATOM     23  H   UNL     1      46.911   6.281  15.590  0.00  0.00    +0.000 HD
BRANCH  21  24
ATOM     24  C   UNL     1      48.875   7.280  16.946  0.00  0.00    +0.000 A 
ATOM     25  C   UNL     1      49.452   8.503  17.263  0.00  0.00    +0.000 A 
ATOM     26  S   UNL     1      49.244   8.955  18.895  0.00  0.00    +0.000 S 
ATOM     27  C   UNL     1      48.425   7.506  19.248  0.00  0.00    +0.000 A 
ATOM     28  N   UNL     1      47.972   7.246  20.503  0.00  0.00    +0.000 NA
ATOM     29  C   UNL     1      47.397   6.097  20.636  0.00  0.00    +0.000 A 
ATOM     30  N   UNL     1      47.233   5.185  19.631  0.00  0.00    +0.000 N 
ATOM     31  C   UNL     1      47.656   5.412  18.340  0.00  0.00    +0.000 A 
ATOM     32  O   UNL     1      47.472   4.583  17.455  0.00  0.00    +0.000 OA
ATOM     33  C   UNL     1      48.306   6.692  18.135  0.00  0.00    +0.000 A 
ATOM     34  H   UNL     1      46.769   4.305  19.798  0.00  0.00    +0.000 HD
ENDBRANCH  21  24
ENDBRANCH  19  20
ENDBRANCH   5  19
TORSDOF 8
ENDMDL
MODEL 5
REMARK VINA RESULT:    -7.560      3.328      8.721
REMARK INTER + INTRA:         -12.244
REMARK INTER:                 -10.928
REMARK INTRA:                  -1.316
REMARK UNBOUND:                -1.148
REMARK  Name = 
REMARK  9 active torsions:
REMARK  status: ('A' for Active; 'I' for Inactive)
REMARK    1  A    between atoms: C_1  and  C_2
REMARK    2  A    between atoms: C_2  and  C_3
REMARK    3  A    between atoms: C_3  and  N_4
REMARK    4  A    between atoms: C_3  and  C_26
REMARK    5  A    between atoms: N_4  and  C_5
REMARK    6  A    between atoms: C_5  and  C_6
REMARK    7  A    between atoms: C_10  and  C_11
REMARK    8  A    between atoms: C_11  and  N_12
REMARK    9  A    between atoms: C_13  and  C_15
REMARK                            x       y       z     vdW  Elec       q    Type
REMARK                         _______ _______ _______ _____ _____    ______ ____
ROOT
ATOM      1  C   UNL     1      49.175   6.994  15.162  0.00  0.00    +0.000 A 
ATOM      2  C   UNL     1      50.439   7.577  14.995  0.00  0.00    +0.000 A 
ATOM      3  C   UNL     1      50.745   8.294  13.838  0.00  0.00    +0.000 A 
ATOM      4  C   UNL     1      49.801   8.413  12.819  0.00  0.00    +0.000 A 
ATOM      5  C   UNL     1      48.545   7.804  12.941  0.00  0.00    +0.000 A 
ATOM      6  C   UNL     1      48.231   7.123  14.128  0.00  0.00    +0.000 A 
ENDROOT
BRANCH   1   7
ATOM      7  C   UNL     1      48.872   6.145  16.378  0.00  0.00    +0.000 C 
BRANCH   7   8
ATOM      8  N   UNL     1      49.986   5.265  16.739  0.00  0.00    +0.000 NA
ATOM      9  H   UNL     1      50.607   5.787  17.360  0.00  0.00    +0.000 HD
BRANCH   8  10
ATOM     10  C   UNL     1      49.561   4.036  17.440  0.00  0.00    +0.000 C 
BRANCH  10  11
ATOM     11  C   UNL     1      50.762   3.113  17.588  0.00  0.00    +0.000 A 
ATOM     12  C   UNL     1      51.966   3.535  18.166  0.00  0.00    +0.000 A 
ATOM     13  C   UNL     1      53.020   2.637  18.318  0.00  0.00    +0.000 A 
ATOM     14  C   UNL     1      52.842   1.336  17.880  0.00  0.00    +0.000 A 
ATOM     15  N   UNL     1      51.707   0.891  17.302  0.00  0.00    +0.000 NA
ATOM     16  C   UNL     1      50.699   1.786  17.169  0.00  0.00    +0.000 A 
ENDBRANCH  10  11
BRANCH  10  18
ATOM     17  C   UNL     1      47.233   2.966  17.661  0.00  0.00    +0.000 C 
ATOM     18  C   UNL     1      48.382   3.331  16.727  0.00  0.00    +0.000 C 
ENDBRANCH  10  18
ENDBRANCH   8  10
ENDBRANCH   7   8
ENDBRANCH   1   7
BRANCH   5  19
ATOM     19  C   UNL     1      47.551   7.882  11.812  0.00  0.00    +0.000 C 
BRANCH  19  20
ATOM     20  N   UNL     1      46.888   6.622  11.604  0.00  0.00    +0.000 N 
ATOM     21  C   UNL     1      45.522   6.524  11.668  0.00  0.00    +0.000 C 
ATOM     22  O   UNL     1      44.805   7.507  11.842  0.00  0.00    +0.000 OA
ATOM     23  H   UNL     1      47.454   5.786  11.708  0.00  0.00    +0.000 HD
BRANCH  21  24
ATOM     24  C   UNL     1      44.950   5.189  11.449  0.00  0.00    +0.000 A 
ATOM     25  C   UNL     1      44.266   4.557  12.478  0.00  0.00    +0.000 A 
ATOM     26  S   UNL     1      43.594   3.053  12.031  0.00  0.00    +0.000 S 
ATOM     27  C   UNL     1      44.243   3.169  10.463  0.00  0.00    +0.000 A 
ATOM     28  N   UNL     1      44.045   2.181   9.549  0.00  0.00    +0.000 NA
ATOM     29  C   UNL     1      44.619   2.385   8.410  0.00  0.00    +0.000 A 
ATOM     30  N   UNL     1      45.373   3.483   8.101  0.00  0.00    +0.000 N 
ATOM     31  C   UNL     1      45.583   4.517   8.985  0.00  0.00    +0.000 A 
ATOM     32  O   UNL     1      46.245   5.501   8.669  0.00  0.00    +0.000 OA
ATOM     33  C   UNL     1      44.956   4.341  10.280  0.00  0.00    +0.000 A 
ATOM     34  H   UNL     1      45.791   3.586   7.189  0.00  0.00    +0.000 HD
ENDBRANCH  21  24
ENDBRANCH  19  20
ENDBRANCH   5  19
TORSDOF 8
ENDMDL
MODEL 6
REMARK VINA RESULT:    -7.383      2.272      3.303
REMARK INTER + INTRA:         -11.983
REMARK INTER:                 -10.653
REMARK INTRA:                  -1.331
REMARK UNBOUND:                -1.148
REMARK  Name = 
REMARK  9 active torsions:
REMARK  status: ('A' for Active; 'I' for Inactive)
REMARK    1  A    between atoms: C_1  and  C_2
REMARK    2  A    between atoms: C_2  and  C_3
REMARK    3  A    between atoms: C_3  and  N_4
REMARK    4  A    between atoms: C_3  and  C_26
REMARK    5  A    between atoms: N_4  and  C_5
REMARK    6  A    between atoms: C_5  and  C_6
REMARK    7  A    between atoms: C_10  and  C_11
REMARK    8  A    between atoms: C_11  and  N_12
REMARK    9  A    between atoms: C_13  and  C_15
REMARK                            x       y       z     vdW  Elec       q    Type
REMARK                         _______ _______ _______ _____ _____    ______ ____
ROOT
ATOM      1  C   UNL     1      45.501   6.339  12.119  0.00  0.00    +0.000 A 
ATOM      2  C   UNL     1      46.595   7.132  11.747  0.00  0.00    +0.000 A 
ATOM      3  C   UNL     1      47.831   6.981  12.375  0.00  0.00    +0.000 A 
ATOM      4  C   UNL     1      47.982   6.055  13.406  0.00  0.00    +0.000 A 
ATOM      5  C   UNL     1      46.894   5.279  13.829  0.00  0.00    +0.000 A 
ATOM      6  C   UNL     1      45.667   5.407  13.159  0.00  0.00    +0.000 A 
ENDROOT
BRANCH   1   7
ATOM      7  C   UNL     1      44.140   6.561  11.496  0.00  0.00    +0.000 C 
BRANCH   7   8
ATOM      8  N   UNL     1      43.844   5.596  10.435  0.00  0.00    +0.000 NA
ATOM      9  H   UNL     1      44.266   5.943   9.571  0.00  0.00    +0.000 HD
BRANCH   8  10
ATOM     10  C   UNL     1      44.384   4.246  10.700  0.00  0.00    +0.000 C 
BRANCH  10  11
ATOM     11  C   UNL     1      45.165   3.779   9.481  0.00  0.00    +0.000 A 
ATOM     12  C   UNL     1      45.315   2.424   9.159  0.00  0.00    +0.000 A 
ATOM     13  C   UNL     1      46.003   2.052   8.006  0.00  0.00    +0.000 A 
ATOM     14  C   UNL     1      46.530   3.051   7.206  0.00  0.00    +0.000 A 
ATOM     15  N   UNL     1      46.426   4.366   7.486  0.00  0.00    +0.000 NA
ATOM     16  C   UNL     1      45.750   4.698   8.612  0.00  0.00    +0.000 A 
ENDBRANCH  10  11
BRANCH  10  18
ATOM     17  C   UNL     1      43.561   2.494  12.393  0.00  0.00    +0.000 C 
ATOM     18  C   UNL     1      43.277   3.238  11.093  0.00  0.00    +0.000 C 
ENDBRANCH  10  18
ENDBRANCH   8  10
ENDBRANCH   7   8
ENDBRANCH   1   7
BRANCH   5  19
ATOM     19  C   UNL     1      47.046   4.325  14.984  0.00  0.00    +0.000 C 
BRANCH  19  20
ATOM     20  N   UNL     1      47.348   5.021  16.207  0.00  0.00    +0.000 N 
ATOM     21  C   UNL     1      48.413   4.648  16.987  0.00  0.00    +0.000 C 
ATOM     22  O   UNL     1      49.186   3.753  16.650  0.00  0.00    +0.000 OA
ATOM     23  H   UNL     1      46.602   5.575  16.613  0.00  0.00    +0.000 HD
BRANCH  21  24
ATOM     24  C   UNL     1      48.626   5.420  18.217  0.00  0.00    +0.000 A 
ATOM     25  C   UNL     1      48.602   4.776  19.447  0.00  0.00    +0.000 A 
ATOM     26  S   UNL     1      48.951   5.802  20.764  0.00  0.00    +0.000 S 
ATOM     27  C   UNL     1      49.090   7.156  19.743  0.00  0.00    +0.000 A 
ATOM     28  N   UNL     1      49.372   8.387  20.247  0.00  0.00    +0.000 NA
ATOM     29  C   UNL     1      49.417   9.328  19.363  0.00  0.00    +0.000 A 
ATOM     30  N   UNL     1      49.206   9.152  18.023  0.00  0.00    +0.000 N 
ATOM     31  C   UNL     1      48.938   7.922  17.465  0.00  0.00    +0.000 A 
ATOM     32  O   UNL     1      48.777   7.793  16.256  0.00  0.00    +0.000 OA
ATOM     33  C   UNL     1      48.880   6.828  18.414  0.00  0.00    +0.000 A 
ATOM     34  H   UNL     1      49.261   9.929  17.383  0.00  0.00    +0.000 HD
ENDBRANCH  21  24
ENDBRANCH  19  20
ENDBRANCH   5  19
TORSDOF 8
ENDMDL
MODEL 7
REMARK VINA RESULT:    -7.257      3.190      9.456
REMARK INTER + INTRA:         -11.798
REMARK INTER:                 -10.146
REMARK INTRA:                  -1.652
REMARK UNBOUND:                -1.148
REMARK  Name = 
REMARK  9 active torsions:
REMARK  status: ('A' for Active; 'I' for Inactive)
REMARK    1  A    between atoms: C_1  and  C_2
REMARK    2  A    between atoms: C_2  and  C_3
REMARK    3  A    between atoms: C_3  and  N_4
REMARK    4  A    between atoms: C_3  and  C_26
REMARK    5  A    between atoms: N_4  and  C_5
REMARK    6  A    between atoms: C_5  and  C_6
REMARK    7  A    between atoms: C_10  and  C_11
REMARK    8  A    between atoms: C_11  and  N_12
REMARK    9  A    between atoms: C_13  and  C_15
REMARK                            x       y       z     vdW  Elec       q    Type
REMARK                         _______ _______ _______ _____ _____    ______ ____
ROOT
ATOM      1  C   UNL     1      49.852   5.023  18.883  0.00  0.00    +0.000 A 
ATOM      2  C   UNL     1      48.981   3.925  18.889  0.00  0.00    +0.000 A 
ATOM      3  C   UNL     1      48.124   3.690  17.814  0.00  0.00    +0.000 A 
ATOM      4  C   UNL     1      48.106   4.567  16.730  0.00  0.00    +0.000 A 
ATOM      5  C   UNL     1      48.935   5.697  16.717  0.00  0.00    +0.000 A 
ATOM      6  C   UNL     1      49.825   5.899  17.784  0.00  0.00    +0.000 A 
ENDROOT
BRANCH   1   7
ATOM      7  C   UNL     1      50.720   5.326  20.086  0.00  0.00    +0.000 C 
BRANCH   7   8
ATOM      8  N   UNL     1      51.794   4.345  20.262  0.00  0.00    +0.000 NA
ATOM      9  H   UNL     1      51.365   3.422  20.339  0.00  0.00    +0.000 HD
BRANCH   8  10
ATOM     10  C   UNL     1      52.753   4.315  19.139  0.00  0.00    +0.000 C 
BRANCH  10  11
ATOM     11  C   UNL     1      52.969   2.870  18.714  0.00  0.00    +0.000 A 
ATOM     12  C   UNL     1      52.114   2.215  17.818  0.00  0.00    +0.000 A 
ATOM     13  C   UNL     1      52.383   0.904  17.428  0.00  0.00    +0.000 A 
ATOM     14  C   UNL     1      53.501   0.281  17.953  0.00  0.00    +0.000 A 
ATOM     15  N   UNL     1      54.341   0.866  18.831  0.00  0.00    +0.000 NA
ATOM     16  C   UNL     1      54.057   2.141  19.190  0.00  0.00    +0.000 A 
ENDBRANCH  10  11
BRANCH  10  18
ATOM     17  C   UNL     1      54.065   6.524  19.260  0.00  0.00    +0.000 C 
ATOM     18  C   UNL     1      54.088   5.016  19.487  0.00  0.00    +0.000 C 
ENDBRANCH  10  18
ENDBRANCH   8  10
ENDBRANCH   7   8
ENDBRANCH   1   7
BRANCH   5  19
ATOM     19  C   UNL     1      48.867   6.676  15.574  0.00  0.00    +0.000 C 
BRANCH  19  20
ATOM     20  N   UNL     1      47.662   6.507  14.806  0.00  0.00    +0.000 N 
ATOM     21  C   UNL     1      47.712   6.193  13.472  0.00  0.00    +0.000 C 
ATOM     22  O   UNL     1      48.776   5.983  12.892  0.00  0.00    +0.000 OA
ATOM     23  H   UNL     1      46.814   6.911  15.192  0.00  0.00    +0.000 HD
BRANCH  21  24
ATOM     24  C   UNL     1      46.424   6.053  12.783  0.00  0.00    +0.000 A 
ATOM     25  C   UNL     1      45.796   7.176  12.262  0.00  0.00    +0.000 A 
ATOM     26  S   UNL     1      44.353   6.826  11.421  0.00  0.00    +0.000 S 
ATOM     27  C   UNL     1      44.487   5.167  11.773  0.00  0.00    +0.000 A 
ATOM     28  N   UNL     1      43.548   4.283  11.343  0.00  0.00    +0.000 NA
ATOM     29  C   UNL     1      43.758   3.062  11.707  0.00  0.00    +0.000 A 
ATOM     30  N   UNL     1      44.820   2.643  12.461  0.00  0.00    +0.000 N 
ATOM     31  C   UNL     1      45.806   3.498  12.901  0.00  0.00    +0.000 A 
ATOM     32  O   UNL     1      46.759   3.087  13.555  0.00  0.00    +0.000 OA
ATOM     33  C   UNL     1      45.620   4.883  12.515  0.00  0.00    +0.000 A 
ATOM     34  H   UNL     1      44.931   1.672  12.708  0.00  0.00    +0.000 HD
ENDBRANCH  21  24
ENDBRANCH  19  20
ENDBRANCH   5  19
TORSDOF 8
ENDMDL
MODEL 8
REMARK VINA RESULT:    -7.223      2.643      3.309
REMARK INTER + INTRA:         -11.748
REMARK INTER:                 -10.574
REMARK INTRA:                  -1.174
REMARK UNBOUND:                -1.148
REMARK  Name = 
REMARK  9 active torsions:
REMARK  status: ('A' for Active; 'I' for Inactive)
REMARK    1  A    between atoms: C_1  and  C_2
REMARK    2  A    between atoms: C_2  and  C_3
REMARK    3  A    between atoms: C_3  and  N_4
REMARK    4  A    between atoms: C_3  and  C_26
REMARK    5  A    between atoms: N_4  and  C_5
REMARK    6  A    between atoms: C_5  and  C_6
REMARK    7  A    between atoms: C_10  and  C_11
REMARK    8  A    between atoms: C_11  and  N_12
REMARK    9  A    between atoms: C_13  and  C_15
REMARK                            x       y       z     vdW  Elec       q    Type
REMARK                         _______ _______ _______ _____ _____    ______ ____
ROOT
ATOM      1  C   UNL     1      44.658   7.471  11.749  0.00  0.00    +0.000 A 
ATOM      2  C   UNL     1      44.351   8.792  11.394  0.00  0.00    +0.000 A 
ATOM      3  C   UNL     1      45.234   9.831  11.687  0.00  0.00    +0.000 A 
ATOM      4  C   UNL     1      46.422   9.568  12.366  0.00  0.00    +0.000 A 
ATOM      5  C   UNL     1      46.735   8.264  12.771  0.00  0.00    +0.000 A 
ATOM      6  C   UNL     1      45.860   7.218  12.431  0.00  0.00    +0.000 A 
ENDROOT
BRANCH   1   7
ATOM      7  C   UNL     1      43.663   6.356  11.507  0.00  0.00    +0.000 C 
BRANCH   7   8
ATOM      8  N   UNL     1      43.981   5.570  10.313  0.00  0.00    +0.000 NA
ATOM      9  H   UNL     1      44.674   6.091   9.772  0.00  0.00    +0.000 HD
BRANCH   8  10
ATOM     10  C   UNL     1      44.542   4.238  10.618  0.00  0.00    +0.000 C 
BRANCH  10  11
ATOM     11  C   UNL     1      45.284   3.723   9.394  0.00  0.00    +0.000 A 
ATOM     12  C   UNL     1      45.452   2.356   9.136  0.00  0.00    +0.000 A 
ATOM     13  C   UNL     1      46.102   1.939   7.977  0.00  0.00    +0.000 A 
ATOM     14  C   UNL     1      46.575   2.905   7.106  0.00  0.00    +0.000 A 
ATOM     15  N   UNL     1      46.452   4.231   7.322  0.00  0.00    +0.000 NA
ATOM     16  C   UNL     1      45.814   4.607   8.456  0.00  0.00    +0.000 A 
ENDBRANCH  10  11
BRANCH  10  18
ATOM     17  C   UNL     1      43.628   2.799  12.544  0.00  0.00    +0.000 C 
ATOM     18  C   UNL     1      43.459   3.239  11.094  0.00  0.00    +0.000 C 
ENDBRANCH  10  18
ENDBRANCH   8  10
ENDBRANCH   7   8
ENDBRANCH   1   7
BRANCH   5  19
ATOM     19  C   UNL     1      47.989   7.993  13.559  0.00  0.00    +0.000 C 
BRANCH  19  20
ATOM     20  N   UNL     1      47.749   7.066  14.633  0.00  0.00    +0.000 N 
ATOM     21  C   UNL     1      48.790   6.488  15.313  0.00  0.00    +0.000 C 
ATOM     22  O   UNL     1      49.962   6.778  15.081  0.00  0.00    +0.000 OA
ATOM     23  H   UNL     1      46.830   6.638  14.668  0.00  0.00    +0.000 HD
BRANCH  21  24
ATOM     24  C   UNL     1      48.431   5.551  16.385  0.00  0.00    +0.000 A 
ATOM     25  C   UNL     1      47.666   4.430  16.091  0.00  0.00    +0.000 A 
ATOM     26  S   UNL     1      47.412   3.405  17.431  0.00  0.00    +0.000 S 
ATOM     27  C   UNL     1      48.269   4.451  18.463  0.00  0.00    +0.000 A 
ATOM     28  N   UNL     1      48.420   4.162  19.783  0.00  0.00    +0.000 NA
ATOM     29  C   UNL     1      49.065   5.058  20.455  0.00  0.00    +0.000 A 
ATOM     30  N   UNL     1      49.571   6.215  19.929  0.00  0.00    +0.000 N 
ATOM     31  C   UNL     1      49.460   6.539  18.595  0.00  0.00    +0.000 A 
ATOM     32  O   UNL     1      49.946   7.574  18.150  0.00  0.00    +0.000 OA
ATOM     33  C   UNL     1      48.748   5.564  17.794  0.00  0.00    +0.000 A 
ATOM     34  H   UNL     1      50.071   6.873  20.507  0.00  0.00    +0.000 HD
ENDBRANCH  21  24
ENDBRANCH  19  20
ENDBRANCH   5  19
TORSDOF 8
ENDMDL
MODEL 9
REMARK VINA RESULT:    -7.138      3.297      9.698
REMARK INTER + INTRA:         -11.624
REMARK INTER:                  -9.653
REMARK INTRA:                  -1.971
REMARK UNBOUND:                -1.148
REMARK  Name = 
REMARK  9 active torsions:
REMARK  status: ('A' for Active; 'I' for Inactive)
REMARK    1  A    between atoms: C_1  and  C_2
REMARK    2  A    between atoms: C_2  and  C_3
REMARK    3  A    between atoms: C_3  and  N_4
REMARK    4  A    between atoms: C_3  and  C_26
REMARK    5  A    between atoms: N_4  and  C_5
REMARK    6  A    between atoms: C_5  and  C_6
REMARK    7  A    between atoms: C_10  and  C_11
REMARK    8  A    between atoms: C_11  and  N_12
REMARK    9  A    between atoms: C_13  and  C_15
REMARK                            x       y       z     vdW  Elec       q    Type
REMARK                         _______ _______ _______ _____ _____    ______ ____
ROOT
ATOM      1  C   UNL     1      50.697   4.310  17.860  0.00  0.00    +0.000 A 
ATOM      2  C   UNL     1      49.690   3.359  18.081  0.00  0.00    +0.000 A 
ATOM      3  C   UNL     1      48.441   3.492  17.477  0.00  0.00    +0.000 A 
ATOM      4  C   UNL     1      48.169   4.594  16.667  0.00  0.00    +0.000 A 
ATOM      5  C   UNL     1      49.142   5.582  16.464  0.00  0.00    +0.000 A 
ATOM      6  C   UNL     1      50.412   5.415  17.040  0.00  0.00    +0.000 A 
ENDROOT
BRANCH   1   7
ATOM      7  C   UNL     1      52.024   4.210  18.582  0.00  0.00    +0.000 C 
BRANCH   7   8
ATOM      8  N   UNL     1      51.864   4.097  20.034  0.00  0.00    +0.000 NA
ATOM      9  H   UNL     1      52.709   3.662  20.408  0.00  0.00    +0.000 HD
BRANCH   8  10
ATOM     10  C   UNL     1      51.681   5.399  20.708  0.00  0.00    +0.000 C 
BRANCH  10  11
ATOM     11  C   UNL     1      50.192   5.654  20.890  0.00  0.00    +0.000 A 
ATOM     12  C   UNL     1      49.545   6.763  20.328  0.00  0.00    +0.000 A 
ATOM     13  C   UNL     1      48.171   6.925  20.488  0.00  0.00    +0.000 A 
ATOM     14  C   UNL     1      47.478   5.972  21.215  0.00  0.00    +0.000 A 
ATOM     15  N   UNL     1      48.062   4.900  21.789  0.00  0.00    +0.000 NA
ATOM     16  C   UNL     1      49.398   4.767  21.615  0.00  0.00    +0.000 A 
ENDBRANCH  10  11
BRANCH  10  18
ATOM     17  C   UNL     1      53.769   6.879  20.466  0.00  0.00    +0.000 C 
ATOM     18  C   UNL     1      52.372   6.557  19.949  0.00  0.00    +0.000 C 
ENDBRANCH  10  18
ENDBRANCH   8  10
ENDBRANCH   7   8
ENDBRANCH   1   7
BRANCH   5  19
ATOM     19  C   UNL     1      48.824   6.802  15.640  0.00  0.00    +0.000 C 
BRANCH  19  20
ATOM     20  N   UNL     1      47.648   6.605  14.836  0.00  0.00    +0.000 N 
ATOM     21  C   UNL     1      47.747   6.310  13.500  0.00  0.00    +0.000 C 
ATOM     22  O   UNL     1      48.833   6.143  12.948  0.00  0.00    +0.000 OA
ATOM     23  H   UNL     1      46.777   6.975  15.202  0.00  0.00    +0.000 HD
BRANCH  21  24
ATOM     24  C   UNL     1      46.484   6.136  12.772  0.00  0.00    +0.000 A 
ATOM     25  C   UNL     1      45.848   7.243  12.224  0.00  0.00    +0.000 A 
ATOM     26  S   UNL     1      44.440   6.855  11.342  0.00  0.00    +0.000 S 
ATOM     27  C   UNL     1      44.599   5.201  11.709  0.00  0.00    +0.000 A 
ATOM     28  N   UNL     1      43.693   4.294  11.257  0.00  0.00    +0.000 NA
ATOM     29  C   UNL     1      43.919   3.080  11.636  0.00  0.00    +0.000 A 
ATOM     30  N   UNL     1      44.966   2.690  12.426  0.00  0.00    +0.000 N 
ATOM     31  C   UNL     1      45.920   3.569  12.889  0.00  0.00    +0.000 A 
ATOM     32  O   UNL     1      46.861   3.184  13.575  0.00  0.00    +0.000 OA
ATOM     33  C   UNL     1      45.715   4.947  12.488  0.00  0.00    +0.000 A 
ATOM     34  H   UNL     1      45.091   1.723  12.683  0.00  0.00    +0.000 HD
ENDBRANCH  21  24
ENDBRANCH  19  20
ENDBRANCH   5  19
TORSDOF 8
ENDMDL
