MODEL 1
REMARK VINA RESULT:    -8.899      0.000      0.000
REMARK INTER + INTRA:         -12.129
REMARK INTER:                 -11.760
REMARK INTRA:                  -0.369
REMARK UNBOUND:                -0.369
REMARK  Name = 
REMARK  6 active torsions:
REMARK  status: ('A' for Active; 'I' for Inactive)
REMARK    1  A    between atoms: C_2  and  C_5
REMARK    2  A    between atoms: N_3  and  O_4
REMARK    3  A    between atoms: C_8  and  O_9
REMARK    4  A    between atoms: O_9  and  C_10
REMARK    5  A    between atoms: C_10  and  C_11
REMARK    6  A    between atoms: C_16  and  C_17
REMARK                            x       y       z     vdW  Elec       q    Type
REMARK                         _______ _______ _______ _____ _____    ______ ____
ROOT
ATOM      1  O   UNL     1      43.852   3.657  10.198  0.00  0.00    +0.000 OA
ENDROOT
BRANCH   1   5
ATOM      2  C   UNL     1      46.618   2.394   7.338  0.00  0.00    +0.000 A 
ATOM      3  C   UNL     1      46.260   3.740   7.485  0.00  0.00    +0.000 A 
ATOM      4  C   UNL     1      45.333   4.118   8.461  0.00  0.00    +0.000 A 
ATOM      5  C   UNL     1      44.756   3.164   9.301  0.00  0.00    +0.000 A 
ATOM      6  C   UNL     1      45.122   1.826   9.170  0.00  0.00    +0.000 A 
ATOM      7  C   UNL     1      46.046   1.453   8.194  0.00  0.00    +0.000 A 
ATOM      8  F   UNL     1      46.352   0.150   8.091  0.00  0.00    +0.000 F 
BRANCH   2  10
ATOM      9  N   UNL     1      48.742   2.522   6.224  0.00  0.00    +0.000 NA
ATOM     10  C   UNL     1      47.556   1.989   6.247  0.00  0.00    +0.000 C 
ATOM     11  N   UNL     1      47.167   1.071   5.290  0.00  0.00    +0.000 N 
ATOM     12  H   UNL     1      49.212   2.158   5.391  0.00  0.00    +0.000 HD
ATOM     13  H   UNL     1      46.159   0.914   5.209  0.00  0.00    +0.000 HD
BRANCH  11  14
ATOM     14  O   UNL     1      47.799   1.251   4.057  0.00  0.00    +0.000 OA
ATOM     15  H   UNL     1      47.197   1.859   3.588  0.00  0.00    +0.000 HD
ENDBRANCH  11  14
ENDBRANCH   2  10
ENDBRANCH   1   5
BRANCH   1  16
ATOM     16  C   UNL     1      43.997   5.027  10.571  0.00  0.00    +0.000 C 
BRANCH  16  17
ATOM     17  C   UNL     1      45.094   5.126  11.601  0.00  0.00    +0.000 A 
ATOM     18  C   UNL     1      45.461   4.035  12.385  0.00  0.00    +0.000 A 
ATOM     19  C   UNL     1      46.463   4.184  13.333  0.00  0.00    +0.000 A 
ATOM     20  F   UNL     1      46.828   3.131  14.073  0.00  0.00    +0.000 F 
ATOM     21  C   UNL     1      47.096   5.412  13.530  0.00  0.00    +0.000 A 
ATOM     22  C   UNL     1      46.732   6.538  12.772  0.00  0.00    +0.000 A 
ATOM     23  C   UNL     1      45.746   6.358  11.791  0.00  0.00    +0.000 A 
BRANCH  22  24
ATOM     24  C   UNL     1      47.434   7.874  13.010  0.00  0.00    +0.000 C 
ATOM     25  C   UNL     1      48.373   8.269  11.851  0.00  0.00    +0.000 C 
ATOM     26  C   UNL     1      49.690   7.492  11.888  0.00  0.00    +0.000 C 
ATOM     27  N   UNL     1      50.398   7.678  13.156  0.00  0.00    +0.000 NA
ATOM     28  C   UNL     1      49.573   7.277  14.294  0.00  0.00    +0.000 C 
ATOM     29  C   UNL     1      48.228   8.010  14.327  0.00  0.00    +0.000 C 
ATOM     30  H   UNL     1      50.662   8.656  13.259  0.00  0.00    +0.000 HD
ENDBRANCH  22  24
ENDBRANCH  16  17
ENDBRANCH   1  16
TORSDOF 6
ENDMDL
MODEL 2
REMARK VINA RESULT:    -8.567      1.643      2.218
REMARK INTER + INTRA:         -11.691
REMARK INTER:                 -11.195
REMARK INTRA:                  -0.495
REMARK UNBOUND:                -0.369
REMARK  Name = 
REMARK  6 active torsions:
REMARK  status: ('A' for Active; 'I' for Inactive)
REMARK    1  A    between atoms: C_2  and  C_5
REMARK    2  A    between atoms: N_3  and  O_4
REMARK    3  A    between atoms: C_8  and  O_9
REMARK    4  A    between atoms: O_9  and  C_10
REMARK    5  A    between atoms: C_10  and  C_11
REMARK    6  A    between atoms: C_16  and  C_17
REMARK                            x       y       z     vdW  Elec       q    Type
REMARK                         _______ _______ _______ _____ _____    ______ ____
ROOT
ATOM      1  O   UNL     1      43.674   3.794  10.136  0.00  0.00    +0.000 OA
ENDROOT
BRANCH   1   5
ATOM      2  C   UNL     1      46.606   2.587   7.420  0.00  0.00    +0.000 A 
ATOM      3  C   UNL     1      46.226   3.928   7.560  0.00  0.00    +0.000 A 
ATOM      4  C   UNL     1      45.243   4.287   8.487  0.00  0.00    +0.000 A 
ATOM      5  C   UNL     1      44.631   3.318   9.286  0.00  0.00    +0.000 A 
ATOM      6  C   UNL     1      45.018   1.986   9.162  0.00  0.00    +0.000 A 
ATOM      7  C   UNL     1      45.998   1.632   8.235  0.00  0.00    +0.000 A 
ATOM      8  F   UNL     1      46.324   0.333   8.137  0.00  0.00    +0.000 F 
BRANCH   2  10
ATOM      9  N   UNL     1      48.831   2.621   6.515  0.00  0.00    +0.000 NA
ATOM     10  C   UNL     1      47.607   2.203   6.379  0.00  0.00    +0.000 C 
ATOM     11  N   UNL     1      47.235   1.422   5.301  0.00  0.00    +0.000 N 
ATOM     12  H   UNL     1      49.345   2.297   5.692  0.00  0.00    +0.000 HD
ATOM     13  H   UNL     1      46.229   1.369   5.116  0.00  0.00    +0.000 HD
BRANCH  11  14
ATOM     14  O   UNL     1      47.995   1.659   4.153  0.00  0.00    +0.000 OA
ATOM     15  H   UNL     1      48.522   2.444   4.396  0.00  0.00    +0.000 HD
ENDBRANCH  11  14
ENDBRANCH   2  10
ENDBRANCH   1   5
BRANCH   1  16
ATOM     16  C   UNL     1      44.048   3.948  11.505  0.00  0.00    +0.000 C 
BRANCH  16  17
ATOM     17  C   UNL     1      44.714   5.290  11.668  0.00  0.00    +0.000 A 
ATOM     18  C   UNL     1      44.043   6.478  11.387  0.00  0.00    +0.000 A 
ATOM     19  C   UNL     1      44.708   7.686  11.535  0.00  0.00    +0.000 A 
ATOM     20  F   UNL     1      44.057   8.828  11.284  0.00  0.00    +0.000 F 
ATOM     21  C   UNL     1      46.043   7.734  11.938  0.00  0.00    +0.000 A 
ATOM     22  C   UNL     1      46.755   6.553  12.205  0.00  0.00    +0.000 A 
ATOM     23  C   UNL     1      46.055   5.343  12.091  0.00  0.00    +0.000 A 
BRANCH  22  24
ATOM     24  C   UNL     1      48.219   6.628  12.640  0.00  0.00    +0.000 C 
ATOM     25  C   UNL     1      48.379   6.894  14.151  0.00  0.00    +0.000 C 
ATOM     26  C   UNL     1      48.127   8.360  14.506  0.00  0.00    +0.000 C 
ATOM     27  N   UNL     1      49.014   9.261  13.769  0.00  0.00    +0.000 NA
ATOM     28  C   UNL     1      48.875   9.088  12.325  0.00  0.00    +0.000 C 
ATOM     29  C   UNL     1      49.109   7.638  11.885  0.00  0.00    +0.000 C 
ATOM     30  H   UNL     1      49.980   9.083  14.038  0.00  0.00    +0.000 HD
ENDBRANCH  22  24
ENDBRANCH  16  17
ENDBRANCH   1  16
TORSDOF 6
ENDMDL
MODEL 3
REMARK VINA RESULT:    -7.624      4.855      8.921
REMARK INTER + INTRA:         -10.445
REMARK INTER:                  -9.681
REMARK INTRA:                  -0.764
REMARK UNBOUND:                -0.369
REMARK  Name = 
REMARK  6 active torsions:
REMARK  status: ('A' for Active; 'I' for Inactive)
REMARK    1  A    between atoms: C_2  and  C_5
REMARK    2  A    between atoms: N_3  and  O_4
REMARK    3  A    between atoms: C_8  and  O_9
REMARK    4  A    between atoms: O_9  and  C_10
REMARK    5  A    between atoms: C_10  and  C_11
REMARK    6  A    between atoms: C_16  and  C_17
REMARK                            x       y       z     vdW  Elec       q    Type
REMARK                         _______ _______ _______ _____ _____    ______ ____
ROOT
ATOM      1  O   UNL     1      48.266   5.775  14.220  0.00  0.00    +0.000 OA
ENDROOT
BRANCH   1   5
ATOM      2  C   UNL     1      48.060   4.884  18.293  0.00  0.00    +0.000 A 
ATOM      3  C   UNL     1      48.722   6.020  17.812  0.00  0.00    +0.000 A 
ATOM      4  C   UNL     1      48.761   6.282  16.439  0.00  0.00    +0.000 A 
ATOM      5  C   UNL     1      48.140   5.420  15.533  0.00  0.00    +0.000 A 
ATOM      6  C   UNL     1      47.466   4.298  16.009  0.00  0.00    +0.000 A 
ATOM      7  C   UNL     1      47.431   4.040  17.379  0.00  0.00    +0.000 A 
ATOM      8  F   UNL     1      46.787   2.935  17.790  0.00  0.00    +0.000 F 
BRANCH   2  10
ATOM      9  N   UNL     1      48.586   3.438  20.138  0.00  0.00    +0.000 NA
ATOM     10  C   UNL     1      48.082   4.575  19.755  0.00  0.00    +0.000 C 
ATOM     11  N   UNL     1      47.578   5.477  20.673  0.00  0.00    +0.000 N 
ATOM     12  H   UNL     1      48.473   3.394  21.154  0.00  0.00    +0.000 HD
ATOM     13  H   UNL     1      46.960   6.199  20.292  0.00  0.00    +0.000 HD
BRANCH  11  14
ATOM     14  O   UNL     1      47.075   4.874  21.829  0.00  0.00    +0.000 OA
ATOM     15  H   UNL     1      46.297   5.422  22.042  0.00  0.00    +0.000 HD
ENDBRANCH  11  14
ENDBRANCH   2  10
ENDBRANCH   1   5
BRANCH   1  16
ATOM     16  C   UNL     1      48.273   7.172  13.929  0.00  0.00    +0.000 C 
BRANCH  16  17
ATOM     17  C   UNL     1      47.033   7.499  13.137  0.00  0.00    +0.000 A 
ATOM     18  C   UNL     1      46.529   8.796  13.071  0.00  0.00    +0.000 A 
ATOM     19  C   UNL     1      45.373   9.041  12.345  0.00  0.00    +0.000 A 
ATOM     20  F   UNL     1      44.900  10.290  12.266  0.00  0.00    +0.000 F 
ATOM     21  C   UNL     1      44.692   8.009  11.696  0.00  0.00    +0.000 A 
ATOM     22  C   UNL     1      45.161   6.686  11.764  0.00  0.00    +0.000 A 
ATOM     23  C   UNL     1      46.354   6.464  12.468  0.00  0.00    +0.000 A 
BRANCH  22  24
ATOM     24  C   UNL     1      44.397   5.571  11.051  0.00  0.00    +0.000 C 
ATOM     25  C   UNL     1      42.980   5.359  11.624  0.00  0.00    +0.000 C 
ATOM     26  C   UNL     1      43.003   4.592  12.946  0.00  0.00    +0.000 C 
ATOM     27  N   UNL     1      43.659   3.291  12.812  0.00  0.00    +0.000 NA
ATOM     28  C   UNL     1      45.026   3.428  12.314  0.00  0.00    +0.000 C 
ATOM     29  C   UNL     1      45.091   4.194  10.988  0.00  0.00    +0.000 C 
ATOM     30  H   UNL     1      43.125   2.704  12.172  0.00  0.00    +0.000 HD
ENDBRANCH  22  24
ENDBRANCH  16  17
ENDBRANCH   1  16
TORSDOF 6
ENDMDL
MODEL 4
REMARK VINA RESULT:    -7.516      2.952      3.630
REMARK INTER + INTRA:         -10.302
REMARK INTER:                  -9.563
REMARK INTRA:                  -0.739
REMARK UNBOUND:                -0.369
REMARK  Name = 
REMARK  6 active torsions:
REMARK  status: ('A' for Active; 'I' for Inactive)
REMARK    1  A    between atoms: C_2  and  C_5
REMARK    2  A    between atoms: N_3  and  O_4
REMARK    3  A    between atoms: C_8  and  O_9
REMARK    4  A    between atoms: O_9  and  C_10
REMARK    5  A    between atoms: C_10  and  C_11
REMARK    6  A    between atoms: C_16  and  C_17
REMARK                            x       y       z     vdW  Elec       q    Type
REMARK                         _______ _______ _______ _____ _____    ______ ____
ROOT
ATOM      1  O   UNL     1      44.265   5.033  10.730  0.00  0.00    +0.000 OA
ENDROOT
BRANCH   1   5
ATOM      2  C   UNL     1      46.425   3.228   7.647  0.00  0.00    +0.000 A 
ATOM      3  C   UNL     1      46.431   4.614   7.849  0.00  0.00    +0.000 A 
ATOM      4  C   UNL     1      45.697   5.175   8.898  0.00  0.00    +0.000 A 
ATOM      5  C   UNL     1      44.953   4.363   9.758  0.00  0.00    +0.000 A 
ATOM      6  C   UNL     1      44.958   2.983   9.571  0.00  0.00    +0.000 A 
ATOM      7  C   UNL     1      45.691   2.428   8.522  0.00  0.00    +0.000 A 
ATOM      8  F   UNL     1      45.648   1.095   8.368  0.00  0.00    +0.000 F 
BRANCH   2  10
ATOM      9  N   UNL     1      46.967   3.171   5.307  0.00  0.00    +0.000 NA
ATOM     10  C   UNL     1      47.156   2.644   6.481  0.00  0.00    +0.000 C 
ATOM     11  N   UNL     1      48.010   1.570   6.653  0.00  0.00    +0.000 N 
ATOM     12  H   UNL     1      47.511   2.613   4.644  0.00  0.00    +0.000 HD
ATOM     13  H   UNL     1      47.894   1.046   7.524  0.00  0.00    +0.000 HD
BRANCH  11  14
ATOM     14  O   UNL     1      48.108   0.751   5.525  0.00  0.00    +0.000 OA
ATOM     15  H   UNL     1      48.720   1.245   4.948  0.00  0.00    +0.000 HD
ENDBRANCH  11  14
ENDBRANCH   2  10
ENDBRANCH   1   5
BRANCH   1  16
ATOM     16  C   UNL     1      44.920   5.194  11.987  0.00  0.00    +0.000 C 
BRANCH  16  17
ATOM     17  C   UNL     1      45.645   6.515  11.980  0.00  0.00    +0.000 A 
ATOM     18  C   UNL     1      47.036   6.586  12.009  0.00  0.00    +0.000 A 
ATOM     19  C   UNL     1      47.654   7.827  12.021  0.00  0.00    +0.000 A 
ATOM     20  F   UNL     1      48.990   7.895  12.029  0.00  0.00    +0.000 F 
ATOM     21  C   UNL     1      46.909   9.008  12.029  0.00  0.00    +0.000 A 
ATOM     22  C   UNL     1      45.505   8.971  12.025  0.00  0.00    +0.000 A 
ATOM     23  C   UNL     1      44.897   7.708  11.971  0.00  0.00    +0.000 A 
BRANCH  22  24
ATOM     24  C   UNL     1      44.709  10.275  12.040  0.00  0.00    +0.000 C 
ATOM     25  C   UNL     1      43.459  10.221  11.136  0.00  0.00    +0.000 C 
ATOM     26  C   UNL     1      43.813  10.374   9.657  0.00  0.00    +0.000 C 
ATOM     27  N   UNL     1      44.535  11.619   9.393  0.00  0.00    +0.000 NA
ATOM     28  C   UNL     1      45.757  11.709  10.189  0.00  0.00    +0.000 C 
ATOM     29  C   UNL     1      45.489  11.561  11.690  0.00  0.00    +0.000 C 
ATOM     30  H   UNL     1      43.935  12.413   9.607  0.00  0.00    +0.000 HD
ENDBRANCH  22  24
ENDBRANCH  16  17
ENDBRANCH   1  16
TORSDOF 6
ENDMDL
MODEL 5
REMARK VINA RESULT:    -7.388      1.550      2.122
REMARK INTER + INTRA:         -10.132
REMARK INTER:                  -9.679
REMARK INTRA:                  -0.453
REMARK UNBOUND:                -0.369
REMARK  Name = 
REMARK  6 active torsions:
REMARK  status: ('A' for Active; 'I' for Inactive)
REMARK    1  A    between atoms: C_2  and  C_5
REMARK    2  A    between atoms: N_3  and  O_4
REMARK    3  A    between atoms: C_8  and  O_9
REMARK    4  A    between atoms: O_9  and  C_10
REMARK    5  A    between atoms: C_10  and  C_11
REMARK    6  A    between atoms: C_16  and  C_17
REMARK                            x       y       z     vdW  Elec       q    Type
REMARK                         _______ _______ _______ _____ _____    ______ ____
ROOT
ATOM      1  O   UNL     1      43.895   3.878  10.967  0.00  0.00    +0.000 OA
ENDROOT
BRANCH   1   5
ATOM      2  C   UNL     1      46.228   2.898   7.646  0.00  0.00    +0.000 A 
ATOM      3  C   UNL     1      45.439   1.949   8.308  0.00  0.00    +0.000 A 
ATOM      4  C   UNL     1      44.668   2.324   9.413  0.00  0.00    +0.000 A 
ATOM      5  C   UNL     1      44.673   3.644   9.868  0.00  0.00    +0.000 A 
ATOM      6  C   UNL     1      45.443   4.595   9.202  0.00  0.00    +0.000 A 
ATOM      7  C   UNL     1      46.211   4.216   8.101  0.00  0.00    +0.000 A 
ATOM      8  F   UNL     1      46.953   5.162   7.503  0.00  0.00    +0.000 F 
BRANCH   2  10
ATOM      9  N   UNL     1      47.100   3.198   5.428  0.00  0.00    +0.000 NA
ATOM     10  C   UNL     1      47.101   2.476   6.509  0.00  0.00    +0.000 C 
ATOM     11  N   UNL     1      47.888   1.344   6.611  0.00  0.00    +0.000 N 
ATOM     12  H   UNL     1      47.717   2.729   4.760  0.00  0.00    +0.000 HD
ATOM     13  H   UNL     1      47.632   0.690   7.355  0.00  0.00    +0.000 HD
BRANCH  11  14
ATOM     14  O   UNL     1      48.124   0.717   5.384  0.00  0.00    +0.000 OA
ATOM     15  H   UNL     1      47.847   1.392   4.736  0.00  0.00    +0.000 HD
ENDBRANCH  11  14
ENDBRANCH   2  10
ENDBRANCH   1   5
BRANCH   1  16
ATOM     16  C   UNL     1      44.046   5.145  11.604  0.00  0.00    +0.000 C 
BRANCH  16  17
ATOM     17  C   UNL     1      45.361   5.154  12.341  0.00  0.00    +0.000 A 
ATOM     18  C   UNL     1      45.675   4.182  13.288  0.00  0.00    +0.000 A 
ATOM     19  C   UNL     1      46.890   4.246  13.953  0.00  0.00    +0.000 A 
ATOM     20  F   UNL     1      47.200   3.302  14.848  0.00  0.00    +0.000 F 
ATOM     21  C   UNL     1      47.796   5.280  13.708  0.00  0.00    +0.000 A 
ATOM     22  C   UNL     1      47.499   6.290  12.777  0.00  0.00    +0.000 A 
ATOM     23  C   UNL     1      46.283   6.185  12.085  0.00  0.00    +0.000 A 
BRANCH  22  24
ATOM     24  C   UNL     1      48.502   7.415  12.529  0.00  0.00    +0.000 C 
ATOM     25  C   UNL     1      49.201   7.887  13.821  0.00  0.00    +0.000 C 
ATOM     26  C   UNL     1      48.298   8.786  14.667  0.00  0.00    +0.000 C 
ATOM     27  N   UNL     1      47.840   9.959  13.921  0.00  0.00    +0.000 NA
ATOM     28  C   UNL     1      47.129   9.575  12.703  0.00  0.00    +0.000 C 
ATOM     29  C   UNL     1      47.967   8.665  11.798  0.00  0.00    +0.000 C 
ATOM     30  H   UNL     1      48.640  10.539  13.674  0.00  0.00    +0.000 HD
ENDBRANCH  22  24
ENDBRANCH  16  17
ENDBRANCH   1  16
TORSDOF 6
ENDMDL
MODEL 6
REMARK VINA RESULT:    -7.342      4.350      6.628
REMARK INTER + INTRA:         -10.072
REMARK INTER:                  -9.460
REMARK INTRA:                  -0.612
REMARK UNBOUND:                -0.369
REMARK  Name = 
REMARK  6 active torsions:
REMARK  status: ('A' for Active; 'I' for Inactive)
REMARK    1  A    between atoms: C_2  and  C_5
REMARK    2  A    between atoms: N_3  and  O_4
REMARK    3  A    between atoms: C_8  and  O_9
REMARK    4  A    between atoms: O_9  and  C_10
REMARK    5  A    between atoms: C_10  and  C_11
REMARK    6  A    between atoms: C_16  and  C_17
REMARK                            x       y       z     vdW  Elec       q    Type
REMARK                         _______ _______ _______ _____ _____    ______ ____
ROOT
ATOM      1  O   UNL     1      48.881   6.506  13.186  0.00  0.00    +0.000 OA
ENDROOT
BRANCH   1   5
ATOM      2  C   UNL     1      45.212   4.734  12.277  0.00  0.00    +0.000 A 
ATOM      3  C   UNL     1      46.021   4.277  13.325  0.00  0.00    +0.000 A 
ATOM      4  C   UNL     1      47.240   4.905  13.598  0.00  0.00    +0.000 A 
ATOM      5  C   UNL     1      47.665   5.994  12.833  0.00  0.00    +0.000 A 
ATOM      6  C   UNL     1      46.856   6.462  11.801  0.00  0.00    +0.000 A 
ATOM      7  C   UNL     1      45.641   5.832  11.532  0.00  0.00    +0.000 A 
ATOM      8  F   UNL     1      44.904   6.305  10.513  0.00  0.00    +0.000 F 
BRANCH   2  10
ATOM      9  N   UNL     1      42.815   4.593  12.231  0.00  0.00    +0.000 NA
ATOM     10  C   UNL     1      43.944   4.014  11.949  0.00  0.00    +0.000 C 
ATOM     11  N   UNL     1      43.978   2.764  11.360  0.00  0.00    +0.000 N 
ATOM     12  H   UNL     1      42.074   3.934  11.976  0.00  0.00    +0.000 HD
ATOM     13  H   UNL     1      44.870   2.266  11.426  0.00  0.00    +0.000 HD
BRANCH  11  14
ATOM     14  O   UNL     1      42.876   1.967  11.682  0.00  0.00    +0.000 OA
ATOM     15  H   UNL     1      42.824   2.045  12.653  0.00  0.00    +0.000 HD
ENDBRANCH  11  14
ENDBRANCH   2  10
ENDBRANCH   1   5
BRANCH   1  16
ATOM     16  C   UNL     1      48.898   7.444  14.261  0.00  0.00    +0.000 C 
BRANCH  16  17
ATOM     17  C   UNL     1      49.791   6.906  15.349  0.00  0.00    +0.000 A 
ATOM     18  C   UNL     1      51.129   7.281  15.449  0.00  0.00    +0.000 A 
ATOM     19  C   UNL     1      51.913   6.742  16.457  0.00  0.00    +0.000 A 
ATOM     20  F   UNL     1      53.193   7.117  16.565  0.00  0.00    +0.000 F 
ATOM     21  C   UNL     1      51.395   5.812  17.360  0.00  0.00    +0.000 A 
ATOM     22  C   UNL     1      50.056   5.395  17.271  0.00  0.00    +0.000 A 
ATOM     23  C   UNL     1      49.267   5.982  16.272  0.00  0.00    +0.000 A 
BRANCH  22  24
ATOM     24  C   UNL     1      49.510   4.371  18.267  0.00  0.00    +0.000 C 
ATOM     25  C   UNL     1      49.240   2.997  17.621  0.00  0.00    +0.000 C 
ATOM     26  C   UNL     1      47.948   2.990  16.803  0.00  0.00    +0.000 C 
ATOM     27  N   UNL     1      46.788   3.372  17.609  0.00  0.00    +0.000 NA
ATOM     28  C   UNL     1      46.965   4.690  18.214  0.00  0.00    +0.000 C 
ATOM     29  C   UNL     1      48.246   4.782  19.051  0.00  0.00    +0.000 C 
ATOM     30  H   UNL     1      46.642   2.682  18.343  0.00  0.00    +0.000 HD
ENDBRANCH  22  24
ENDBRANCH  16  17
ENDBRANCH   1  16
TORSDOF 6
ENDMDL
MODEL 7
REMARK VINA RESULT:    -7.340      4.694      6.957
REMARK INTER + INTRA:         -10.069
REMARK INTER:                  -9.144
REMARK INTRA:                  -0.925
REMARK UNBOUND:                -0.369
REMARK  Name = 
REMARK  6 active torsions:
REMARK  status: ('A' for Active; 'I' for Inactive)
REMARK    1  A    between atoms: C_2  and  C_5
REMARK    2  A    between atoms: N_3  and  O_4
REMARK    3  A    between atoms: C_8  and  O_9
REMARK    4  A    between atoms: O_9  and  C_10
REMARK    5  A    between atoms: C_10  and  C_11
REMARK    6  A    between atoms: C_16  and  C_17
REMARK                            x       y       z     vdW  Elec       q    Type
REMARK                         _______ _______ _______ _____ _____    ______ ____
ROOT
ATOM      1  O   UNL     1      49.193   6.515  13.477  0.00  0.00    +0.000 OA
ENDROOT
BRANCH   1   5
ATOM      2  C   UNL     1      45.303   5.889  12.096  0.00  0.00    +0.000 A 
ATOM      3  C   UNL     1      46.139   6.871  11.549  0.00  0.00    +0.000 A 
ATOM      4  C   UNL     1      47.438   7.041  12.039  0.00  0.00    +0.000 A 
ATOM      5  C   UNL     1      47.917   6.236  13.075  0.00  0.00    +0.000 A 
ATOM      6  C   UNL     1      47.095   5.248  13.610  0.00  0.00    +0.000 A 
ATOM      7  C   UNL     1      45.800   5.083  13.119  0.00  0.00    +0.000 A 
ATOM      8  F   UNL     1      45.036   4.131  13.680  0.00  0.00    +0.000 F 
BRANCH   2  10
ATOM      9  N   UNL     1      43.695   5.398  10.380  0.00  0.00    +0.000 NA
ATOM     10  C   UNL     1      43.895   5.761  11.613  0.00  0.00    +0.000 C 
ATOM     11  N   UNL     1      42.834   6.022  12.461  0.00  0.00    +0.000 N 
ATOM     12  H   UNL     1      42.683   5.410  10.231  0.00  0.00    +0.000 HD
ATOM     13  H   UNL     1      43.061   6.559  13.302  0.00  0.00    +0.000 HD
BRANCH  11  14
ATOM     14  O   UNL     1      41.694   6.487  11.800  0.00  0.00    +0.000 OA
ATOM     15  H   UNL     1      41.815   6.152  10.891  0.00  0.00    +0.000 HD
ENDBRANCH  11  14
ENDBRANCH   2  10
ENDBRANCH   1   5
BRANCH   1  16
ATOM     16  C   UNL     1      49.408   7.778  14.104  0.00  0.00    +0.000 C 
BRANCH  16  17
ATOM     17  C   UNL     1      49.238   7.607  15.592  0.00  0.00    +0.000 A 
ATOM     18  C   UNL     1      48.551   8.544  16.362  0.00  0.00    +0.000 A 
ATOM     19  C   UNL     1      48.440   8.350  17.730  0.00  0.00    +0.000 A 
ATOM     20  F   UNL     1      47.764   9.239  18.467  0.00  0.00    +0.000 F 
ATOM     21  C   UNL     1      49.021   7.245  18.355  0.00  0.00    +0.000 A 
ATOM     22  C   UNL     1      49.741   6.296  17.611  0.00  0.00    +0.000 A 
ATOM     23  C   UNL     1      49.808   6.486  16.223  0.00  0.00    +0.000 A 
BRANCH  22  24
ATOM     24  C   UNL     1      50.375   5.097  18.316  0.00  0.00    +0.000 C 
ATOM     25  C   UNL     1      49.986   3.751  17.670  0.00  0.00    +0.000 C 
ATOM     26  C   UNL     1      48.572   3.316  18.054  0.00  0.00    +0.000 C 
ATOM     27  N   UNL     1      48.407   3.210  19.504  0.00  0.00    +0.000 NA
ATOM     28  C   UNL     1      48.718   4.472  20.173  0.00  0.00    +0.000 C 
ATOM     29  C   UNL     1      50.124   4.981  19.835  0.00  0.00    +0.000 C 
ATOM     30  H   UNL     1      49.018   2.479  19.864  0.00  0.00    +0.000 HD
ENDBRANCH  22  24
ENDBRANCH  16  17
ENDBRANCH   1  16
TORSDOF 6
ENDMDL
MODEL 8
REMARK VINA RESULT:    -6.984      4.190      6.063
REMARK INTER + INTRA:          -9.598
REMARK INTER:                  -8.858
REMARK INTRA:                  -0.741
REMARK UNBOUND:                -0.369
REMARK  Name = 
REMARK  6 active torsions:
REMARK  status: ('A' for Active; 'I' for Inactive)
REMARK    1  A    between atoms: C_2  and  C_5
REMARK    2  A    between atoms: N_3  and  O_4
REMARK    3  A    between atoms: C_8  and  O_9
REMARK    4  A    between atoms: O_9  and  C_10
REMARK    5  A    between atoms: C_10  and  C_11
REMARK    6  A    between atoms: C_16  and  C_17
REMARK                            x       y       z     vdW  Elec       q    Type
REMARK                         _______ _______ _______ _____ _____    ______ ____
ROOT
ATOM      1  O   UNL     1      47.831   5.332  15.061  0.00  0.00    +0.000 OA
ENDROOT
BRANCH   1   5
ATOM      2  C   UNL     1      45.443   5.128  11.642  0.00  0.00    +0.000 A 
ATOM      3  C   UNL     1      46.187   6.270  11.965  0.00  0.00    +0.000 A 
ATOM      4  C   UNL     1      46.978   6.292  13.117  0.00  0.00    +0.000 A 
ATOM      5  C   UNL     1      47.040   5.178  13.958  0.00  0.00    +0.000 A 
ATOM      6  C   UNL     1      46.316   4.034  13.632  0.00  0.00    +0.000 A 
ATOM      7  C   UNL     1      45.527   4.017  12.482  0.00  0.00    +0.000 A 
ATOM      8  F   UNL     1      44.830   2.900  12.220  0.00  0.00    +0.000 F 
BRANCH   2  10
ATOM      9  N   UNL     1      43.296   5.449  10.616  0.00  0.00    +0.000 NA
ATOM     10  C   UNL     1      44.547   5.137  10.447  0.00  0.00    +0.000 C 
ATOM     11  N   UNL     1      45.041   4.822   9.195  0.00  0.00    +0.000 N 
ATOM     12  H   UNL     1      42.843   5.358   9.703  0.00  0.00    +0.000 HD
ATOM     13  H   UNL     1      45.937   4.327   9.183  0.00  0.00    +0.000 HD
BRANCH  11  14
ATOM     14  O   UNL     1      44.086   4.255   8.346  0.00  0.00    +0.000 OA
ATOM     15  H   UNL     1      43.706   3.540   8.890  0.00  0.00    +0.000 HD
ENDBRANCH  11  14
ENDBRANCH   2  10
ENDBRANCH   1   5
BRANCH   1  16
ATOM     16  C   UNL     1      47.590   4.449  16.154  0.00  0.00    +0.000 C 
BRANCH  16  17
ATOM     17  C   UNL     1      48.918   4.038  16.737  0.00  0.00    +0.000 A 
ATOM     18  C   UNL     1      49.251   2.698  16.924  0.00  0.00    +0.000 A 
ATOM     19  C   UNL     1      50.478   2.373  17.482  0.00  0.00    +0.000 A 
ATOM     20  F   UNL     1      50.806   1.086  17.644  0.00  0.00    +0.000 F 
ATOM     21  C   UNL     1      51.378   3.363  17.881  0.00  0.00    +0.000 A 
ATOM     22  C   UNL     1      51.062   4.724  17.728  0.00  0.00    +0.000 A 
ATOM     23  C   UNL     1      49.834   5.033  17.124  0.00  0.00    +0.000 A 
BRANCH  22  24
ATOM     24  C   UNL     1      52.059   5.792  18.178  0.00  0.00    +0.000 C 
ATOM     25  C   UNL     1      51.911   7.113  17.394  0.00  0.00    +0.000 C 
ATOM     26  C   UNL     1      52.529   7.026  15.998  0.00  0.00    +0.000 C 
ATOM     27  N   UNL     1      53.945   6.661  16.049  0.00  0.00    +0.000 NA
ATOM     28  C   UNL     1      54.147   5.391  16.743  0.00  0.00    +0.000 C 
ATOM     29  C   UNL     1      53.550   5.394  18.154  0.00  0.00    +0.000 C 
ATOM     30  H   UNL     1      54.468   7.393  16.527  0.00  0.00    +0.000 HD
ENDBRANCH  22  24
ENDBRANCH  16  17
ENDBRANCH   1  16
TORSDOF 6
ENDMDL
MODEL 9
REMARK VINA RESULT:    -6.907      4.762      6.502
REMARK INTER + INTRA:          -9.497
REMARK INTER:                  -8.836
REMARK INTRA:                  -0.661
REMARK UNBOUND:                -0.369
REMARK  Name = 
REMARK  6 active torsions:
REMARK  status: ('A' for Active; 'I' for Inactive)
REMARK    1  A    between atoms: C_2  and  C_5
REMARK    2  A    between atoms: N_3  and  O_4
REMARK    3  A    between atoms: C_8  and  O_9
REMARK    4  A    between atoms: O_9  and  C_10
REMARK    5  A    between atoms: C_10  and  C_11
REMARK    6  A    between atoms: C_16  and  C_17
REMARK                            x       y       z     vdW  Elec       q    Type
REMARK                         _______ _______ _______ _____ _____    ______ ____
ROOT
ATOM      1  O   UNL     1      47.788   4.983  15.004  0.00  0.00    +0.000 OA
ENDROOT
BRANCH   1   5
ATOM      2  C   UNL     1      45.410   5.015  11.573  0.00  0.00    +0.000 A 
ATOM      3  C   UNL     1      46.160   6.129  11.970  0.00  0.00    +0.000 A 
ATOM      4  C   UNL     1      46.948   6.071  13.123  0.00  0.00    +0.000 A 
ATOM      5  C   UNL     1      46.999   4.905  13.891  0.00  0.00    +0.000 A 
ATOM      6  C   UNL     1      46.268   3.790  13.491  0.00  0.00    +0.000 A 
ATOM      7  C   UNL     1      45.482   3.853  12.340  0.00  0.00    +0.000 A 
ATOM      8  F   UNL     1      44.778   2.760  12.004  0.00  0.00    +0.000 F 
BRANCH   2  10
ATOM      9  N   UNL     1      43.295   5.517  10.551  0.00  0.00    +0.000 NA
ATOM     10  C   UNL     1      44.517   5.108  10.378  0.00  0.00    +0.000 C 
ATOM     11  N   UNL     1      44.985   4.767   9.123  0.00  0.00    +0.000 N 
ATOM     12  H   UNL     1      42.837   5.471   9.637  0.00  0.00    +0.000 HD
ATOM     13  H   UNL     1      45.838   4.203   9.105  0.00  0.00    +0.000 HD
BRANCH  11  14
ATOM     14  O   UNL     1      43.988   4.287   8.269  0.00  0.00    +0.000 OA
ATOM     15  H   UNL     1      43.165   4.565   8.713  0.00  0.00    +0.000 HD
ENDBRANCH  11  14
ENDBRANCH   2  10
ENDBRANCH   1   5
BRANCH   1  16
ATOM     16  C   UNL     1      47.343   4.274  16.159  0.00  0.00    +0.000 C 
BRANCH  16  17
ATOM     17  C   UNL     1      47.965   4.908  17.376  0.00  0.00    +0.000 A 
ATOM     18  C   UNL     1      47.189   5.380  18.433  0.00  0.00    +0.000 A 
ATOM     19  C   UNL     1      47.810   5.974  19.522  0.00  0.00    +0.000 A 
ATOM     20  F   UNL     1      47.066   6.409  20.545  0.00  0.00    +0.000 F 
ATOM     21  C   UNL     1      49.196   6.129  19.569  0.00  0.00    +0.000 A 
ATOM     22  C   UNL     1      50.005   5.686  18.509  0.00  0.00    +0.000 A 
ATOM     23  C   UNL     1      49.364   5.051  17.436  0.00  0.00    +0.000 A 
BRANCH  22  24
ATOM     24  C   UNL     1      51.521   5.872  18.580  0.00  0.00    +0.000 C 
ATOM     25  C   UNL     1      52.289   4.810  17.766  0.00  0.00    +0.000 C 
ATOM     26  C   UNL     1      52.352   3.464  18.489  0.00  0.00    +0.000 C 
ATOM     27  N   UNL     1      52.966   3.583  19.812  0.00  0.00    +0.000 NA
ATOM     28  C   UNL     1      52.253   4.545  20.650  0.00  0.00    +0.000 C 
ATOM     29  C   UNL     1      52.142   5.924  19.992  0.00  0.00    +0.000 C 
ATOM     30  H   UNL     1      53.935   3.878  19.712  0.00  0.00    +0.000 HD
ENDBRANCH  22  24
ENDBRANCH  16  17
ENDBRANCH   1  16
TORSDOF 6
ENDMDL
