MODEL 1
REMARK VINA RESULT:    -7.823      0.000      0.000
REMARK INTER + INTRA:         -11.486
REMARK INTER:                 -11.025
REMARK INTRA:                  -0.461
REMARK UNBOUND:                -0.461
REMARK  Name = 
REMARK  9 active torsions:
REMARK  status: ('A' for Active; 'I' for Inactive)
REMARK    1  A    between atoms: C_1  and  C_2
REMARK    2  A    between atoms: C_2  and  C_3
REMARK    3  A    between atoms: C_2  and  N_18
REMARK    4  A    between atoms: C_3  and  C_4
REMARK    5  A    between atoms: C_4  and  C_5
REMARK    6  A    between atoms: C_10  and  O_11
REMARK    7  A    between atoms: O_11  and  C_12
REMARK    8  A    between atoms: N_14  and  C_15
REMARK    9  A    between atoms: C_22  and  C_23
REMARK                            x       y       z     vdW  Elec       q    Type
REMARK                         _______ _______ _______ _____ _____    ______ ____
ROOT
ATOM      1  C   UNL     1      42.524   5.154  11.628  0.00  0.00    +0.000 C 
ATOM      2  C   UNL     1      43.622   5.048  10.565  0.00  0.00    +0.000 C 
ENDROOT
BRANCH   2   3
ATOM      3  N   UNL     1      44.035   3.650  10.404  0.00  0.00    +0.000 N 
ATOM      4  C   UNL     1      44.848   3.358   9.299  0.00  0.00    +0.000 A 
ATOM      5  C   UNL     1      45.283   2.045   9.130  0.00  0.00    +0.000 A 
ATOM      6  C   UNL     1      46.144   1.731   8.074  0.00  0.00    +0.000 A 
ATOM      7  C   UNL     1      46.559   2.732   7.198  0.00  0.00    +0.000 A 
ATOM      8  C   UNL     1      46.081   4.009   7.440  0.00  0.00    +0.000 A 
ATOM      9  N   UNL     1      45.250   4.336   8.464  0.00  0.00    +0.000 NA
ATOM     10  H   UNL     1      43.252   3.002  10.435  0.00  0.00    +0.000 HD
BRANCH   7  11
ATOM     11  C   UNL     1      47.482   2.392   6.088  0.00  0.00    +0.000 C 
ATOM     12  N   UNL     1      48.829   2.375   6.321  0.00  0.00    +0.000 N 
ATOM     13  O   UNL     1      47.055   2.131   4.970  0.00  0.00    +0.000 OA
ATOM     14  H   UNL     1      49.288   2.599   7.191  0.00  0.00    +0.000 HD
ATOM     15  H   UNL     1      49.420   2.142   5.532  0.00  0.00    +0.000 HD
ENDBRANCH   7  11
ENDBRANCH   2   3
BRANCH   2  16
ATOM     16  C   UNL     1      44.834   5.892  11.001  0.00  0.00    +0.000 C 
BRANCH  16  17
ATOM     17  C   UNL     1      45.428   5.439  12.339  0.00  0.00    +0.000 C 
BRANCH  17  18
ATOM     18  C   UNL     1      46.713   6.175  12.640  0.00  0.00    +0.000 A 
ATOM     19  C   UNL     1      47.224   7.128  11.752  0.00  0.00    +0.000 A 
ATOM     20  C   UNL     1      48.427   7.767  12.039  0.00  0.00    +0.000 A 
ATOM     21  F   UNL     1      48.910   8.673  11.179  0.00  0.00    +0.000 F 
ATOM     22  C   UNL     1      49.136   7.482  13.201  0.00  0.00    +0.000 A 
ATOM     23  C   UNL     1      48.630   6.544  14.098  0.00  0.00    +0.000 A 
ATOM     24  C   UNL     1      47.435   5.879  13.808  0.00  0.00    +0.000 A 
BRANCH  23  25
ATOM     25  O   UNL     1      49.377   6.317  15.229  0.00  0.00    +0.000 OA
BRANCH  25  26
ATOM     26  C   UNL     1      48.665   6.003  16.452  0.00  0.00    +0.000 C 
ATOM     27  C   UNL     1      48.808   6.991  17.633  0.00  0.00    +0.000 C 
ATOM     28  N   UNL     1      49.148   5.879  18.540  0.00  0.00    +0.000 NA
ATOM     29  C   UNL     1      47.980   5.481  19.323  0.00  0.00    +0.000 C 
ATOM     30  C   UNL     1      49.342   4.978  17.385  0.00  0.00    +0.000 C 
ENDBRANCH  25  26
ENDBRANCH  23  25
ENDBRANCH  17  18
ENDBRANCH  16  17
ENDBRANCH   2  16
TORSDOF 7
ENDMDL
MODEL 2
REMARK VINA RESULT:    -7.645      3.272      5.102
REMARK INTER + INTRA:         -11.235
REMARK INTER:                 -10.297
REMARK INTRA:                  -0.937
REMARK UNBOUND:                -0.461
REMARK  Name = 
REMARK  9 active torsions:
REMARK  status: ('A' for Active; 'I' for Inactive)
REMARK    1  A    between atoms: C_1  and  C_2
REMARK    2  A    between atoms: C_2  and  C_3
REMARK    3  A    between atoms: C_2  and  N_18
REMARK    4  A    between atoms: C_3  and  C_4
REMARK    5  A    between atoms: C_4  and  C_5
REMARK    6  A    between atoms: C_10  and  O_11
REMARK    7  A    between atoms: O_11  and  C_12
REMARK    8  A    between atoms: N_14  and  C_15
REMARK    9  A    between atoms: C_22  and  C_23
REMARK                            x       y       z     vdW  Elec       q    Type
REMARK                         _______ _______ _______ _____ _____    ______ ____
ROOT
ATOM      1  C   UNL     1      42.476   5.481  11.505  0.00  0.00    +0.000 C 
ATOM      2  C   UNL     1      43.965   5.166  11.332  0.00  0.00    +0.000 C 
ENDROOT
BRANCH   2   3
ATOM      3  N   UNL     1      44.142   3.766  10.934  0.00  0.00    +0.000 N 
ATOM      4  C   UNL     1      44.864   3.533   9.754  0.00  0.00    +0.000 A 
ATOM      5  C   UNL     1      45.075   2.214   9.360  0.00  0.00    +0.000 A 
ATOM      6  C   UNL     1      45.843   1.945   8.224  0.00  0.00    +0.000 A 
ATOM      7  C   UNL     1      46.388   2.997   7.491  0.00  0.00    +0.000 A 
ATOM      8  C   UNL     1      46.132   4.277   7.954  0.00  0.00    +0.000 A 
ATOM      9  N   UNL     1      45.394   4.559   9.060  0.00  0.00    +0.000 NA
ATOM     10  H   UNL     1      43.265   3.250  10.907  0.00  0.00    +0.000 HD
BRANCH   7  11
ATOM     11  C   UNL     1      47.211   2.701   6.293  0.00  0.00    +0.000 C 
ATOM     12  N   UNL     1      48.556   2.503   6.439  0.00  0.00    +0.000 N 
ATOM     13  O   UNL     1      46.705   2.637   5.180  0.00  0.00    +0.000 OA
ATOM     14  H   UNL     1      49.079   2.560   7.300  0.00  0.00    +0.000 HD
ATOM     15  H   UNL     1      49.077   2.309   5.592  0.00  0.00    +0.000 HD
ENDBRANCH   7  11
ENDBRANCH   2   3
BRANCH   2  16
ATOM     16  C   UNL     1      44.696   5.414  12.664  0.00  0.00    +0.000 C 
BRANCH  16  17
ATOM     17  C   UNL     1      46.207   5.604  12.492  0.00  0.00    +0.000 C 
BRANCH  17  18
ATOM     18  C   UNL     1      46.555   7.064  12.321  0.00  0.00    +0.000 A 
ATOM     19  C   UNL     1      47.878   7.472  12.112  0.00  0.00    +0.000 A 
ATOM     20  C   UNL     1      48.173   8.827  11.991  0.00  0.00    +0.000 A 
ATOM     21  F   UNL     1      49.443   9.206  11.798  0.00  0.00    +0.000 F 
ATOM     22  C   UNL     1      47.175   9.792  12.067  0.00  0.00    +0.000 A 
ATOM     23  C   UNL     1      45.854   9.396  12.261  0.00  0.00    +0.000 A 
ATOM     24  C   UNL     1      45.549   8.041  12.408  0.00  0.00    +0.000 A 
BRANCH  23  25
ATOM     25  O   UNL     1      44.918  10.402  12.318  0.00  0.00    +0.000 OA
BRANCH  25  26
ATOM     26  C   UNL     1      43.922  10.452  11.267  0.00  0.00    +0.000 C 
ATOM     27  C   UNL     1      44.270  11.257   9.993  0.00  0.00    +0.000 C 
ATOM     28  N   UNL     1      42.990  11.982  10.085  0.00  0.00    +0.000 NA
ATOM     29  C   UNL     1      42.008  11.408   9.166  0.00  0.00    +0.000 C 
ATOM     30  C   UNL     1      42.787  11.479  11.458  0.00  0.00    +0.000 C 
ENDBRANCH  25  26
ENDBRANCH  23  25
ENDBRANCH  17  18
ENDBRANCH  16  17
ENDBRANCH   2  16
TORSDOF 7
ENDMDL
MODEL 3
REMARK VINA RESULT:    -7.496      1.644      2.188
REMARK INTER + INTRA:         -11.025
REMARK INTER:                 -11.672
REMARK INTRA:                   0.647
REMARK UNBOUND:                -0.461
REMARK  Name = 
REMARK  9 active torsions:
REMARK  status: ('A' for Active; 'I' for Inactive)
REMARK    1  A    between atoms: C_1  and  C_2
REMARK    2  A    between atoms: C_2  and  C_3
REMARK    3  A    between atoms: C_2  and  N_18
REMARK    4  A    between atoms: C_3  and  C_4
REMARK    5  A    between atoms: C_4  and  C_5
REMARK    6  A    between atoms: C_10  and  O_11
REMARK    7  A    between atoms: O_11  and  C_12
REMARK    8  A    between atoms: N_14  and  C_15
REMARK    9  A    between atoms: C_22  and  C_23
REMARK                            x       y       z     vdW  Elec       q    Type
REMARK                         _______ _______ _______ _____ _____    ______ ____
ROOT
ATOM      1  C   UNL     1      43.913   2.937  11.211  0.00  0.00    +0.000 C 
ATOM      2  C   UNL     1      43.290   4.231  10.677  0.00  0.00    +0.000 C 
ENDROOT
BRANCH   2   3
ATOM      3  N   UNL     1      44.232   4.911   9.781  0.00  0.00    +0.000 N 
ATOM      4  C   UNL     1      45.074   4.093   9.014  0.00  0.00    +0.000 A 
ATOM      5  C   UNL     1      45.961   4.704   8.131  0.00  0.00    +0.000 A 
ATOM      6  C   UNL     1      46.771   3.917   7.307  0.00  0.00    +0.000 A 
ATOM      7  C   UNL     1      46.687   2.527   7.376  0.00  0.00    +0.000 A 
ATOM      8  C   UNL     1      45.777   2.003   8.279  0.00  0.00    +0.000 A 
ATOM      9  N   UNL     1      44.976   2.751   9.083  0.00  0.00    +0.000 NA
ATOM     10  H   UNL     1      44.784   5.622  10.255  0.00  0.00    +0.000 HD
BRANCH   7  11
ATOM     11  C   UNL     1      47.542   1.701   6.490  0.00  0.00    +0.000 C 
ATOM     12  N   UNL     1      48.697   2.234   5.990  0.00  0.00    +0.000 N 
ATOM     13  O   UNL     1      47.225   0.555   6.197  0.00  0.00    +0.000 OA
ATOM     14  H   UNL     1      49.039   3.171   6.143  0.00  0.00    +0.000 HD
ATOM     15  H   UNL     1      49.246   1.634   5.386  0.00  0.00    +0.000 HD
ENDBRANCH   7  11
ENDBRANCH   2   3
BRANCH   2  16
ATOM     16  C   UNL     1      42.950   5.157  11.858  0.00  0.00    +0.000 C 
BRANCH  16  17
ATOM     17  C   UNL     1      43.843   6.401  11.920  0.00  0.00    +0.000 C 
BRANCH  17  18
ATOM     18  C   UNL     1      45.186   6.075  12.532  0.00  0.00    +0.000 A 
ATOM     19  C   UNL     1      46.349   6.727  12.110  0.00  0.00    +0.000 A 
ATOM     20  C   UNL     1      47.577   6.383  12.669  0.00  0.00    +0.000 A 
ATOM     21  F   UNL     1      48.685   7.009  12.251  0.00  0.00    +0.000 F 
ATOM     22  C   UNL     1      47.674   5.403  13.650  0.00  0.00    +0.000 A 
ATOM     23  C   UNL     1      46.520   4.757  14.087  0.00  0.00    +0.000 A 
ATOM     24  C   UNL     1      45.285   5.077  13.516  0.00  0.00    +0.000 A 
BRANCH  23  25
ATOM     25  O   UNL     1      46.687   3.805  15.064  0.00  0.00    +0.000 OA
BRANCH  25  26
ATOM     26  C   UNL     1      47.685   4.058  16.084  0.00  0.00    +0.000 C 
ATOM     27  C   UNL     1      48.304   2.832  16.795  0.00  0.00    +0.000 C 
ATOM     28  N   UNL     1      48.023   3.437  18.111  0.00  0.00    +0.000 NA
ATOM     29  C   UNL     1      49.228   4.061  18.654  0.00  0.00    +0.000 C 
ATOM     30  C   UNL     1      47.146   4.442  17.478  0.00  0.00    +0.000 C 
ENDBRANCH  25  26
ENDBRANCH  23  25
ENDBRANCH  17  18
ENDBRANCH  16  17
ENDBRANCH   2  16
TORSDOF 7
ENDMDL
MODEL 4
REMARK VINA RESULT:    -7.245      2.643      9.038
REMARK INTER + INTRA:         -10.672
REMARK INTER:                 -10.356
REMARK INTRA:                  -0.316
REMARK UNBOUND:                -0.461
REMARK  Name = 
REMARK  9 active torsions:
REMARK  status: ('A' for Active; 'I' for Inactive)
REMARK    1  A    between atoms: C_1  and  C_2
REMARK    2  A    between atoms: C_2  and  C_3
REMARK    3  A    between atoms: C_2  and  N_18
REMARK    4  A    between atoms: C_3  and  C_4
REMARK    5  A    between atoms: C_4  and  C_5
REMARK    6  A    between atoms: C_10  and  O_11
REMARK    7  A    between atoms: O_11  and  C_12
REMARK    8  A    between atoms: N_14  and  C_15
REMARK    9  A    between atoms: C_22  and  C_23
REMARK                            x       y       z     vdW  Elec       q    Type
REMARK                         _______ _______ _______ _____ _____    ______ ____
ROOT
ATOM      1  C   UNL     1      48.651   6.586  12.528  0.00  0.00    +0.000 C 
ATOM      2  C   UNL     1      47.242   6.700  13.118  0.00  0.00    +0.000 C 
ENDROOT
BRANCH   2   3
ATOM      3  N   UNL     1      46.849   5.428  13.734  0.00  0.00    +0.000 N 
ATOM      4  C   UNL     1      47.477   5.093  14.942  0.00  0.00    +0.000 A 
ATOM      5  C   UNL     1      47.108   3.906  15.570  0.00  0.00    +0.000 A 
ATOM      6  C   UNL     1      47.669   3.573  16.806  0.00  0.00    +0.000 A 
ATOM      7  C   UNL     1      48.596   4.428  17.399  0.00  0.00    +0.000 A 
ATOM      8  C   UNL     1      48.904   5.588  16.709  0.00  0.00    +0.000 A 
ATOM      9  N   UNL     1      48.364   5.933  15.510  0.00  0.00    +0.000 NA
ATOM     10  H   UNL     1      46.906   4.643  13.089  0.00  0.00    +0.000 HD
BRANCH   7  11
ATOM     11  C   UNL     1      49.177   4.071  18.716  0.00  0.00    +0.000 C 
ATOM     12  N   UNL     1      48.424   3.359  19.608  0.00  0.00    +0.000 N 
ATOM     13  O   UNL     1      50.316   4.408  19.016  0.00  0.00    +0.000 OA
ATOM     14  H   UNL     1      47.471   3.055  19.477  0.00  0.00    +0.000 HD
ATOM     15  H   UNL     1      48.861   3.143  20.496  0.00  0.00    +0.000 HD
ENDBRANCH   7  11
ENDBRANCH   2   3
BRANCH   2  16
ATOM     16  C   UNL     1      46.248   7.052  11.996  0.00  0.00    +0.000 C 
BRANCH  16  17
ATOM     17  C   UNL     1      44.924   6.288  12.107  0.00  0.00    +0.000 C 
BRANCH  17  18
ATOM     18  C   UNL     1      44.852   5.174  11.089  0.00  0.00    +0.000 A 
ATOM     19  C   UNL     1      44.175   3.982  11.370  0.00  0.00    +0.000 A 
ATOM     20  C   UNL     1      44.154   2.960  10.425  0.00  0.00    +0.000 A 
ATOM     21  F   UNL     1      43.509   1.821  10.708  0.00  0.00    +0.000 F 
ATOM     22  C   UNL     1      44.789   3.099   9.196  0.00  0.00    +0.000 A 
ATOM     23  C   UNL     1      45.455   4.287   8.902  0.00  0.00    +0.000 A 
ATOM     24  C   UNL     1      45.503   5.310   9.852  0.00  0.00    +0.000 A 
BRANCH  23  25
ATOM     25  O   UNL     1      46.054   4.360   7.667  0.00  0.00    +0.000 OA
BRANCH  25  26
ATOM     26  C   UNL     1      46.190   3.130   6.913  0.00  0.00    +0.000 C 
ATOM     27  C   UNL     1      47.367   2.196   7.280  0.00  0.00    +0.000 C 
ATOM     28  N   UNL     1      47.767   2.121   5.863  0.00  0.00    +0.000 NA
ATOM     29  C   UNL     1      47.283   0.881   5.259  0.00  0.00    +0.000 C 
ATOM     30  C   UNL     1      46.875   3.251   5.536  0.00  0.00    +0.000 C 
ENDBRANCH  25  26
ENDBRANCH  23  25
ENDBRANCH  17  18
ENDBRANCH  16  17
ENDBRANCH   2  16
TORSDOF 7
ENDMDL
MODEL 5
REMARK VINA RESULT:    -6.915      3.246      3.977
REMARK INTER + INTRA:         -10.206
REMARK INTER:                  -9.769
REMARK INTRA:                  -0.437
REMARK UNBOUND:                -0.461
REMARK  Name = 
REMARK  9 active torsions:
REMARK  status: ('A' for Active; 'I' for Inactive)
REMARK    1  A    between atoms: C_1  and  C_2
REMARK    2  A    between atoms: C_2  and  C_3
REMARK    3  A    between atoms: C_2  and  N_18
REMARK    4  A    between atoms: C_3  and  C_4
REMARK    5  A    between atoms: C_4  and  C_5
REMARK    6  A    between atoms: C_10  and  O_11
REMARK    7  A    between atoms: O_11  and  C_12
REMARK    8  A    between atoms: N_14  and  C_15
REMARK    9  A    between atoms: C_22  and  C_23
REMARK                            x       y       z     vdW  Elec       q    Type
REMARK                         _______ _______ _______ _____ _____    ______ ____
ROOT
ATOM      1  C   UNL     1      42.730   5.390  11.578  0.00  0.00    +0.000 C 
ATOM      2  C   UNL     1      43.886   5.180  10.595  0.00  0.00    +0.000 C 
ENDROOT
BRANCH   2   3
ATOM      3  N   UNL     1      44.129   3.746  10.401  0.00  0.00    +0.000 N 
ATOM      4  C   UNL     1      44.931   3.386   9.309  0.00  0.00    +0.000 A 
ATOM      5  C   UNL     1      45.206   2.035   9.110  0.00  0.00    +0.000 A 
ATOM      6  C   UNL     1      46.051   1.646   8.067  0.00  0.00    +0.000 A 
ATOM      7  C   UNL     1      46.611   2.612   7.232  0.00  0.00    +0.000 A 
ATOM      8  C   UNL     1      46.288   3.931   7.502  0.00  0.00    +0.000 A 
ATOM      9  N   UNL     1      45.473   4.330   8.514  0.00  0.00    +0.000 NA
ATOM     10  H   UNL     1      43.271   3.199  10.393  0.00  0.00    +0.000 HD
BRANCH   7  11
ATOM     11  C   UNL     1      47.516   2.190   6.136  0.00  0.00    +0.000 C 
ATOM     12  N   UNL     1      48.857   2.436   6.245  0.00  0.00    +0.000 N 
ATOM     13  O   UNL     1      47.081   1.632   5.137  0.00  0.00    +0.000 OA
ATOM     14  H   UNL     1      49.318   2.911   7.007  0.00  0.00    +0.000 HD
ATOM     15  H   UNL     1      49.435   2.135   5.470  0.00  0.00    +0.000 HD
ENDBRANCH   7  11
ENDBRANCH   2   3
BRANCH   2  16
ATOM     16  C   UNL     1      45.157   5.841  11.158  0.00  0.00    +0.000 C 
BRANCH  16  17
ATOM     17  C   UNL     1      44.887   6.701  12.397  0.00  0.00    +0.000 C 
BRANCH  17  18
ATOM     18  C   UNL     1      45.618   8.021  12.313  0.00  0.00    +0.000 A 
ATOM     19  C   UNL     1      44.951   9.193  11.939  0.00  0.00    +0.000 A 
ATOM     20  C   UNL     1      45.657  10.389  11.837  0.00  0.00    +0.000 A 
ATOM     21  F   UNL     1      45.010  11.502  11.472  0.00  0.00    +0.000 F 
ATOM     22  C   UNL     1      47.020  10.447  12.107  0.00  0.00    +0.000 A 
ATOM     23  C   UNL     1      47.690   9.288  12.493  0.00  0.00    +0.000 A 
ATOM     24  C   UNL     1      46.996   8.078  12.574  0.00  0.00    +0.000 A 
BRANCH  23  25
ATOM     25  O   UNL     1      49.034   9.419  12.752  0.00  0.00    +0.000 OA
BRANCH  25  26
ATOM     26  C   UNL     1      49.961   8.936  11.749  0.00  0.00    +0.000 C 
ATOM     27  C   UNL     1      51.325   8.398  12.240  0.00  0.00    +0.000 C 
ATOM     28  N   UNL     1      52.029   9.254  11.266  0.00  0.00    +0.000 NA
ATOM     29  C   UNL     1      52.415   8.478  10.088  0.00  0.00    +0.000 C 
ATOM     30  C   UNL     1      50.787  10.012  11.015  0.00  0.00    +0.000 C 
ENDBRANCH  25  26
ENDBRANCH  23  25
ENDBRANCH  17  18
ENDBRANCH  16  17
ENDBRANCH   2  16
TORSDOF 7
ENDMDL
MODEL 6
REMARK VINA RESULT:    -6.717      3.331      8.832
REMARK INTER + INTRA:          -9.927
REMARK INTER:                  -9.588
REMARK INTRA:                  -0.339
REMARK UNBOUND:                -0.461
REMARK  Name = 
REMARK  9 active torsions:
REMARK  status: ('A' for Active; 'I' for Inactive)
REMARK    1  A    between atoms: C_1  and  C_2
REMARK    2  A    between atoms: C_2  and  C_3
REMARK    3  A    between atoms: C_2  and  N_18
REMARK    4  A    between atoms: C_3  and  C_4
REMARK    5  A    between atoms: C_4  and  C_5
REMARK    6  A    between atoms: C_10  and  O_11
REMARK    7  A    between atoms: O_11  and  C_12
REMARK    8  A    between atoms: N_14  and  C_15
REMARK    9  A    between atoms: C_22  and  C_23
REMARK                            x       y       z     vdW  Elec       q    Type
REMARK                         _______ _______ _______ _____ _____    ______ ____
ROOT
ATOM      1  C   UNL     1      47.319   5.155  18.163  0.00  0.00    +0.000 C 
ATOM      2  C   UNL     1      48.300   4.625  17.112  0.00  0.00    +0.000 C 
ENDROOT
BRANCH   2   3
ATOM      3  N   UNL     1      49.680   4.899  17.527  0.00  0.00    +0.000 N 
ATOM      4  C   UNL     1      50.546   3.798  17.598  0.00  0.00    +0.000 A 
ATOM      5  C   UNL     1      51.871   4.024  17.962  0.00  0.00    +0.000 A 
ATOM      6  C   UNL     1      52.776   2.959  17.983  0.00  0.00    +0.000 A 
ATOM      7  C   UNL     1      52.344   1.677  17.643  0.00  0.00    +0.000 A 
ATOM      8  C   UNL     1      51.012   1.541  17.292  0.00  0.00    +0.000 A 
ATOM      9  N   UNL     1      50.119   2.566  17.259  0.00  0.00    +0.000 NA
ATOM     10  H   UNL     1      49.733   5.434  18.391  0.00  0.00    +0.000 HD
BRANCH   7  11
ATOM     11  C   UNL     1      53.314   0.556  17.657  0.00  0.00    +0.000 C 
ATOM     12  N   UNL     1      53.036  -0.558  18.400  0.00  0.00    +0.000 N 
ATOM     13  O   UNL     1      54.358   0.616  17.020  0.00  0.00    +0.000 OA
ATOM     14  H   UNL     1      52.224  -0.702  18.981  0.00  0.00    +0.000 HD
ATOM     15  H   UNL     1      53.730  -1.296  18.382  0.00  0.00    +0.000 HD
ENDBRANCH   7  11
ENDBRANCH   2   3
BRANCH   2  16
ATOM     16  C   UNL     1      48.025   5.317  15.765  0.00  0.00    +0.000 C 
BRANCH  16  17
ATOM     17  C   UNL     1      47.066   4.525  14.870  0.00  0.00    +0.000 C 
BRANCH  17  18
ATOM     18  C   UNL     1      46.606   5.357  13.696  0.00  0.00    +0.000 A 
ATOM     19  C   UNL     1      47.352   6.454  13.251  0.00  0.00    +0.000 A 
ATOM     20  C   UNL     1      46.886   7.223  12.188  0.00  0.00    +0.000 A 
ATOM     21  F   UNL     1      47.606   8.274  11.776  0.00  0.00    +0.000 F 
ATOM     22  C   UNL     1      45.690   6.920  11.549  0.00  0.00    +0.000 A 
ATOM     23  C   UNL     1      44.945   5.823  11.975  0.00  0.00    +0.000 A 
ATOM     24  C   UNL     1      45.391   5.059  13.057  0.00  0.00    +0.000 A 
BRANCH  23  25
ATOM     25  O   UNL     1      43.777   5.577  11.294  0.00  0.00    +0.000 OA
BRANCH  25  26
ATOM     26  C   UNL     1      43.770   4.478  10.349  0.00  0.00    +0.000 C 
ATOM     27  C   UNL     1      43.945   3.050  10.916  0.00  0.00    +0.000 C 
ATOM     28  N   UNL     1      45.015   2.778   9.938  0.00  0.00    +0.000 NA
ATOM     29  C   UNL     1      44.493   2.009   8.809  0.00  0.00    +0.000 C 
ATOM     30  C   UNL     1      45.097   4.215   9.607  0.00  0.00    +0.000 C 
ENDBRANCH  25  26
ENDBRANCH  23  25
ENDBRANCH  17  18
ENDBRANCH  16  17
ENDBRANCH   2  16
TORSDOF 7
ENDMDL
MODEL 7
REMARK VINA RESULT:    -6.443      4.083      7.363
REMARK INTER + INTRA:          -9.541
REMARK INTER:                  -8.354
REMARK INTRA:                  -1.186
REMARK UNBOUND:                -0.461
REMARK  Name = 
REMARK  9 active torsions:
REMARK  status: ('A' for Active; 'I' for Inactive)
REMARK    1  A    between atoms: C_1  and  C_2
REMARK    2  A    between atoms: C_2  and  C_3
REMARK    3  A    between atoms: C_2  and  N_18
REMARK    4  A    between atoms: C_3  and  C_4
REMARK    5  A    between atoms: C_4  and  C_5
REMARK    6  A    between atoms: C_10  and  O_11
REMARK    7  A    between atoms: O_11  and  C_12
REMARK    8  A    between atoms: N_14  and  C_15
REMARK    9  A    between atoms: C_22  and  C_23
REMARK                            x       y       z     vdW  Elec       q    Type
REMARK                         _______ _______ _______ _____ _____    ______ ____
ROOT
ATOM      1  C   UNL     1      50.372   7.634  11.423  0.00  0.00    +0.000 C 
ATOM      2  C   UNL     1      49.336   7.929  12.514  0.00  0.00    +0.000 C 
ENDROOT
BRANCH   2   3
ATOM      3  N   UNL     1      48.851   9.307  12.388  0.00  0.00    +0.000 N 
ATOM      4  C   UNL     1      47.489   9.471  12.094  0.00  0.00    +0.000 A 
ATOM      5  C   UNL     1      46.987  10.766  11.995  0.00  0.00    +0.000 A 
ATOM      6  C   UNL     1      45.623  10.965  11.764  0.00  0.00    +0.000 A 
ATOM      7  C   UNL     1      44.776   9.866  11.630  0.00  0.00    +0.000 A 
ATOM      8  C   UNL     1      45.357   8.615  11.745  0.00  0.00    +0.000 A 
ATOM      9  N   UNL     1      46.679   8.401  11.976  0.00  0.00    +0.000 NA
ATOM     10  H   UNL     1      49.410   9.865  11.747  0.00  0.00    +0.000 HD
BRANCH   7  11
ATOM     11  C   UNL     1      43.328  10.087  11.397  0.00  0.00    +0.000 C 
ATOM     12  N   UNL     1      42.668  11.027  12.139  0.00  0.00    +0.000 N 
ATOM     13  O   UNL     1      42.719   9.440  10.555  0.00  0.00    +0.000 OA
ATOM     14  H   UNL     1      43.063  11.594  12.874  0.00  0.00    +0.000 HD
ATOM     15  H   UNL     1      41.679  11.139  11.948  0.00  0.00    +0.000 HD
ENDBRANCH   7  11
ENDBRANCH   2   3
BRANCH   2  16
ATOM     16  C   UNL     1      49.986   7.740  13.896  0.00  0.00    +0.000 C 
BRANCH  16  17
ATOM     17  C   UNL     1      48.974   7.797  15.046  0.00  0.00    +0.000 C 
BRANCH  17  18
ATOM     18  C   UNL     1      48.379   6.435  15.314  0.00  0.00    +0.000 A 
ATOM     19  C   UNL     1      48.687   5.729  16.482  0.00  0.00    +0.000 A 
ATOM     20  C   UNL     1      48.149   4.461  16.687  0.00  0.00    +0.000 A 
ATOM     21  F   UNL     1      48.456   3.793  17.806  0.00  0.00    +0.000 F 
ATOM     22  C   UNL     1      47.301   3.878  15.752  0.00  0.00    +0.000 A 
ATOM     23  C   UNL     1      46.978   4.577  14.592  0.00  0.00    +0.000 A 
ATOM     24  C   UNL     1      47.531   5.840  14.365  0.00  0.00    +0.000 A 
BRANCH  23  25
ATOM     25  O   UNL     1      46.129   3.945  13.715  0.00  0.00    +0.000 OA
BRANCH  25  26
ATOM     26  C   UNL     1      45.090   4.742  13.095  0.00  0.00    +0.000 C 
ATOM     27  C   UNL     1      43.655   4.165  13.091  0.00  0.00    +0.000 C 
ATOM     28  N   UNL     1      43.543   4.415  11.642  0.00  0.00    +0.000 NA
ATOM     29  C   UNL     1      42.793   5.645  11.391  0.00  0.00    +0.000 C 
ATOM     30  C   UNL     1      44.998   4.656  11.557  0.00  0.00    +0.000 C 
ENDBRANCH  25  26
ENDBRANCH  23  25
ENDBRANCH  17  18
ENDBRANCH  16  17
ENDBRANCH   2  16
TORSDOF 7
ENDMDL
MODEL 8
REMARK VINA RESULT:    -6.440      3.099      4.323
REMARK INTER + INTRA:          -9.537
REMARK INTER:                  -8.473
REMARK INTRA:                  -1.065
REMARK UNBOUND:                -0.461
REMARK  Name = 
REMARK  9 active torsions:
REMARK  status: ('A' for Active; 'I' for Inactive)
REMARK    1  A    between atoms: C_1  and  C_2
REMARK    2  A    between atoms: C_2  and  C_3
REMARK    3  A    between atoms: C_2  and  N_18
REMARK    4  A    between atoms: C_3  and  C_4
REMARK    5  A    between atoms: C_4  and  C_5
REMARK    6  A    between atoms: C_10  and  O_11
REMARK    7  A    between atoms: O_11  and  C_12
REMARK    8  A    between atoms: N_14  and  C_15
REMARK    9  A    between atoms: C_22  and  C_23
REMARK                            x       y       z     vdW  Elec       q    Type
REMARK                         _______ _______ _______ _____ _____    ______ ____
ROOT
ATOM      1  C   UNL     1      45.536   9.947  12.176  0.00  0.00    +0.000 C 
ATOM      2  C   UNL     1      46.419   8.705  12.020  0.00  0.00    +0.000 C 
ENDROOT
BRANCH   2   3
ATOM      3  N   UNL     1      46.020   7.678  12.988  0.00  0.00    +0.000 N 
ATOM      4  C   UNL     1      45.450   6.508  12.465  0.00  0.00    +0.000 A 
ATOM      5  C   UNL     1      45.085   5.499  13.353  0.00  0.00    +0.000 A 
ATOM      6  C   UNL     1      44.572   4.295  12.861  0.00  0.00    +0.000 A 
ATOM      7  C   UNL     1      44.426   4.115  11.487  0.00  0.00    +0.000 A 
ATOM      8  C   UNL     1      44.816   5.167  10.676  0.00  0.00    +0.000 A 
ATOM      9  N   UNL     1      45.324   6.342  11.134  0.00  0.00    +0.000 NA
ATOM     10  H   UNL     1      45.430   8.044  13.731  0.00  0.00    +0.000 HD
BRANCH   7  11
ATOM     11  C   UNL     1      43.891   2.830  10.974  0.00  0.00    +0.000 C 
ATOM     12  N   UNL     1      44.498   2.234   9.903  0.00  0.00    +0.000 N 
ATOM     13  O   UNL     1      42.916   2.301  11.492  0.00  0.00    +0.000 OA
ATOM     14  H   UNL     1      45.285   2.593   9.386  0.00  0.00    +0.000 HD
ATOM     15  H   UNL     1      44.094   1.361   9.586  0.00  0.00    +0.000 HD
ENDBRANCH   7  11
ENDBRANCH   2   3
BRANCH   2  16
ATOM     16  C   UNL     1      47.889   9.093  12.264  0.00  0.00    +0.000 C 
BRANCH  16  17
ATOM     17  C   UNL     1      48.845   7.898  12.183  0.00  0.00    +0.000 C 
BRANCH  17  18
ATOM     18  C   UNL     1      49.736   7.831  13.401  0.00  0.00    +0.000 A 
ATOM     19  C   UNL     1      51.041   8.336  13.369  0.00  0.00    +0.000 A 
ATOM     20  C   UNL     1      51.851   8.230  14.497  0.00  0.00    +0.000 A 
ATOM     21  F   UNL     1      53.100   8.710  14.453  0.00  0.00    +0.000 F 
ATOM     22  C   UNL     1      51.387   7.637  15.666  0.00  0.00    +0.000 A 
ATOM     23  C   UNL     1      50.085   7.144  15.712  0.00  0.00    +0.000 A 
ATOM     24  C   UNL     1      49.272   7.222  14.578  0.00  0.00    +0.000 A 
BRANCH  23  25
ATOM     25  O   UNL     1      49.690   6.578  16.900  0.00  0.00    +0.000 OA
BRANCH  25  26
ATOM     26  C   UNL     1      48.879   5.378  16.835  0.00  0.00    +0.000 C 
ATOM     27  C   UNL     1      47.738   5.232  17.869  0.00  0.00    +0.000 C 
ATOM     28  N   UNL     1      48.211   3.880  18.220  0.00  0.00    +0.000 NA
ATOM     29  C   UNL     1      47.406   2.865  17.544  0.00  0.00    +0.000 C 
ATOM     30  C   UNL     1      49.476   4.120  17.498  0.00  0.00    +0.000 C 
ENDBRANCH  25  26
ENDBRANCH  23  25
ENDBRANCH  17  18
ENDBRANCH  16  17
ENDBRANCH   2  16
TORSDOF 7
ENDMDL
MODEL 9
REMARK VINA RESULT:    -6.387      3.050      8.280
REMARK INTER + INTRA:          -9.462
REMARK INTER:                  -8.525
REMARK INTRA:                  -0.937
REMARK UNBOUND:                -0.461
REMARK  Name = 
REMARK  9 active torsions:
REMARK  status: ('A' for Active; 'I' for Inactive)
REMARK    1  A    between atoms: C_1  and  C_2
REMARK    2  A    between atoms: C_2  and  C_3
REMARK    3  A    between atoms: C_2  and  N_18
REMARK    4  A    between atoms: C_3  and  C_4
REMARK    5  A    between atoms: C_4  and  C_5
REMARK    6  A    between atoms: C_10  and  O_11
REMARK    7  A    between atoms: O_11  and  C_12
REMARK    8  A    between atoms: N_14  and  C_15
REMARK    9  A    between atoms: C_22  and  C_23
REMARK                            x       y       z     vdW  Elec       q    Type
REMARK                         _______ _______ _______ _____ _____    ______ ____
ROOT
ATOM      1  C   UNL     1      49.308  10.086  14.938  0.00  0.00    +0.000 C 
ATOM      2  C   UNL     1      49.510   8.659  14.417  0.00  0.00    +0.000 C 
ENDROOT
BRANCH   2   3
ATOM      3  N   UNL     1      50.562   7.985  15.185  0.00  0.00    +0.000 N 
ATOM      4  C   UNL     1      50.172   6.872  15.943  0.00  0.00    +0.000 A 
ATOM      5  C   UNL     1      51.150   6.189  16.663  0.00  0.00    +0.000 A 
ATOM      6  C   UNL     1      50.806   5.040  17.380  0.00  0.00    +0.000 A 
ATOM      7  C   UNL     1      49.489   4.585  17.371  0.00  0.00    +0.000 A 
ATOM      8  C   UNL     1      48.581   5.321  16.628  0.00  0.00    +0.000 A 
ATOM      9  N   UNL     1      48.896   6.437  15.919  0.00  0.00    +0.000 NA
ATOM     10  H   UNL     1      51.097   8.626  15.766  0.00  0.00    +0.000 HD
BRANCH   7  11
ATOM     11  C   UNL     1      49.137   3.358  18.126  0.00  0.00    +0.000 C 
ATOM     12  N   UNL     1      48.447   3.471  19.301  0.00  0.00    +0.000 N 
ATOM     13  O   UNL     1      49.459   2.250  17.714  0.00  0.00    +0.000 OA
ATOM     14  H   UNL     1      48.157   4.329  19.744  0.00  0.00    +0.000 HD
ATOM     15  H   UNL     1      48.234   2.605  19.782  0.00  0.00    +0.000 HD
ENDBRANCH   7  11
ENDBRANCH   2   3
BRANCH   2  16
ATOM     16  C   UNL     1      49.916   8.713  12.933  0.00  0.00    +0.000 C 
BRANCH  16  17
ATOM     17  C   UNL     1      49.318   7.569  12.107  0.00  0.00    +0.000 C 
BRANCH  17  18
ATOM     18  C   UNL     1      47.821   7.487  12.295  0.00  0.00    +0.000 A 
ATOM     19  C   UNL     1      47.028   8.639  12.283  0.00  0.00    +0.000 A 
ATOM     20  C   UNL     1      45.655   8.535  12.493  0.00  0.00    +0.000 A 
ATOM     21  F   UNL     1      44.906   9.646  12.486  0.00  0.00    +0.000 F 
ATOM     22  C   UNL     1      45.049   7.303  12.710  0.00  0.00    +0.000 A 
ATOM     23  C   UNL     1      45.828   6.149  12.711  0.00  0.00    +0.000 A 
ATOM     24  C   UNL     1      47.210   6.243  12.525  0.00  0.00    +0.000 A 
BRANCH  23  25
ATOM     25  O   UNL     1      45.164   4.964  12.923  0.00  0.00    +0.000 OA
BRANCH  25  26
ATOM     26  C   UNL     1      45.171   3.989  11.851  0.00  0.00    +0.000 C 
ATOM     27  C   UNL     1      44.834   4.492  10.428  0.00  0.00    +0.000 C 
ATOM     28  N   UNL     1      43.840   3.415  10.267  0.00  0.00    +0.000 NA
ATOM     29  C   UNL     1      44.401   2.313   9.487  0.00  0.00    +0.000 C 
ATOM     30  C   UNL     1      43.901   3.124  11.714  0.00  0.00    +0.000 C 
ENDBRANCH  25  26
ENDBRANCH  23  25
ENDBRANCH  17  18
ENDBRANCH  16  17
ENDBRANCH   2  16
TORSDOF 7
ENDMDL
