MODEL 1
REMARK VINA RESULT:    -8.023      0.000      0.000
REMARK INTER + INTRA:         -11.936
REMARK INTER:                 -10.837
REMARK INTRA:                  -1.099
REMARK UNBOUND:                -1.099
REMARK  Name = 
REMARK  6 active torsions:
REMARK  status: ('A' for Active; 'I' for Inactive)
REMARK    1  A    between atoms: C_2  and  C_4
REMARK    2  A    between atoms: C_7  and  O_8
REMARK    3  A    between atoms: O_8  and  C_9
REMARK    4  A    between atoms: C_9  and  C_10
REMARK    5  A    between atoms: C_10  and  C_11
REMARK    6  A    between atoms: C_15  and  C_16
REMARK                            x       y       z     vdW  Elec       q    Type
REMARK                         _______ _______ _______ _____ _____    ______ ____
ROOT
ATOM      1  C   UNL     1      43.526   3.006  11.766  0.00  0.00    +0.000 C 
ENDROOT
BRANCH   1   2
ATOM      2  O   UNL     1      43.470   3.628  10.479  0.00  0.00    +0.000 OA
BRANCH   2   6
ATOM      3  C   UNL     1      46.407   2.741   7.645  0.00  0.00    +0.000 A 
ATOM      4  C   UNL     1      45.834   1.686   8.364  0.00  0.00    +0.000 A 
ATOM      5  C   UNL     1      44.846   1.943   9.324  0.00  0.00    +0.000 A 
ATOM      6  C   UNL     1      44.429   3.252   9.574  0.00  0.00    +0.000 A 
ATOM      7  C   UNL     1      45.014   4.303   8.865  0.00  0.00    +0.000 A 
ATOM      8  C   UNL     1      46.005   4.054   7.909  0.00  0.00    +0.000 A 
BRANCH   3  10
ATOM      9  N   UNL     1      47.344   3.202   5.444  0.00  0.00    +0.000 N 
ATOM     10  C   UNL     1      47.454   2.507   6.617  0.00  0.00    +0.000 C 
ATOM     11  O   UNL     1      48.401   1.759   6.821  0.00  0.00    +0.000 OA
ATOM     12  H   UNL     1      48.123   3.119   4.802  0.00  0.00    +0.000 HD
ATOM     13  H   UNL     1      46.742   4.005   5.347  0.00  0.00    +0.000 HD
ENDBRANCH   3  10
ENDBRANCH   2   6
ENDBRANCH   1   2
BRANCH   1  14
ATOM     14  C   UNL     1      43.394   4.086  12.840  0.00  0.00    +0.000 C 
BRANCH  14  15
ATOM     15  C   UNL     1      44.620   4.963  12.901  0.00  0.00    +0.000 A 
ATOM     16  C   UNL     1      45.855   4.424  13.272  0.00  0.00    +0.000 A 
ATOM     17  C   UNL     1      46.987   5.231  13.307  0.00  0.00    +0.000 A 
ATOM     18  C   UNL     1      46.899   6.579  12.951  0.00  0.00    +0.000 A 
ATOM     19  C   UNL     1      45.685   7.152  12.530  0.00  0.00    +0.000 A 
ATOM     20  C   UNL     1      44.548   6.319  12.534  0.00  0.00    +0.000 A 
BRANCH  19  21
ATOM     21  C   UNL     1      45.618   8.553  12.050  0.00  0.00    +0.000 A 
ATOM     22  C   UNL     1      44.472   9.042  11.402  0.00  0.00    +0.000 A 
ATOM     23  C   UNL     1      44.417  10.371  11.010  0.00  0.00    +0.000 A 
ATOM     24  N   UNL     1      45.413  11.254  11.216  0.00  0.00    +0.000 NA
ATOM     25  C   UNL     1      46.513  10.781  11.831  0.00  0.00    +0.000 A 
ATOM     26  C   UNL     1      46.663   9.465  12.250  0.00  0.00    +0.000 A 
ENDBRANCH  19  21
ENDBRANCH  14  15
ENDBRANCH   1  14
TORSDOF 6
ENDMDL
MODEL 2
REMARK VINA RESULT:    -8.020      2.774      4.284
REMARK INTER + INTRA:         -11.932
REMARK INTER:                 -10.937
REMARK INTRA:                  -0.995
REMARK UNBOUND:                -1.099
REMARK  Name = 
REMARK  6 active torsions:
REMARK  status: ('A' for Active; 'I' for Inactive)
REMARK    1  A    between atoms: C_2  and  C_4
REMARK    2  A    between atoms: C_7  and  O_8
REMARK    3  A    between atoms: O_8  and  C_9
REMARK    4  A    between atoms: C_9  and  C_10
REMARK    5  A    between atoms: C_10  and  C_11
REMARK    6  A    between atoms: C_15  and  C_16
REMARK                            x       y       z     vdW  Elec       q    Type
REMARK                         _______ _______ _______ _____ _____    ______ ____
ROOT
ATOM      1  C   UNL     1      43.514   4.944  10.622  0.00  0.00    +0.000 C 
ENDROOT
BRANCH   1   2
ATOM      2  O   UNL     1      43.597   3.578  10.205  0.00  0.00    +0.000 OA
BRANCH   2   6
ATOM      3  C   UNL     1      46.553   2.397   7.502  0.00  0.00    +0.000 A 
ATOM      4  C   UNL     1      46.216   3.753   7.572  0.00  0.00    +0.000 A 
ATOM      5  C   UNL     1      45.229   4.189   8.465  0.00  0.00    +0.000 A 
ATOM      6  C   UNL     1      44.571   3.275   9.289  0.00  0.00    +0.000 A 
ATOM      7  C   UNL     1      44.898   1.919   9.206  0.00  0.00    +0.000 A 
ATOM      8  C   UNL     1      45.879   1.477   8.311  0.00  0.00    +0.000 A 
BRANCH   3  10
ATOM      9  N   UNL     1      48.684   2.702   6.363  0.00  0.00    +0.000 N 
ATOM     10  C   UNL     1      47.596   1.899   6.569  0.00  0.00    +0.000 C 
ATOM     11  O   UNL     1      47.515   0.799   6.037  0.00  0.00    +0.000 OA
ATOM     12  H   UNL     1      49.437   2.302   5.817  0.00  0.00    +0.000 HD
ATOM     13  H   UNL     1      48.908   3.474   6.972  0.00  0.00    +0.000 HD
ENDBRANCH   3  10
ENDBRANCH   2   6
ENDBRANCH   1   2
BRANCH   1  14
ATOM     14  C   UNL     1      43.752   5.013  12.131  0.00  0.00    +0.000 C 
BRANCH  14  15
ATOM     15  C   UNL     1      45.174   5.402  12.453  0.00  0.00    +0.000 A 
ATOM     16  C   UNL     1      45.895   6.223  11.582  0.00  0.00    +0.000 A 
ATOM     17  C   UNL     1      47.198   6.597  11.893  0.00  0.00    +0.000 A 
ATOM     18  C   UNL     1      47.785   6.170  13.087  0.00  0.00    +0.000 A 
ATOM     19  C   UNL     1      47.079   5.379  14.012  0.00  0.00    +0.000 A 
ATOM     20  C   UNL     1      45.772   4.990  13.658  0.00  0.00    +0.000 A 
BRANCH  19  21
ATOM     21  C   UNL     1      47.666   5.020  15.326  0.00  0.00    +0.000 A 
ATOM     22  C   UNL     1      47.394   3.779  15.925  0.00  0.00    +0.000 A 
ATOM     23  C   UNL     1      47.998   3.449  17.129  0.00  0.00    +0.000 A 
ATOM     24  N   UNL     1      48.855   4.256  17.783  0.00  0.00    +0.000 NA
ATOM     25  C   UNL     1      49.109   5.448  17.209  0.00  0.00    +0.000 A 
ATOM     26  C   UNL     1      48.544   5.870  16.012  0.00  0.00    +0.000 A 
ENDBRANCH  19  21
ENDBRANCH  14  15
ENDBRANCH   1  14
TORSDOF 6
ENDMDL
MODEL 3
REMARK VINA RESULT:    -7.783      1.409      1.755
REMARK INTER + INTRA:         -11.613
REMARK INTER:                 -10.462
REMARK INTRA:                  -1.151
REMARK UNBOUND:                -1.099
REMARK  Name = 
REMARK  6 active torsions:
REMARK  status: ('A' for Active; 'I' for Inactive)
REMARK    1  A    between atoms: C_2  and  C_4
REMARK    2  A    between atoms: C_7  and  O_8
REMARK    3  A    between atoms: O_8  and  C_9
REMARK    4  A    between atoms: C_9  and  C_10
REMARK    5  A    between atoms: C_10  and  C_11
REMARK    6  A    between atoms: C_15  and  C_16
REMARK                            x       y       z     vdW  Elec       q    Type
REMARK                         _______ _______ _______ _____ _____    ______ ____
ROOT
ATOM      1  C   UNL     1      43.223   5.030  10.737  0.00  0.00    +0.000 C 
ENDROOT
BRANCH   1   2
ATOM      2  O   UNL     1      43.448   3.628  10.552  0.00  0.00    +0.000 OA
BRANCH   2   6
ATOM      3  C   UNL     1      46.379   2.821   7.689  0.00  0.00    +0.000 A 
ATOM      4  C   UNL     1      45.762   1.743   8.334  0.00  0.00    +0.000 A 
ATOM      5  C   UNL     1      44.775   1.973   9.301  0.00  0.00    +0.000 A 
ATOM      6  C   UNL     1      44.402   3.277   9.632  0.00  0.00    +0.000 A 
ATOM      7  C   UNL     1      45.031   4.350   8.997  0.00  0.00    +0.000 A 
ATOM      8  C   UNL     1      46.023   4.127   8.035  0.00  0.00    +0.000 A 
BRANCH   3  10
ATOM      9  N   UNL     1      47.201   3.154   5.420  0.00  0.00    +0.000 N 
ATOM     10  C   UNL     1      47.428   2.615   6.657  0.00  0.00    +0.000 C 
ATOM     11  O   UNL     1      48.473   2.028   6.907  0.00  0.00    +0.000 OA
ATOM     12  H   UNL     1      47.971   3.105   4.765  0.00  0.00    +0.000 HD
ATOM     13  H   UNL     1      46.493   3.854   5.259  0.00  0.00    +0.000 HD
ENDBRANCH   3  10
ENDBRANCH   2   6
ENDBRANCH   1   2
BRANCH   1  14
ATOM     14  C   UNL     1      43.322   5.351  12.228  0.00  0.00    +0.000 C 
BRANCH  14  15
ATOM     15  C   UNL     1      44.757   5.509  12.668  0.00  0.00    +0.000 A 
ATOM     16  C   UNL     1      45.387   4.495  13.395  0.00  0.00    +0.000 A 
ATOM     17  C   UNL     1      46.716   4.635  13.782  0.00  0.00    +0.000 A 
ATOM     18  C   UNL     1      47.433   5.781  13.426  0.00  0.00    +0.000 A 
ATOM     19  C   UNL     1      46.850   6.805  12.658  0.00  0.00    +0.000 A 
ATOM     20  C   UNL     1      45.494   6.651  12.306  0.00  0.00    +0.000 A 
BRANCH  19  21
ATOM     21  C   UNL     1      47.645   7.967  12.191  0.00  0.00    +0.000 A 
ATOM     22  C   UNL     1      47.098   9.260  12.178  0.00  0.00    +0.000 A 
ATOM     23  C   UNL     1      47.881  10.335  11.786  0.00  0.00    +0.000 A 
ATOM     24  N   UNL     1      49.169  10.224  11.407  0.00  0.00    +0.000 NA
ATOM     25  C   UNL     1      49.689   8.982  11.414  0.00  0.00    +0.000 A 
ATOM     26  C   UNL     1      48.980   7.845  11.781  0.00  0.00    +0.000 A 
ENDBRANCH  19  21
ENDBRANCH  14  15
ENDBRANCH   1  14
TORSDOF 6
ENDMDL
MODEL 4
REMARK VINA RESULT:    -7.145      3.377      7.450
REMARK INTER + INTRA:         -10.750
REMARK INTER:                  -9.697
REMARK INTRA:                  -1.054
REMARK UNBOUND:                -1.099
REMARK  Name = 
REMARK  6 active torsions:
REMARK  status: ('A' for Active; 'I' for Inactive)
REMARK    1  A    between atoms: C_2  and  C_4
REMARK    2  A    between atoms: C_7  and  O_8
REMARK    3  A    between atoms: O_8  and  C_9
REMARK    4  A    between atoms: C_9  and  C_10
REMARK    5  A    between atoms: C_10  and  C_11
REMARK    6  A    between atoms: C_15  and  C_16
REMARK                            x       y       z     vdW  Elec       q    Type
REMARK                         _______ _______ _______ _____ _____    ______ ____
ROOT
ATOM      1  C   UNL     1      45.249   6.852  12.507  0.00  0.00    +0.000 C 
ENDROOT
BRANCH   1   2
ATOM      2  O   UNL     1      46.662   6.733  12.696  0.00  0.00    +0.000 OA
BRANCH   2   6
ATOM      3  C   UNL     1      47.780   4.010  15.658  0.00  0.00    +0.000 A 
ATOM      4  C   UNL     1      48.211   5.336  15.774  0.00  0.00    +0.000 A 
ATOM      5  C   UNL     1      47.858   6.279  14.801  0.00  0.00    +0.000 A 
ATOM      6  C   UNL     1      47.078   5.904  13.706  0.00  0.00    +0.000 A 
ATOM      7  C   UNL     1      46.662   4.575  13.585  0.00  0.00    +0.000 A 
ATOM      8  C   UNL     1      47.017   3.628  14.552  0.00  0.00    +0.000 A 
BRANCH   3  10
ATOM      9  N   UNL     1      47.333   2.899  17.779  0.00  0.00    +0.000 N 
ATOM     10  C   UNL     1      48.133   2.983  16.673  0.00  0.00    +0.000 C 
ATOM     11  O   UNL     1      49.071   2.214  16.513  0.00  0.00    +0.000 OA
ATOM     12  H   UNL     1      47.516   2.123  18.404  0.00  0.00    +0.000 HD
ATOM     13  H   UNL     1      46.419   3.324  17.818  0.00  0.00    +0.000 HD
ENDBRANCH   3  10
ENDBRANCH   2   6
ENDBRANCH   1   2
BRANCH   1  14
ATOM     14  C   UNL     1      44.935   6.674  11.022  0.00  0.00    +0.000 C 
BRANCH  14  15
ATOM     15  C   UNL     1      44.722   5.222  10.668  0.00  0.00    +0.000 A 
ATOM     16  C   UNL     1      43.765   4.464  11.347  0.00  0.00    +0.000 A 
ATOM     17  C   UNL     1      43.557   3.132  11.005  0.00  0.00    +0.000 A 
ATOM     18  C   UNL     1      44.289   2.553   9.965  0.00  0.00    +0.000 A 
ATOM     19  C   UNL     1      45.231   3.292   9.227  0.00  0.00    +0.000 A 
ATOM     20  C   UNL     1      45.443   4.630   9.615  0.00  0.00    +0.000 A 
BRANCH  19  21
ATOM     21  C   UNL     1      45.926   2.705   8.055  0.00  0.00    +0.000 A 
ATOM     22  C   UNL     1      46.178   3.471   6.905  0.00  0.00    +0.000 A 
ATOM     23  C   UNL     1      46.876   2.912   5.846  0.00  0.00    +0.000 A 
ATOM     24  N   UNL     1      47.346   1.650   5.841  0.00  0.00    +0.000 NA
ATOM     25  C   UNL     1      47.097   0.916   6.943  0.00  0.00    +0.000 A 
ATOM     26  C   UNL     1      46.399   1.386   8.048  0.00  0.00    +0.000 A 
ENDBRANCH  19  21
ENDBRANCH  14  15
ENDBRANCH   1  14
TORSDOF 6
ENDMDL
MODEL 5
REMARK VINA RESULT:    -6.764      2.424      7.236
REMARK INTER + INTRA:         -10.236
REMARK INTER:                  -9.667
REMARK INTRA:                  -0.569
REMARK UNBOUND:                -1.099
REMARK  Name = 
REMARK  6 active torsions:
REMARK  status: ('A' for Active; 'I' for Inactive)
REMARK    1  A    between atoms: C_2  and  C_4
REMARK    2  A    between atoms: C_7  and  O_8
REMARK    3  A    between atoms: O_8  and  C_9
REMARK    4  A    between atoms: C_9  and  C_10
REMARK    5  A    between atoms: C_10  and  C_11
REMARK    6  A    between atoms: C_15  and  C_16
REMARK                            x       y       z     vdW  Elec       q    Type
REMARK                         _______ _______ _______ _____ _____    ______ ____
ROOT
ATOM      1  C   UNL     1      43.378   3.846  12.280  0.00  0.00    +0.000 C 
ENDROOT
BRANCH   1   2
ATOM      2  O   UNL     1      44.362   3.816  13.318  0.00  0.00    +0.000 OA
BRANCH   2   6
ATOM      3  C   UNL     1      46.929   7.110  13.269  0.00  0.00    +0.000 A 
ATOM      4  C   UNL     1      47.453   5.862  13.623  0.00  0.00    +0.000 A 
ATOM      5  C   UNL     1      46.624   4.733  13.652  0.00  0.00    +0.000 A 
ATOM      6  C   UNL     1      45.269   4.844  13.333  0.00  0.00    +0.000 A 
ATOM      7  C   UNL     1      44.747   6.095  12.994  0.00  0.00    +0.000 A 
ATOM      8  C   UNL     1      45.569   7.227  12.969  0.00  0.00    +0.000 A 
BRANCH   3  10
ATOM      9  N   UNL     1      48.286   8.691  12.006  0.00  0.00    +0.000 N 
ATOM     10  C   UNL     1      47.778   8.329  13.224  0.00  0.00    +0.000 C 
ATOM     11  O   UNL     1      47.984   9.008  14.221  0.00  0.00    +0.000 OA
ATOM     12  H   UNL     1      48.765   9.582  11.971  0.00  0.00    +0.000 HD
ATOM     13  H   UNL     1      47.929   8.318  11.140  0.00  0.00    +0.000 HD
ENDBRANCH   3  10
ENDBRANCH   2   6
ENDBRANCH   1   2
BRANCH   1  14
ATOM     14  C   UNL     1      43.759   2.822  11.211  0.00  0.00    +0.000 C 
BRANCH  14  15
ATOM     15  C   UNL     1      44.586   3.445  10.113  0.00  0.00    +0.000 A 
ATOM     16  C   UNL     1      44.929   4.799  10.171  0.00  0.00    +0.000 A 
ATOM     17  C   UNL     1      45.710   5.365   9.168  0.00  0.00    +0.000 A 
ATOM     18  C   UNL     1      46.171   4.578   8.110  0.00  0.00    +0.000 A 
ATOM     19  C   UNL     1      45.886   3.202   8.036  0.00  0.00    +0.000 A 
ATOM     20  C   UNL     1      45.068   2.662   9.049  0.00  0.00    +0.000 A 
BRANCH  19  21
ATOM     21  C   UNL     1      46.467   2.349   6.971  0.00  0.00    +0.000 A 
ATOM     22  C   UNL     1      46.747   2.871   5.698  0.00  0.00    +0.000 A 
ATOM     23  C   UNL     1      47.339   2.064   4.739  0.00  0.00    +0.000 A 
ATOM     24  N   UNL     1      47.678   0.778   4.947  0.00  0.00    +0.000 NA
ATOM     25  C   UNL     1      47.403   0.278   6.168  0.00  0.00    +0.000 A 
ATOM     26  C   UNL     1      46.803   1.006   7.187  0.00  0.00    +0.000 A 
ENDBRANCH  19  21
ENDBRANCH  14  15
ENDBRANCH   1  14
TORSDOF 6
ENDMDL
MODEL 6
REMARK VINA RESULT:    -6.582      2.196      3.179
REMARK INTER + INTRA:          -9.990
REMARK INTER:                  -9.146
REMARK INTRA:                  -0.844
REMARK UNBOUND:                -1.099
REMARK  Name = 
REMARK  6 active torsions:
REMARK  status: ('A' for Active; 'I' for Inactive)
REMARK    1  A    between atoms: C_2  and  C_4
REMARK    2  A    between atoms: C_7  and  O_8
REMARK    3  A    between atoms: O_8  and  C_9
REMARK    4  A    between atoms: C_9  and  C_10
REMARK    5  A    between atoms: C_10  and  C_11
REMARK    6  A    between atoms: C_15  and  C_16
REMARK                            x       y       z     vdW  Elec       q    Type
REMARK                         _______ _______ _______ _____ _____    ______ ____
ROOT
ATOM      1  C   UNL     1      43.670   4.702  11.053  0.00  0.00    +0.000 C 
ENDROOT
BRANCH   1   2
ATOM      2  O   UNL     1      43.994   3.383  10.602  0.00  0.00    +0.000 OA
BRANCH   2   6
ATOM      3  C   UNL     1      46.518   2.842   7.319  0.00  0.00    +0.000 A 
ATOM      4  C   UNL     1      46.165   4.147   7.682  0.00  0.00    +0.000 A 
ATOM      5  C   UNL     1      45.320   4.370   8.776  0.00  0.00    +0.000 A 
ATOM      6  C   UNL     1      44.820   3.294   9.511  0.00  0.00    +0.000 A 
ATOM      7  C   UNL     1      45.161   1.992   9.137  0.00  0.00    +0.000 A 
ATOM      8  C   UNL     1      46.000   1.763   8.041  0.00  0.00    +0.000 A 
BRANCH   3  10
ATOM      9  N   UNL     1      48.671   2.109   6.448  0.00  0.00    +0.000 N 
ATOM     10  C   UNL     1      47.414   2.568   6.166  0.00  0.00    +0.000 C 
ATOM     11  O   UNL     1      47.036   2.703   5.010  0.00  0.00    +0.000 OA
ATOM     12  H   UNL     1      49.228   1.819   5.654  0.00  0.00    +0.000 HD
ATOM     13  H   UNL     1      48.921   1.741   7.354  0.00  0.00    +0.000 HD
ENDBRANCH   3  10
ENDBRANCH   2   6
ENDBRANCH   1   2
BRANCH   1  14
ATOM     14  C   UNL     1      44.618   5.080  12.191  0.00  0.00    +0.000 C 
BRANCH  14  15
ATOM     15  C   UNL     1      45.149   6.483  12.030  0.00  0.00    +0.000 A 
ATOM     16  C   UNL     1      44.286   7.529  11.691  0.00  0.00    +0.000 A 
ATOM     17  C   UNL     1      44.775   8.825  11.564  0.00  0.00    +0.000 A 
ATOM     18  C   UNL     1      46.128   9.090  11.797  0.00  0.00    +0.000 A 
ATOM     19  C   UNL     1      47.021   8.075  12.184  0.00  0.00    +0.000 A 
ATOM     20  C   UNL     1      46.505   6.767  12.275  0.00  0.00    +0.000 A 
BRANCH  19  21
ATOM     21  C   UNL     1      48.429   8.379  12.536  0.00  0.00    +0.000 A 
ATOM     22  C   UNL     1      49.494   7.818  11.812  0.00  0.00    +0.000 A 
ATOM     23  C   UNL     1      50.799   8.161  12.130  0.00  0.00    +0.000 A 
ATOM     24  N   UNL     1      51.129   9.022  13.112  0.00  0.00    +0.000 NA
ATOM     25  C   UNL     1      50.106   9.554  13.809  0.00  0.00    +0.000 A 
ATOM     26  C   UNL     1      48.769   9.262  13.570  0.00  0.00    +0.000 A 
ENDBRANCH  19  21
ENDBRANCH  14  15
ENDBRANCH   1  14
TORSDOF 6
ENDMDL
MODEL 7
REMARK VINA RESULT:    -6.518      2.351      7.347
REMARK INTER + INTRA:          -9.903
REMARK INTER:                  -8.808
REMARK INTRA:                  -1.095
REMARK UNBOUND:                -1.099
REMARK  Name = 
REMARK  6 active torsions:
REMARK  status: ('A' for Active; 'I' for Inactive)
REMARK    1  A    between atoms: C_2  and  C_4
REMARK    2  A    between atoms: C_7  and  O_8
REMARK    3  A    between atoms: O_8  and  C_9
REMARK    4  A    between atoms: C_9  and  C_10
REMARK    5  A    between atoms: C_10  and  C_11
REMARK    6  A    between atoms: C_15  and  C_16
REMARK                            x       y       z     vdW  Elec       q    Type
REMARK                         _______ _______ _______ _____ _____    ______ ____
ROOT
ATOM      1  C   UNL     1      45.816   4.844  13.607  0.00  0.00    +0.000 C 
ENDROOT
BRANCH   1   2
ATOM      2  O   UNL     1      46.998   5.350  12.979  0.00  0.00    +0.000 OA
BRANCH   2   6
ATOM      3  C   UNL     1      46.771   9.435  12.144  0.00  0.00    +0.000 A 
ATOM      4  C   UNL     1      47.988   8.777  11.931  0.00  0.00    +0.000 A 
ATOM      5  C   UNL     1      48.104   7.408  12.200  0.00  0.00    +0.000 A 
ATOM      6  C   UNL     1      47.011   6.689  12.687  0.00  0.00    +0.000 A 
ATOM      7  C   UNL     1      45.803   7.353  12.913  0.00  0.00    +0.000 A 
ATOM      8  C   UNL     1      45.682   8.722  12.652  0.00  0.00    +0.000 A 
BRANCH   3  10
ATOM      9  N   UNL     1      45.393  11.444  12.148  0.00  0.00    +0.000 N 
ATOM     10  C   UNL     1      46.610  10.887  11.867  0.00  0.00    +0.000 C 
ATOM     11  O   UNL     1      47.535  11.569  11.447  0.00  0.00    +0.000 OA
ATOM     12  H   UNL     1      45.334  12.451  12.062  0.00  0.00    +0.000 HD
ATOM     13  H   UNL     1      44.709  10.983  12.729  0.00  0.00    +0.000 HD
ENDBRANCH   3  10
ENDBRANCH   2   6
ENDBRANCH   1   2
BRANCH   1  14
ATOM     14  C   UNL     1      45.409   3.544  12.913  0.00  0.00    +0.000 C 
BRANCH  14  15
ATOM     15  C   UNL     1      44.988   3.786  11.484  0.00  0.00    +0.000 A 
ATOM     16  C   UNL     1      44.013   4.742  11.188  0.00  0.00    +0.000 A 
ATOM     17  C   UNL     1      43.642   4.977   9.868  0.00  0.00    +0.000 A 
ATOM     18  C   UNL     1      44.259   4.272   8.830  0.00  0.00    +0.000 A 
ATOM     19  C   UNL     1      45.276   3.333   9.081  0.00  0.00    +0.000 A 
ATOM     20  C   UNL     1      45.609   3.093  10.428  0.00  0.00    +0.000 A 
BRANCH  19  21
ATOM     21  C   UNL     1      46.002   2.668   7.972  0.00  0.00    +0.000 A 
ATOM     22  C   UNL     1      46.353   3.375   6.810  0.00  0.00    +0.000 A 
ATOM     23  C   UNL     1      47.078   2.742   5.812  0.00  0.00    +0.000 A 
ATOM     24  N   UNL     1      47.485   1.460   5.880  0.00  0.00    +0.000 NA
ATOM     25  C   UNL     1      47.142   0.783   6.993  0.00  0.00    +0.000 A 
ATOM     26  C   UNL     1      46.409   1.329   8.039  0.00  0.00    +0.000 A 
ENDBRANCH  19  21
ENDBRANCH  14  15
ENDBRANCH   1  14
TORSDOF 6
ENDMDL
MODEL 8
REMARK VINA RESULT:    -6.488      4.181      7.651
REMARK INTER + INTRA:          -9.863
REMARK INTER:                  -8.725
REMARK INTRA:                  -1.138
REMARK UNBOUND:                -1.099
REMARK  Name = 
REMARK  6 active torsions:
REMARK  status: ('A' for Active; 'I' for Inactive)
REMARK    1  A    between atoms: C_2  and  C_4
REMARK    2  A    between atoms: C_7  and  O_8
REMARK    3  A    between atoms: O_8  and  C_9
REMARK    4  A    between atoms: C_9  and  C_10
REMARK    5  A    between atoms: C_10  and  C_11
REMARK    6  A    between atoms: C_15  and  C_16
REMARK                            x       y       z     vdW  Elec       q    Type
REMARK                         _______ _______ _______ _____ _____    ______ ____
ROOT
ATOM      1  C   UNL     1      49.664   7.366  13.133  0.00  0.00    +0.000 C 
ENDROOT
BRANCH   1   2
ATOM      2  O   UNL     1      49.509   7.710  14.514  0.00  0.00    +0.000 OA
BRANCH   2   6
ATOM      3  C   UNL     1      48.172   4.579  16.932  0.00  0.00    +0.000 A 
ATOM      4  C   UNL     1      49.303   5.298  17.337  0.00  0.00    +0.000 A 
ATOM      5  C   UNL     1      49.783   6.355  16.552  0.00  0.00    +0.000 A 
ATOM      6  C   UNL     1      49.141   6.696  15.360  0.00  0.00    +0.000 A 
ATOM      7  C   UNL     1      48.022   5.966  14.952  0.00  0.00    +0.000 A 
ATOM      8  C   UNL     1      47.541   4.906  15.729  0.00  0.00    +0.000 A 
BRANCH   3  10
ATOM      9  N   UNL     1      48.336   3.096  18.858  0.00  0.00    +0.000 N 
ATOM     10  C   UNL     1      47.633   3.455  17.740  0.00  0.00    +0.000 C 
ATOM     11  O   UNL     1      46.582   2.898  17.450  0.00  0.00    +0.000 OA
ATOM     12  H   UNL     1      47.898   2.408  19.458  0.00  0.00    +0.000 HD
ATOM     13  H   UNL     1      49.042   3.690  19.265  0.00  0.00    +0.000 HD
ENDBRANCH   3  10
ENDBRANCH   2   6
ENDBRANCH   1   2
BRANCH   1  14
ATOM     14  C   UNL     1      48.958   8.422  12.282  0.00  0.00    +0.000 C 
BRANCH  14  15
ATOM     15  C   UNL     1      47.498   8.094  12.085  0.00  0.00    +0.000 A 
ATOM     16  C   UNL     1      46.516   9.042  12.385  0.00  0.00    +0.000 A 
ATOM     17  C   UNL     1      45.173   8.743  12.182  0.00  0.00    +0.000 A 
ATOM     18  C   UNL     1      44.801   7.502  11.659  0.00  0.00    +0.000 A 
ATOM     19  C   UNL     1      45.760   6.536  11.303  0.00  0.00    +0.000 A 
ATOM     20  C   UNL     1      47.111   6.853  11.547  0.00  0.00    +0.000 A 
BRANCH  19  21
ATOM     21  C   UNL     1      45.368   5.265  10.647  0.00  0.00    +0.000 A 
ATOM     22  C   UNL     1      44.812   4.210  11.388  0.00  0.00    +0.000 A 
ATOM     23  C   UNL     1      44.406   3.053  10.740  0.00  0.00    +0.000 A 
ATOM     24  N   UNL     1      44.509   2.864   9.411  0.00  0.00    +0.000 NA
ATOM     25  C   UNL     1      45.049   3.875   8.704  0.00  0.00    +0.000 A 
ATOM     26  C   UNL     1      45.492   5.065   9.265  0.00  0.00    +0.000 A 
ENDBRANCH  19  21
ENDBRANCH  14  15
ENDBRANCH   1  14
TORSDOF 6
ENDMDL
MODEL 9
REMARK VINA RESULT:    -6.407      5.736      8.221
REMARK INTER + INTRA:          -9.753
REMARK INTER:                  -8.979
REMARK INTRA:                  -0.774
REMARK UNBOUND:                -1.099
REMARK  Name = 
REMARK  6 active torsions:
REMARK  status: ('A' for Active; 'I' for Inactive)
REMARK    1  A    between atoms: C_2  and  C_4
REMARK    2  A    between atoms: C_7  and  O_8
REMARK    3  A    between atoms: O_8  and  C_9
REMARK    4  A    between atoms: C_9  and  C_10
REMARK    5  A    between atoms: C_10  and  C_11
REMARK    6  A    between atoms: C_15  and  C_16
REMARK                            x       y       z     vdW  Elec       q    Type
REMARK                         _______ _______ _______ _____ _____    ______ ____
ROOT
ATOM      1  C   UNL     1      47.866   5.223  16.296  0.00  0.00    +0.000 C 
ENDROOT
BRANCH   1   2
ATOM      2  O   UNL     1      48.504   5.066  17.567  0.00  0.00    +0.000 OA
BRANCH   2   6
ATOM      3  C   UNL     1      51.663   2.336  17.631  0.00  0.00    +0.000 A 
ATOM      4  C   UNL     1      51.928   3.670  17.963  0.00  0.00    +0.000 A 
ATOM      5  C   UNL     1      50.895   4.616  17.952  0.00  0.00    +0.000 A 
ATOM      6  C   UNL     1      49.596   4.238  17.607  0.00  0.00    +0.000 A 
ATOM      7  C   UNL     1      49.339   2.909  17.262  0.00  0.00    +0.000 A 
ATOM      8  C   UNL     1      50.368   1.960  17.265  0.00  0.00    +0.000 A 
BRANCH   3  10
ATOM      9  N   UNL     1      52.422   0.085  18.171  0.00  0.00    +0.000 N 
ATOM     10  C   UNL     1      52.733   1.305  17.635  0.00  0.00    +0.000 C 
ATOM     11  O   UNL     1      53.833   1.515  17.142  0.00  0.00    +0.000 OA
ATOM     12  H   UNL     1      53.121  -0.640  18.063  0.00  0.00    +0.000 HD
ATOM     13  H   UNL     1      51.471  -0.204  18.339  0.00  0.00    +0.000 HD
ENDBRANCH   3  10
ENDBRANCH   2   6
ENDBRANCH   1   2
BRANCH   1  14
ATOM     14  C   UNL     1      48.663   6.230  15.466  0.00  0.00    +0.000 C 
BRANCH  14  15
ATOM     15  C   UNL     1      48.074   6.405  14.088  0.00  0.00    +0.000 A 
ATOM     16  C   UNL     1      48.626   7.330  13.198  0.00  0.00    +0.000 A 
ATOM     17  C   UNL     1      48.094   7.475  11.921  0.00  0.00    +0.000 A 
ATOM     18  C   UNL     1      47.018   6.681  11.515  0.00  0.00    +0.000 A 
ATOM     19  C   UNL     1      46.461   5.707  12.364  0.00  0.00    +0.000 A 
ATOM     20  C   UNL     1      46.999   5.603  13.662  0.00  0.00    +0.000 A 
BRANCH  19  21
ATOM     21  C   UNL     1      45.393   4.793  11.893  0.00  0.00    +0.000 A 
ATOM     22  C   UNL     1      44.626   4.046  12.802  0.00  0.00    +0.000 A 
ATOM     23  C   UNL     1      43.599   3.239  12.336  0.00  0.00    +0.000 A 
ATOM     24  N   UNL     1      43.273   3.118  11.035  0.00  0.00    +0.000 NA
ATOM     25  C   UNL     1      44.014   3.830  10.165  0.00  0.00    +0.000 A 
ATOM     26  C   UNL     1      45.067   4.657  10.536  0.00  0.00    +0.000 A 
ENDBRANCH  19  21
ENDBRANCH  14  15
ENDBRANCH   1  14
TORSDOF 6
ENDMDL
