MODEL 1
REMARK VINA RESULT:    -7.810      0.000      0.000
REMARK INTER + INTRA:         -10.441
REMARK INTER:                  -9.637
REMARK INTRA:                  -0.804
REMARK UNBOUND:                -0.804
REMARK  Name = 
REMARK  4 active torsions:
REMARK  status: ('A' for Active; 'I' for Inactive)
REMARK    1  A    between atoms: C_6  and  O_7
REMARK    2  A    between atoms: O_7  and  C_8
REMARK    3  A    between atoms: C_8  and  C_9
REMARK    4  A    between atoms: C_13  and  N_14
REMARK                            x       y       z     vdW  Elec       q    Type
REMARK                         _______ _______ _______ _____ _____    ______ ____
ROOT
ATOM      1  C   UNL     1      44.825   4.644  11.386  0.00  0.00    +0.000 A 
ATOM      2  C   UNL     1      44.872   3.746  12.444  0.00  0.00    +0.000 A 
ATOM      3  N   UNL     1      45.698   3.870  13.502  0.00  0.00    +0.000 NA
ATOM      4  C   UNL     1      46.517   4.952  13.502  0.00  0.00    +0.000 A 
ATOM      5  C   UNL     1      46.583   5.926  12.503  0.00  0.00    +0.000 A 
ATOM      6  C   UNL     1      45.718   5.725  11.419  0.00  0.00    +0.000 A 
ENDROOT
BRANCH   5   7
ATOM      7  N   UNL     1      47.370   7.058  12.582  0.00  0.00    +0.000 N 
ATOM      8  C   UNL     1      46.837   8.326  13.077  0.00  0.00    +0.000 C 
ATOM      9  C   UNL     1      47.347   9.448  12.168  0.00  0.00    +0.000 C 
ATOM     10  C   UNL     1      48.870   9.417  12.018  0.00  0.00    +0.000 C 
ATOM     11  C   UNL     1      49.374   8.027  11.622  0.00  0.00    +0.000 C 
ATOM     12  C   UNL     1      48.828   6.953  12.561  0.00  0.00    +0.000 C 
ENDBRANCH   5   7
BRANCH   1  13
ATOM     13  C   UNL     1      43.833   4.470  10.272  0.00  0.00    +0.000 C 
BRANCH  13  14
ATOM     14  O   UNL     1      43.975   3.163   9.722  0.00  0.00    +0.000 OA
BRANCH  14  20
ATOM     15  F   UNL     1      46.984   0.094   7.850  0.00  0.00    +0.000 F 
ATOM     16  C   UNL     1      46.519   1.349   7.895  0.00  0.00    +0.000 A 
ATOM     17  C   UNL     1      47.075   2.314   7.066  0.00  0.00    +0.000 A 
ATOM     18  C   UNL     1      46.591   3.618   7.114  0.00  0.00    +0.000 A 
ATOM     19  C   UNL     1      45.550   3.949   7.991  0.00  0.00    +0.000 A 
ATOM     20  C   UNL     1      44.992   2.972   8.824  0.00  0.00    +0.000 A 
ATOM     21  C   UNL     1      45.484   1.668   8.769  0.00  0.00    +0.000 A 
ENDBRANCH  14  20
ENDBRANCH  13  14
ENDBRANCH   1  13
TORSDOF 4
ENDMDL
MODEL 2
REMARK VINA RESULT:    -7.606      1.313      1.726
REMARK INTER + INTRA:         -10.189
REMARK INTER:                  -9.531
REMARK INTRA:                  -0.657
REMARK UNBOUND:                -0.804
REMARK  Name = 
REMARK  4 active torsions:
REMARK  status: ('A' for Active; 'I' for Inactive)
REMARK    1  A    between atoms: C_6  and  O_7
REMARK    2  A    between atoms: O_7  and  C_8
REMARK    3  A    between atoms: C_8  and  C_9
REMARK    4  A    between atoms: C_13  and  N_14
REMARK                            x       y       z     vdW  Elec       q    Type
REMARK                         _______ _______ _______ _____ _____    ______ ____
ROOT
ATOM      1  C   UNL     1      44.866   4.425  10.579  0.00  0.00    +0.000 A 
ATOM      2  C   UNL     1      44.633   3.557  11.637  0.00  0.00    +0.000 A 
ATOM      3  N   UNL     1      45.053   3.776  12.898  0.00  0.00    +0.000 NA
ATOM      4  C   UNL     1      45.741   4.925  13.112  0.00  0.00    +0.000 A 
ATOM      5  C   UNL     1      46.056   5.881  12.142  0.00  0.00    +0.000 A 
ATOM      6  C   UNL     1      45.612   5.581  10.847  0.00  0.00    +0.000 A 
ENDROOT
BRANCH   5   7
ATOM      7  N   UNL     1      46.684   7.079  12.418  0.00  0.00    +0.000 N 
ATOM      8  C   UNL     1      45.952   8.215  12.974  0.00  0.00    +0.000 C 
ATOM      9  C   UNL     1      46.403   9.482  12.241  0.00  0.00    +0.000 C 
ATOM     10  C   UNL     1      47.925   9.642  12.255  0.00  0.00    +0.000 C 
ATOM     11  C   UNL     1      48.634   8.371  11.781  0.00  0.00    +0.000 C 
ATOM     12  C   UNL     1      48.139   7.144  12.545  0.00  0.00    +0.000 C 
ENDBRANCH   5   7
BRANCH   1  13
ATOM     13  C   UNL     1      44.311   4.140   9.213  0.00  0.00    +0.000 C 
BRANCH  13  14
ATOM     14  O   UNL     1      45.329   4.360   8.240  0.00  0.00    +0.000 OA
BRANCH  14  20
ATOM     15  F   UNL     1      47.929   2.599   4.759  0.00  0.00    +0.000 F 
ATOM     16  C   UNL     1      47.308   2.399   5.928  0.00  0.00    +0.000 A 
ATOM     17  C   UNL     1      47.359   1.147   6.525  0.00  0.00    +0.000 A 
ATOM     18  C   UNL     1      46.712   0.941   7.740  0.00  0.00    +0.000 A 
ATOM     19  C   UNL     1      46.018   1.992   8.353  0.00  0.00    +0.000 A 
ATOM     20  C   UNL     1      45.970   3.253   7.748  0.00  0.00    +0.000 A 
ATOM     21  C   UNL     1      46.621   3.450   6.530  0.00  0.00    +0.000 A 
ENDBRANCH  14  20
ENDBRANCH  13  14
ENDBRANCH   1  13
TORSDOF 4
ENDMDL
MODEL 3
REMARK VINA RESULT:    -7.018      1.230      1.520
REMARK INTER + INTRA:          -9.463
REMARK INTER:                  -8.711
REMARK INTRA:                  -0.752
REMARK UNBOUND:                -0.804
REMARK  Name = 
REMARK  4 active torsions:
REMARK  status: ('A' for Active; 'I' for Inactive)
REMARK    1  A    between atoms: C_6  and  O_7
REMARK    2  A    between atoms: O_7  and  C_8
REMARK    3  A    between atoms: C_8  and  C_9
REMARK    4  A    between atoms: C_13  and  N_14
REMARK                            x       y       z     vdW  Elec       q    Type
REMARK                         _______ _______ _______ _____ _____    ______ ____
ROOT
ATOM      1  C   UNL     1      44.583   4.793  11.511  0.00  0.00    +0.000 A 
ATOM      2  C   UNL     1      43.424   5.520  11.279  0.00  0.00    +0.000 A 
ATOM      3  N   UNL     1      43.347   6.863  11.367  0.00  0.00    +0.000 NA
ATOM      4  C   UNL     1      44.491   7.511  11.700  0.00  0.00    +0.000 A 
ATOM      5  C   UNL     1      45.722   6.907  11.970  0.00  0.00    +0.000 A 
ATOM      6  C   UNL     1      45.728   5.508  11.887  0.00  0.00    +0.000 A 
ENDROOT
BRANCH   5   7
ATOM      7  N   UNL     1      46.885   7.608  12.223  0.00  0.00    +0.000 N 
ATOM      8  C   UNL     1      46.857   9.016  12.616  0.00  0.00    +0.000 C 
ATOM      9  C   UNL     1      47.958   9.750  11.845  0.00  0.00    +0.000 C 
ATOM     10  C   UNL     1      49.321   9.074  12.008  0.00  0.00    +0.000 C 
ATOM     11  C   UNL     1      49.252   7.576  11.704  0.00  0.00    +0.000 C 
ATOM     12  C   UNL     1      48.135   6.902  12.498  0.00  0.00    +0.000 C 
ENDBRANCH   5   7
BRANCH   1  13
ATOM     13  C   UNL     1      44.603   3.301  11.334  0.00  0.00    +0.000 C 
BRANCH  13  14
ATOM     14  O   UNL     1      44.151   2.981  10.021  0.00  0.00    +0.000 OA
BRANCH  14  20
ATOM     15  F   UNL     1      47.081   0.240   7.597  0.00  0.00    +0.000 F 
ATOM     16  C   UNL     1      46.588   1.465   7.816  0.00  0.00    +0.000 A 
ATOM     17  C   UNL     1      47.052   2.533   7.059  0.00  0.00    +0.000 A 
ATOM     18  C   UNL     1      46.539   3.807   7.288  0.00  0.00    +0.000 A 
ATOM     19  C   UNL     1      45.563   4.004   8.274  0.00  0.00    +0.000 A 
ATOM     20  C   UNL     1      45.098   2.924   9.033  0.00  0.00    +0.000 A 
ATOM     21  C   UNL     1      45.618   1.651   8.796  0.00  0.00    +0.000 A 
ENDBRANCH  14  20
ENDBRANCH  13  14
ENDBRANCH   1  13
TORSDOF 4
ENDMDL
MODEL 4
REMARK VINA RESULT:    -6.891      3.133      6.432
REMARK INTER + INTRA:          -9.306
REMARK INTER:                  -8.529
REMARK INTRA:                  -0.777
REMARK UNBOUND:                -0.804
REMARK  Name = 
REMARK  4 active torsions:
REMARK  status: ('A' for Active; 'I' for Inactive)
REMARK    1  A    between atoms: C_6  and  O_7
REMARK    2  A    between atoms: O_7  and  C_8
REMARK    3  A    between atoms: C_8  and  C_9
REMARK    4  A    between atoms: C_13  and  N_14
REMARK                            x       y       z     vdW  Elec       q    Type
REMARK                         _______ _______ _______ _____ _____    ______ ____
ROOT
ATOM      1  C   UNL     1      44.674   5.164  12.174  0.00  0.00    +0.000 A 
ATOM      2  C   UNL     1      43.941   4.262  12.933  0.00  0.00    +0.000 A 
ATOM      3  N   UNL     1      43.573   3.039  12.503  0.00  0.00    +0.000 NA
ATOM      4  C   UNL     1      43.962   2.700  11.248  0.00  0.00    +0.000 A 
ATOM      5  C   UNL     1      44.691   3.509  10.373  0.00  0.00    +0.000 A 
ATOM      6  C   UNL     1      45.019   4.778  10.871  0.00  0.00    +0.000 A 
ENDROOT
BRANCH   5   7
ATOM      7  N   UNL     1      45.140   3.095   9.135  0.00  0.00    +0.000 N 
ATOM      8  C   UNL     1      45.145   1.682   8.758  0.00  0.00    +0.000 C 
ATOM      9  C   UNL     1      46.467   1.381   8.047  0.00  0.00    +0.000 C 
ATOM     10  C   UNL     1      46.728   2.346   6.888  0.00  0.00    +0.000 C 
ATOM     11  C   UNL     1      46.582   3.807   7.321  0.00  0.00    +0.000 C 
ATOM     12  C   UNL     1      45.247   4.042   8.027  0.00  0.00    +0.000 C 
ENDBRANCH   5   7
BRANCH   1  13
ATOM     13  C   UNL     1      45.099   6.486  12.747  0.00  0.00    +0.000 C 
BRANCH  13  14
ATOM     14  O   UNL     1      46.246   6.291  13.569  0.00  0.00    +0.000 OA
BRANCH  14  20
ATOM     15  F   UNL     1      50.661   7.416  14.672  0.00  0.00    +0.000 F 
ATOM     16  C   UNL     1      49.694   7.378  13.747  0.00  0.00    +0.000 A 
ATOM     17  C   UNL     1      49.951   7.853  12.468  0.00  0.00    +0.000 A 
ATOM     18  C   UNL     1      48.944   7.814  11.508  0.00  0.00    +0.000 A 
ATOM     19  C   UNL     1      47.684   7.297  11.834  0.00  0.00    +0.000 A 
ATOM     20  C   UNL     1      47.429   6.819  13.124  0.00  0.00    +0.000 A 
ATOM     21  C   UNL     1      48.445   6.863  14.080  0.00  0.00    +0.000 A 
ENDBRANCH  14  20
ENDBRANCH  13  14
ENDBRANCH   1  13
TORSDOF 4
ENDMDL
MODEL 5
REMARK VINA RESULT:    -6.793      3.300      6.830
REMARK INTER + INTRA:          -9.185
REMARK INTER:                  -8.551
REMARK INTRA:                  -0.634
REMARK UNBOUND:                -0.804
REMARK  Name = 
REMARK  4 active torsions:
REMARK  status: ('A' for Active; 'I' for Inactive)
REMARK    1  A    between atoms: C_6  and  O_7
REMARK    2  A    between atoms: O_7  and  C_8
REMARK    3  A    between atoms: C_8  and  C_9
REMARK    4  A    between atoms: C_13  and  N_14
REMARK                            x       y       z     vdW  Elec       q    Type
REMARK                         _______ _______ _______ _____ _____    ______ ____
ROOT
ATOM      1  C   UNL     1      45.011   5.129  12.294  0.00  0.00    +0.000 A 
ATOM      2  C   UNL     1      43.956   4.482  12.925  0.00  0.00    +0.000 A 
ATOM      3  N   UNL     1      43.267   3.460  12.382  0.00  0.00    +0.000 NA
ATOM      4  C   UNL     1      43.655   3.062  11.144  0.00  0.00    +0.000 A 
ATOM      5  C   UNL     1      44.688   3.627  10.392  0.00  0.00    +0.000 A 
ATOM      6  C   UNL     1      45.348   4.703  11.002  0.00  0.00    +0.000 A 
ENDROOT
BRANCH   5   7
ATOM      7  N   UNL     1      45.108   3.138   9.170  0.00  0.00    +0.000 N 
ATOM      8  C   UNL     1      45.022   1.715   8.848  0.00  0.00    +0.000 C 
ATOM      9  C   UNL     1      46.321   1.303   8.150  0.00  0.00    +0.000 C 
ATOM     10  C   UNL     1      46.642   2.204   6.955  0.00  0.00    +0.000 C 
ATOM     11  C   UNL     1      46.590   3.687   7.333  0.00  0.00    +0.000 C 
ATOM     12  C   UNL     1      45.275   4.034   8.028  0.00  0.00    +0.000 C 
ENDBRANCH   5   7
BRANCH   1  13
ATOM     13  C   UNL     1      45.770   6.222  12.991  0.00  0.00    +0.000 C 
BRANCH  13  14
ATOM     14  O   UNL     1      47.130   5.823  13.140  0.00  0.00    +0.000 OA
BRANCH  14  20
ATOM     15  F   UNL     1      47.068   3.191  17.019  0.00  0.00    +0.000 F 
ATOM     16  C   UNL     1      47.528   4.279  16.390  0.00  0.00    +0.000 A 
ATOM     17  C   UNL     1      48.404   5.131  17.049  0.00  0.00    +0.000 A 
ATOM     18  C   UNL     1      48.882   6.262  16.394  0.00  0.00    +0.000 A 
ATOM     19  C   UNL     1      48.481   6.534  15.080  0.00  0.00    +0.000 A 
ATOM     20  C   UNL     1      47.598   5.673  14.419  0.00  0.00    +0.000 A 
ATOM     21  C   UNL     1      47.124   4.541  15.084  0.00  0.00    +0.000 A 
ENDBRANCH  14  20
ENDBRANCH  13  14
ENDBRANCH   1  13
TORSDOF 4
ENDMDL
MODEL 6
REMARK VINA RESULT:    -6.752      3.238      6.711
REMARK INTER + INTRA:          -9.134
REMARK INTER:                  -8.406
REMARK INTRA:                  -0.729
REMARK UNBOUND:                -0.804
REMARK  Name = 
REMARK  4 active torsions:
REMARK  status: ('A' for Active; 'I' for Inactive)
REMARK    1  A    between atoms: C_6  and  O_7
REMARK    2  A    between atoms: O_7  and  C_8
REMARK    3  A    between atoms: C_8  and  C_9
REMARK    4  A    between atoms: C_13  and  N_14
REMARK                            x       y       z     vdW  Elec       q    Type
REMARK                         _______ _______ _______ _____ _____    ______ ____
ROOT
ATOM      1  C   UNL     1      44.739   4.983  12.255  0.00  0.00    +0.000 A 
ATOM      2  C   UNL     1      43.906   4.122  12.957  0.00  0.00    +0.000 A 
ATOM      3  N   UNL     1      43.439   2.958  12.465  0.00  0.00    +0.000 NA
ATOM      4  C   UNL     1      43.827   2.638  11.205  0.00  0.00    +0.000 A 
ATOM      5  C   UNL     1      44.650   3.412  10.383  0.00  0.00    +0.000 A 
ATOM      6  C   UNL     1      45.081   4.622  10.944  0.00  0.00    +0.000 A 
ENDROOT
BRANCH   5   7
ATOM      7  N   UNL     1      45.091   3.011   9.138  0.00  0.00    +0.000 N 
ATOM      8  C   UNL     1      45.145   1.598   8.766  0.00  0.00    +0.000 C 
ATOM      9  C   UNL     1      46.465   1.346   8.031  0.00  0.00    +0.000 C 
ATOM     10  C   UNL     1      46.665   2.315   6.863  0.00  0.00    +0.000 C 
ATOM     11  C   UNL     1      46.469   3.771   7.294  0.00  0.00    +0.000 C 
ATOM     12  C   UNL     1      45.140   3.957   8.025  0.00  0.00    +0.000 C 
ENDBRANCH   5   7
BRANCH   1  13
ATOM     13  C   UNL     1      45.268   6.234  12.896  0.00  0.00    +0.000 C 
BRANCH  13  14
ATOM     14  O   UNL     1      46.653   6.366  12.588  0.00  0.00    +0.000 OA
BRANCH  14  20
ATOM     15  F   UNL     1      45.544  10.899  12.150  0.00  0.00    +0.000 F 
ATOM     16  C   UNL     1      46.478   9.944  12.071  0.00  0.00    +0.000 A 
ATOM     17  C   UNL     1      47.774  10.283  11.702  0.00  0.00    +0.000 A 
ATOM     18  C   UNL     1      48.744   9.289  11.620  0.00  0.00    +0.000 A 
ATOM     19  C   UNL     1      48.412   7.958  11.909  0.00  0.00    +0.000 A 
ATOM     20  C   UNL     1      47.106   7.622  12.281  0.00  0.00    +0.000 A 
ATOM     21  C   UNL     1      46.140   8.625  12.360  0.00  0.00    +0.000 A 
ENDBRANCH  14  20
ENDBRANCH  13  14
ENDBRANCH   1  13
TORSDOF 4
ENDMDL
MODEL 7
REMARK VINA RESULT:    -6.297      1.974      2.470
REMARK INTER + INTRA:          -8.573
REMARK INTER:                  -8.026
REMARK INTRA:                  -0.548
REMARK UNBOUND:                -0.804
REMARK  Name = 
REMARK  4 active torsions:
REMARK  status: ('A' for Active; 'I' for Inactive)
REMARK    1  A    between atoms: C_6  and  O_7
REMARK    2  A    between atoms: O_7  and  C_8
REMARK    3  A    between atoms: C_8  and  C_9
REMARK    4  A    between atoms: C_13  and  N_14
REMARK                            x       y       z     vdW  Elec       q    Type
REMARK                         _______ _______ _______ _____ _____    ______ ____
ROOT
ATOM      1  C   UNL     1      45.819   5.440  11.985  0.00  0.00    +0.000 A 
ATOM      2  C   UNL     1      45.475   4.308  12.712  0.00  0.00    +0.000 A 
ATOM      3  N   UNL     1      46.005   3.992  13.910  0.00  0.00    +0.000 NA
ATOM      4  C   UNL     1      46.925   4.856  14.408  0.00  0.00    +0.000 A 
ATOM      5  C   UNL     1      47.372   6.023  13.782  0.00  0.00    +0.000 A 
ATOM      6  C   UNL     1      46.801   6.280  12.528  0.00  0.00    +0.000 A 
ENDROOT
BRANCH   5   7
ATOM      7  N   UNL     1      48.248   6.920  14.361  0.00  0.00    +0.000 N 
ATOM      8  C   UNL     1      48.918   6.625  15.626  0.00  0.00    +0.000 C 
ATOM      9  C   UNL     1      48.879   7.886  16.494  0.00  0.00    +0.000 C 
ATOM     10  C   UNL     1      49.430   9.108  15.757  0.00  0.00    +0.000 C 
ATOM     11  C   UNL     1      48.775   9.286  14.384  0.00  0.00    +0.000 C 
ATOM     12  C   UNL     1      48.842   7.996  13.569  0.00  0.00    +0.000 C 
ENDBRANCH   5   7
BRANCH   1  13
ATOM     13  C   UNL     1      45.139   5.754  10.684  0.00  0.00    +0.000 C 
BRANCH  13  14
ATOM     14  O   UNL     1      44.380   4.622  10.268  0.00  0.00    +0.000 OA
BRANCH  14  20
ATOM     15  F   UNL     1      46.790   4.153   6.274  0.00  0.00    +0.000 F 
ATOM     16  C   UNL     1      46.226   3.568   7.338  0.00  0.00    +0.000 A 
ATOM     17  C   UNL     1      46.298   2.188   7.478  0.00  0.00    +0.000 A 
ATOM     18  C   UNL     1      45.711   1.581   8.584  0.00  0.00    +0.000 A 
ATOM     19  C   UNL     1      45.056   2.360   9.547  0.00  0.00    +0.000 A 
ATOM     20  C   UNL     1      44.987   3.750   9.403  0.00  0.00    +0.000 A 
ATOM     21  C   UNL     1      45.578   4.349   8.290  0.00  0.00    +0.000 A 
ENDBRANCH  14  20
ENDBRANCH  13  14
ENDBRANCH   1  13
TORSDOF 4
ENDMDL
MODEL 8
REMARK VINA RESULT:    -6.263      3.509      6.827
REMARK INTER + INTRA:          -8.531
REMARK INTER:                  -7.820
REMARK INTRA:                  -0.711
REMARK UNBOUND:                -0.804
REMARK  Name = 
REMARK  4 active torsions:
REMARK  status: ('A' for Active; 'I' for Inactive)
REMARK    1  A    between atoms: C_6  and  O_7
REMARK    2  A    between atoms: O_7  and  C_8
REMARK    3  A    between atoms: C_8  and  C_9
REMARK    4  A    between atoms: C_13  and  N_14
REMARK                            x       y       z     vdW  Elec       q    Type
REMARK                         _______ _______ _______ _____ _____    ______ ____
ROOT
ATOM      1  C   UNL     1      45.165   5.955  12.082  0.00  0.00    +0.000 A 
ATOM      2  C   UNL     1      44.310   5.284  12.945  0.00  0.00    +0.000 A 
ATOM      3  N   UNL     1      43.720   4.107  12.657  0.00  0.00    +0.000 NA
ATOM      4  C   UNL     1      44.005   3.573  11.442  0.00  0.00    +0.000 A 
ATOM      5  C   UNL     1      44.837   4.143  10.475  0.00  0.00    +0.000 A 
ATOM      6  C   UNL     1      45.397   5.378  10.826  0.00  0.00    +0.000 A 
ENDROOT
BRANCH   5   7
ATOM      7  N   UNL     1      45.168   3.526   9.284  0.00  0.00    +0.000 N 
ATOM      8  C   UNL     1      44.880   2.112   9.051  0.00  0.00    +0.000 C 
ATOM      9  C   UNL     1      46.100   1.480   8.374  0.00  0.00    +0.000 C 
ATOM     10  C   UNL     1      46.527   2.253   7.124  0.00  0.00    +0.000 C 
ATOM     11  C   UNL     1      46.687   3.748   7.409  0.00  0.00    +0.000 C 
ATOM     12  C   UNL     1      45.442   4.318   8.087  0.00  0.00    +0.000 C 
ENDBRANCH   5   7
BRANCH   1  13
ATOM     13  C   UNL     1      45.832   7.234  12.501  0.00  0.00    +0.000 C 
BRANCH  13  14
ATOM     14  O   UNL     1      44.839   8.240  12.683  0.00  0.00    +0.000 OA
BRANCH  14  20
ATOM     15  F   UNL     1      42.876  10.441   9.040  0.00  0.00    +0.000 F 
ATOM     16  C   UNL     1      43.840  10.415   9.968  0.00  0.00    +0.000 A 
ATOM     17  C   UNL     1      44.774  11.442  10.013  0.00  0.00    +0.000 A 
ATOM     18  C   UNL     1      45.776  11.413  10.978  0.00  0.00    +0.000 A 
ATOM     19  C   UNL     1      45.836  10.357  11.897  0.00  0.00    +0.000 A 
ATOM     20  C   UNL     1      44.892   9.325  11.848  0.00  0.00    +0.000 A 
ATOM     21  C   UNL     1      43.892   9.362  10.876  0.00  0.00    +0.000 A 
ENDBRANCH  14  20
ENDBRANCH  13  14
ENDBRANCH   1  13
TORSDOF 4
ENDMDL
MODEL 9
REMARK VINA RESULT:    -5.967      3.988      7.352
REMARK INTER + INTRA:          -8.166
REMARK INTER:                  -7.420
REMARK INTRA:                  -0.746
REMARK UNBOUND:                -0.804
REMARK  Name = 
REMARK  4 active torsions:
REMARK  status: ('A' for Active; 'I' for Inactive)
REMARK    1  A    between atoms: C_6  and  O_7
REMARK    2  A    between atoms: O_7  and  C_8
REMARK    3  A    between atoms: C_8  and  C_9
REMARK    4  A    between atoms: C_13  and  N_14
REMARK                            x       y       z     vdW  Elec       q    Type
REMARK                         _______ _______ _______ _____ _____    ______ ____
ROOT
ATOM      1  C   UNL     1      47.855   7.167  13.849  0.00  0.00    +0.000 A 
ATOM      2  C   UNL     1      47.230   8.399  13.718  0.00  0.00    +0.000 A 
ATOM      3  N   UNL     1      46.104   8.601  13.006  0.00  0.00    +0.000 NA
ATOM      4  C   UNL     1      45.574   7.512  12.395  0.00  0.00    +0.000 A 
ATOM      5  C   UNL     1      46.102   6.218  12.433  0.00  0.00    +0.000 A 
ATOM      6  C   UNL     1      47.287   6.081  13.168  0.00  0.00    +0.000 A 
ENDROOT
BRANCH   5   7
ATOM      7  N   UNL     1      45.486   5.119  11.867  0.00  0.00    +0.000 N 
ATOM      8  C   UNL     1      45.203   5.056  10.434  0.00  0.00    +0.000 C 
ATOM      9  C   UNL     1      43.794   4.485  10.249  0.00  0.00    +0.000 C 
ATOM     10  C   UNL     1      43.610   3.159  10.990  0.00  0.00    +0.000 C 
ATOM     11  C   UNL     1      44.044   3.261  12.454  0.00  0.00    +0.000 C 
ATOM     12  C   UNL     1      45.453   3.839  12.573  0.00  0.00    +0.000 C 
ENDBRANCH   5   7
BRANCH   1  13
ATOM     13  C   UNL     1      49.075   7.010  14.711  0.00  0.00    +0.000 C 
BRANCH  13  14
ATOM     14  O   UNL     1      48.668   6.823  16.064  0.00  0.00    +0.000 OA
BRANCH  14  20
ATOM     15  F   UNL     1      47.015   2.633  17.363  0.00  0.00    +0.000 F 
ATOM     16  C   UNL     1      48.055   3.472  17.289  0.00  0.00    +0.000 A 
ATOM     17  C   UNL     1      49.292   3.073  17.777  0.00  0.00    +0.000 A 
ATOM     18  C   UNL     1      50.373   3.947  17.700  0.00  0.00    +0.000 A 
ATOM     19  C   UNL     1      50.209   5.217  17.132  0.00  0.00    +0.000 A 
ATOM     20  C   UNL     1      48.961   5.615  16.641  0.00  0.00    +0.000 A 
ATOM     21  C   UNL     1      47.884   4.732  16.723  0.00  0.00    +0.000 A 
ENDBRANCH  14  20
ENDBRANCH  13  14
ENDBRANCH   1  13
TORSDOF 4
ENDMDL
