MODEL 1
REMARK VINA RESULT:    -7.547      0.000      0.000
REMARK INTER + INTRA:         -11.385
REMARK INTER:                 -10.194
REMARK INTRA:                  -1.190
REMARK UNBOUND:                -1.190
REMARK  Name = 
REMARK  7 active torsions:
REMARK  status: ('A' for Active; 'I' for Inactive)
REMARK    1  A    between atoms: C_1  and  N_2
REMARK    2  A    between atoms: N_2  and  C_3
REMARK    3  A    between atoms: C_3  and  C_4
REMARK    4  A    between atoms: C_7  and  C_8
REMARK    5  A    between atoms: C_8  and  C_9
REMARK    6  A    between atoms: C_9  and  C_10
REMARK    7  A    between atoms: C_18  and  C_20
REMARK                            x       y       z     vdW  Elec       q    Type
REMARK                         _______ _______ _______ _____ _____    ______ ____
ROOT
ATOM      1  C   UNL     1      46.342   8.547  12.261  0.00  0.00    +0.000 C 
ATOM      2  N   UNL     1      46.112   7.113  12.113  0.00  0.00    +0.000 N 
ATOM      3  C   UNL     1      44.847   6.718  11.657  0.00  0.00    +0.000 C 
ATOM      4  O   UNL     1      43.984   7.542  11.370  0.00  0.00    +0.000 OA
ENDROOT
BRANCH   3   5
ATOM      5  C   UNL     1      44.539   5.285  11.543  0.00  0.00    +0.000 A 
ATOM      6  C   UNL     1      43.806   4.559  12.468  0.00  0.00    +0.000 A 
ATOM      7  S   UNL     1      43.558   2.932  12.018  0.00  0.00    +0.000 S 
ATOM      8  C   UNL     1      44.288   3.185  10.503  0.00  0.00    +0.000 A 
ATOM      9  N   UNL     1      44.307   2.208   9.560  0.00  0.00    +0.000 NA
ATOM     10  C   UNL     1      44.820   2.574   8.432  0.00  0.00    +0.000 A 
ATOM     11  N   UNL     1      45.359   3.809   8.179  0.00  0.00    +0.000 N 
ATOM     12  C   UNL     1      45.504   4.773   9.154  0.00  0.00    +0.000 A 
ATOM     13  O   UNL     1      46.222   5.749   8.974  0.00  0.00    +0.000 OA
ATOM     14  C   UNL     1      44.811   4.460  10.391  0.00  0.00    +0.000 A 
ATOM     15  H   UNL     1      45.814   4.003   7.300  0.00  0.00    +0.000 HD
ENDBRANCH   3   5
BRANCH   2  16
ATOM     16  C   UNL     1      47.231   6.185  12.332  0.00  0.00    +0.000 C 
BRANCH  16  17
ATOM     17  C   UNL     1      47.521   5.769  13.750  0.00  0.00    +0.000 A 
ATOM     18  C   UNL     1      46.919   4.642  14.290  0.00  0.00    +0.000 A 
ATOM     19  C   UNL     1      47.220   4.284  15.598  0.00  0.00    +0.000 A 
ATOM     20  C   UNL     1      48.138   5.034  16.341  0.00  0.00    +0.000 A 
ATOM     21  C   UNL     1      48.675   6.160  15.724  0.00  0.00    +0.000 A 
ATOM     22  N   UNL     1      48.393   6.536  14.458  0.00  0.00    +0.000 NA
BRANCH  20  23
ATOM     23  C   UNL     1      48.522   4.700  17.761  0.00  0.00    +0.000 C 
BRANCH  23  24
ATOM     24  C   UNL     1      50.006   4.932  18.066  0.00  0.00    +0.000 C 
BRANCH  24  25
ATOM     25  C   UNL     1      50.840   3.691  17.923  0.00  0.00    +0.000 A 
ATOM     26  C   UNL     1      50.280   2.511  17.424  0.00  0.00    +0.000 A 
ATOM     27  C   UNL     1      51.096   1.405  17.266  0.00  0.00    +0.000 A 
ATOM     28  N   UNL     1      52.410   1.391  17.576  0.00  0.00    +0.000 NA
ATOM     29  C   UNL     1      52.928   2.536  18.069  0.00  0.00    +0.000 A 
ATOM     30  C   UNL     1      52.194   3.694  18.264  0.00  0.00    +0.000 A 
ENDBRANCH  24  25
ENDBRANCH  23  24
ENDBRANCH  20  23
ENDBRANCH  16  17
ENDBRANCH   2  16
TORSDOF 6
ENDMDL
MODEL 2
REMARK VINA RESULT:    -7.165      3.631      8.506
REMARK INTER + INTRA:         -10.868
REMARK INTER:                  -9.693
REMARK INTRA:                  -1.175
REMARK UNBOUND:                -1.190
REMARK  Name = 
REMARK  7 active torsions:
REMARK  status: ('A' for Active; 'I' for Inactive)
REMARK    1  A    between atoms: C_1  and  N_2
REMARK    2  A    between atoms: N_2  and  C_3
REMARK    3  A    between atoms: C_3  and  C_4
REMARK    4  A    between atoms: C_7  and  C_8
REMARK    5  A    between atoms: C_8  and  C_9
REMARK    6  A    between atoms: C_9  and  C_10
REMARK    7  A    between atoms: C_18  and  C_20
REMARK                            x       y       z     vdW  Elec       q    Type
REMARK                         _______ _______ _______ _____ _____    ______ ____
ROOT
ATOM      1  C   UNL     1      49.327   7.483  12.632  0.00  0.00    +0.000 C 
ATOM      2  N   UNL     1      48.604   7.099  13.840  0.00  0.00    +0.000 N 
ATOM      3  C   UNL     1      49.371   6.863  14.990  0.00  0.00    +0.000 C 
ATOM      4  O   UNL     1      50.591   7.000  14.984  0.00  0.00    +0.000 OA
ENDROOT
BRANCH   3   5
ATOM      5  C   UNL     1      48.702   6.418  16.221  0.00  0.00    +0.000 A 
ATOM      6  C   UNL     1      48.433   5.097  16.540  0.00  0.00    +0.000 A 
ATOM      7  S   UNL     1      47.712   4.898  18.074  0.00  0.00    +0.000 S 
ATOM      8  C   UNL     1      47.879   6.554  18.425  0.00  0.00    +0.000 A 
ATOM      9  N   UNL     1      47.555   7.049  19.647  0.00  0.00    +0.000 NA
ATOM     10  C   UNL     1      47.814   8.307  19.792  0.00  0.00    +0.000 A 
ATOM     11  N   UNL     1      48.319   9.122  18.813  0.00  0.00    +0.000 N 
ATOM     12  C   UNL     1      48.510   8.697  17.515  0.00  0.00    +0.000 A 
ATOM     13  O   UNL     1      48.700   9.500  16.610  0.00  0.00    +0.000 OA
ATOM     14  C   UNL     1      48.373   7.262  17.344  0.00  0.00    +0.000 A 
ATOM     15  H   UNL     1      48.424  10.113  18.969  0.00  0.00    +0.000 HD
ENDBRANCH   3   5
BRANCH   2  16
ATOM     16  C   UNL     1      47.134   7.095  13.822  0.00  0.00    +0.000 C 
BRANCH  16  17
ATOM     17  C   UNL     1      46.453   6.110  12.908  0.00  0.00    +0.000 A 
ATOM     18  C   UNL     1      46.191   4.817  13.338  0.00  0.00    +0.000 A 
ATOM     19  C   UNL     1      45.553   3.940  12.470  0.00  0.00    +0.000 A 
ATOM     20  C   UNL     1      45.156   4.369  11.200  0.00  0.00    +0.000 A 
ATOM     21  C   UNL     1      45.480   5.676  10.848  0.00  0.00    +0.000 A 
ATOM     22  N   UNL     1      46.109   6.547  11.667  0.00  0.00    +0.000 NA
BRANCH  20  23
ATOM     23  C   UNL     1      44.449   3.478  10.209  0.00  0.00    +0.000 C 
BRANCH  23  24
ATOM     24  C   UNL     1      44.730   3.842   8.746  0.00  0.00    +0.000 C 
BRANCH  24  25
ATOM     25  C   UNL     1      45.808   2.998   8.126  0.00  0.00    +0.000 A 
ATOM     26  C   UNL     1      45.859   1.622   8.362  0.00  0.00    +0.000 A 
ATOM     27  C   UNL     1      46.842   0.877   7.734  0.00  0.00    +0.000 A 
ATOM     28  N   UNL     1      47.769   1.404   6.907  0.00  0.00    +0.000 NA
ATOM     29  C   UNL     1      47.711   2.738   6.702  0.00  0.00    +0.000 A 
ATOM     30  C   UNL     1      46.767   3.567   7.285  0.00  0.00    +0.000 A 
ENDBRANCH  24  25
ENDBRANCH  23  24
ENDBRANCH  20  23
ENDBRANCH  16  17
ENDBRANCH   2  16
TORSDOF 6
ENDMDL
MODEL 3
REMARK VINA RESULT:    -7.150      3.698      8.404
REMARK INTER + INTRA:         -10.849
REMARK INTER:                  -9.759
REMARK INTRA:                  -1.090
REMARK UNBOUND:                -1.190
REMARK  Name = 
REMARK  7 active torsions:
REMARK  status: ('A' for Active; 'I' for Inactive)
REMARK    1  A    between atoms: C_1  and  N_2
REMARK    2  A    between atoms: N_2  and  C_3
REMARK    3  A    between atoms: C_3  and  C_4
REMARK    4  A    between atoms: C_7  and  C_8
REMARK    5  A    between atoms: C_8  and  C_9
REMARK    6  A    between atoms: C_9  and  C_10
REMARK    7  A    between atoms: C_18  and  C_20
REMARK                            x       y       z     vdW  Elec       q    Type
REMARK                         _______ _______ _______ _____ _____    ______ ____
ROOT
ATOM      1  C   UNL     1      49.510   6.954  12.458  0.00  0.00    +0.000 C 
ATOM      2  N   UNL     1      48.862   7.333  13.710  0.00  0.00    +0.000 N 
ATOM      3  C   UNL     1      49.701   7.699  14.772  0.00  0.00    +0.000 C 
ATOM      4  O   UNL     1      50.922   7.722  14.644  0.00  0.00    +0.000 OA
ENDROOT
BRANCH   3   5
ATOM      5  C   UNL     1      49.107   8.036  16.074  0.00  0.00    +0.000 A 
ATOM      6  C   UNL     1      48.764   9.316  16.478  0.00  0.00    +0.000 A 
ATOM      7  S   UNL     1      48.029   9.373  18.017  0.00  0.00    +0.000 S 
ATOM      8  C   UNL     1      48.005   7.676  18.125  0.00  0.00    +0.000 A 
ATOM      9  N   UNL     1      47.396   7.047  19.163  0.00  0.00    +0.000 NA
ATOM     10  C   UNL     1      47.386   5.758  19.066  0.00  0.00    +0.000 A 
ATOM     11  N   UNL     1      47.970   5.043  18.054  0.00  0.00    +0.000 N 
ATOM     12  C   UNL     1      48.733   5.633  17.069  0.00  0.00    +0.000 A 
ATOM     13  O   UNL     1      49.457   4.961  16.344  0.00  0.00    +0.000 OA
ATOM     14  C   UNL     1      48.649   7.083  17.055  0.00  0.00    +0.000 A 
ATOM     15  H   UNL     1      47.992   4.035  18.080  0.00  0.00    +0.000 HD
ENDBRANCH   3   5
BRANCH   2  16
ATOM     16  C   UNL     1      47.396   7.426  13.756  0.00  0.00    +0.000 C 
BRANCH  16  17
ATOM     17  C   UNL     1      46.611   6.430  12.942  0.00  0.00    +0.000 A 
ATOM     18  C   UNL     1      46.377   5.152  13.429  0.00  0.00    +0.000 A 
ATOM     19  C   UNL     1      45.641   4.265  12.654  0.00  0.00    +0.000 A 
ATOM     20  C   UNL     1      45.121   4.671  11.420  0.00  0.00    +0.000 A 
ATOM     21  C   UNL     1      45.425   5.963  11.004  0.00  0.00    +0.000 A 
ATOM     22  N   UNL     1      46.147   6.843  11.732  0.00  0.00    +0.000 NA
BRANCH  20  23
ATOM     23  C   UNL     1      44.304   3.768  10.530  0.00  0.00    +0.000 C 
BRANCH  23  24
ATOM     24  C   UNL     1      44.442   4.088   9.037  0.00  0.00    +0.000 C 
BRANCH  24  25
ATOM     25  C   UNL     1      45.463   3.232   8.342  0.00  0.00    +0.000 A 
ATOM     26  C   UNL     1      46.384   3.800   7.457  0.00  0.00    +0.000 A 
ATOM     27  C   UNL     1      47.335   2.980   6.875  0.00  0.00    +0.000 A 
ATOM     28  N   UNL     1      47.424   1.653   7.103  0.00  0.00    +0.000 NA
ATOM     29  C   UNL     1      46.517   1.122   7.951  0.00  0.00    +0.000 A 
ATOM     30  C   UNL     1      45.528   1.858   8.582  0.00  0.00    +0.000 A 
ENDBRANCH  24  25
ENDBRANCH  23  24
ENDBRANCH  20  23
ENDBRANCH  16  17
ENDBRANCH   2  16
TORSDOF 6
ENDMDL
MODEL 4
REMARK VINA RESULT:    -6.969      2.228      3.462
REMARK INTER + INTRA:         -10.604
REMARK INTER:                  -9.482
REMARK INTRA:                  -1.123
REMARK UNBOUND:                -1.190
REMARK  Name = 
REMARK  7 active torsions:
REMARK  status: ('A' for Active; 'I' for Inactive)
REMARK    1  A    between atoms: C_1  and  N_2
REMARK    2  A    between atoms: N_2  and  C_3
REMARK    3  A    between atoms: C_3  and  C_4
REMARK    4  A    between atoms: C_7  and  C_8
REMARK    5  A    between atoms: C_8  and  C_9
REMARK    6  A    between atoms: C_9  and  C_10
REMARK    7  A    between atoms: C_18  and  C_20
REMARK                            x       y       z     vdW  Elec       q    Type
REMARK                         _______ _______ _______ _____ _____    ______ ____
ROOT
ATOM      1  C   UNL     1      45.968   8.586  12.057  0.00  0.00    +0.000 C 
ATOM      2  N   UNL     1      45.843   7.135  11.954  0.00  0.00    +0.000 N 
ATOM      3  C   UNL     1      44.595   6.632  11.564  0.00  0.00    +0.000 C 
ATOM      4  O   UNL     1      43.659   7.380  11.296  0.00  0.00    +0.000 OA
ENDROOT
BRANCH   3   5
ATOM      5  C   UNL     1      44.394   5.177  11.498  0.00  0.00    +0.000 A 
ATOM      6  C   UNL     1      43.696   4.433  12.436  0.00  0.00    +0.000 A 
ATOM      7  S   UNL     1      43.576   2.777  12.043  0.00  0.00    +0.000 S 
ATOM      8  C   UNL     1      44.317   3.029  10.533  0.00  0.00    +0.000 A 
ATOM      9  N   UNL     1      44.426   2.022   9.628  0.00  0.00    +0.000 NA
ATOM     10  C   UNL     1      44.934   2.384   8.496  0.00  0.00    +0.000 A 
ATOM     11  N   UNL     1      45.387   3.645   8.206  0.00  0.00    +0.000 N 
ATOM     12  C   UNL     1      45.442   4.651   9.147  0.00  0.00    +0.000 A 
ATOM     13  O   UNL     1      46.091   5.670   8.944  0.00  0.00    +0.000 OA
ATOM     14  C   UNL     1      44.748   4.334  10.383  0.00  0.00    +0.000 A 
ATOM     15  H   UNL     1      45.845   3.840   7.329  0.00  0.00    +0.000 HD
ENDBRANCH   3   5
BRANCH   2  16
ATOM     16  C   UNL     1      47.039   6.301  12.146  0.00  0.00    +0.000 C 
BRANCH  16  17
ATOM     17  C   UNL     1      47.453   5.995  13.561  0.00  0.00    +0.000 A 
ATOM     18  C   UNL     1      48.316   6.843  14.241  0.00  0.00    +0.000 A 
ATOM     19  C   UNL     1      48.667   6.533  15.548  0.00  0.00    +0.000 A 
ATOM     20  C   UNL     1      48.133   5.401  16.172  0.00  0.00    +0.000 A 
ATOM     21  C   UNL     1      47.294   4.598  15.406  0.00  0.00    +0.000 A 
ATOM     22  N   UNL     1      46.944   4.870  14.130  0.00  0.00    +0.000 NA
BRANCH  20  23
ATOM     23  C   UNL     1      48.460   5.008  17.591  0.00  0.00    +0.000 C 
BRANCH  23  24
ATOM     24  C   UNL     1      47.280   5.165  18.559  0.00  0.00    +0.000 C 
BRANCH  24  25
ATOM     25  C   UNL     1      47.444   6.320  19.505  0.00  0.00    +0.000 A 
ATOM     26  C   UNL     1      47.697   7.606  19.021  0.00  0.00    +0.000 A 
ATOM     27  C   UNL     1      47.795   8.648  19.927  0.00  0.00    +0.000 A 
ATOM     28  N   UNL     1      47.670   8.496  21.263  0.00  0.00    +0.000 NA
ATOM     29  C   UNL     1      47.441   7.243  21.711  0.00  0.00    +0.000 A 
ATOM     30  C   UNL     1      47.326   6.137  20.885  0.00  0.00    +0.000 A 
ENDBRANCH  24  25
ENDBRANCH  23  24
ENDBRANCH  20  23
ENDBRANCH  16  17
ENDBRANCH   2  16
TORSDOF 6
ENDMDL
MODEL 5
REMARK VINA RESULT:    -6.684      3.032      8.178
REMARK INTER + INTRA:         -10.218
REMARK INTER:                  -9.021
REMARK INTRA:                  -1.197
REMARK UNBOUND:                -1.190
REMARK  Name = 
REMARK  7 active torsions:
REMARK  status: ('A' for Active; 'I' for Inactive)
REMARK    1  A    between atoms: C_1  and  N_2
REMARK    2  A    between atoms: N_2  and  C_3
REMARK    3  A    between atoms: C_3  and  C_4
REMARK    4  A    between atoms: C_7  and  C_8
REMARK    5  A    between atoms: C_8  and  C_9
REMARK    6  A    between atoms: C_9  and  C_10
REMARK    7  A    between atoms: C_18  and  C_20
REMARK                            x       y       z     vdW  Elec       q    Type
REMARK                         _______ _______ _______ _____ _____    ______ ____
ROOT
ATOM      1  C   UNL     1      48.747   9.053  16.307  0.00  0.00    +0.000 C 
ATOM      2  N   UNL     1      48.762   7.593  16.283  0.00  0.00    +0.000 N 
ATOM      3  C   UNL     1      48.338   6.936  17.446  0.00  0.00    +0.000 C 
ATOM      4  O   UNL     1      47.948   7.561  18.428  0.00  0.00    +0.000 OA
ENDROOT
BRANCH   3   5
ATOM      5  C   UNL     1      48.386   5.468  17.501  0.00  0.00    +0.000 A 
ATOM      6  C   UNL     1      47.299   4.634  17.297  0.00  0.00    +0.000 A 
ATOM      7  S   UNL     1      47.690   2.974  17.355  0.00  0.00    +0.000 S 
ATOM      8  C   UNL     1      49.350   3.317  17.498  0.00  0.00    +0.000 A 
ATOM      9  N   UNL     1      50.276   2.325  17.483  0.00  0.00    +0.000 NA
ATOM     10  C   UNL     1      51.498   2.744  17.516  0.00  0.00    +0.000 A 
ATOM     11  N   UNL     1      51.875   4.058  17.613  0.00  0.00    +0.000 N 
ATOM     12  C   UNL     1      50.969   5.081  17.792  0.00  0.00    +0.000 A 
ATOM     13  O   UNL     1      51.337   6.196  18.143  0.00  0.00    +0.000 OA
ATOM     14  C   UNL     1      49.586   4.675  17.614  0.00  0.00    +0.000 A 
ATOM     15  H   UNL     1      52.846   4.311  17.713  0.00  0.00    +0.000 HD
ENDBRANCH   3   5
BRANCH   2  16
ATOM     16  C   UNL     1      49.100   6.904  15.030  0.00  0.00    +0.000 C 
BRANCH  16  17
ATOM     17  C   UNL     1      48.000   6.721  14.018  0.00  0.00    +0.000 A 
ATOM     18  C   UNL     1      47.362   5.496  13.886  0.00  0.00    +0.000 A 
ATOM     19  C   UNL     1      46.344   5.369  12.950  0.00  0.00    +0.000 A 
ATOM     20  C   UNL     1      45.955   6.469  12.178  0.00  0.00    +0.000 A 
ATOM     21  C   UNL     1      46.666   7.650  12.364  0.00  0.00    +0.000 A 
ATOM     22  N   UNL     1      47.665   7.799  13.261  0.00  0.00    +0.000 NA
BRANCH  20  23
ATOM     23  C   UNL     1      44.852   6.409  11.150  0.00  0.00    +0.000 C 
BRANCH  23  24
ATOM     24  C   UNL     1      44.170   5.039  11.059  0.00  0.00    +0.000 C 
BRANCH  24  25
ATOM     25  C   UNL     1      44.752   4.161   9.988  0.00  0.00    +0.000 A 
ATOM     26  C   UNL     1      44.548   2.779  10.011  0.00  0.00    +0.000 A 
ATOM     27  C   UNL     1      45.064   2.015   8.979  0.00  0.00    +0.000 A 
ATOM     28  N   UNL     1      45.767   2.525   7.947  0.00  0.00    +0.000 NA
ATOM     29  C   UNL     1      45.966   3.861   7.950  0.00  0.00    +0.000 A 
ATOM     30  C   UNL     1      45.491   4.709   8.936  0.00  0.00    +0.000 A 
ENDBRANCH  24  25
ENDBRANCH  23  24
ENDBRANCH  20  23
ENDBRANCH  16  17
ENDBRANCH   2  16
TORSDOF 6
ENDMDL
MODEL 6
REMARK VINA RESULT:    -6.633      3.190      8.368
REMARK INTER + INTRA:         -10.150
REMARK INTER:                  -9.089
REMARK INTRA:                  -1.061
REMARK UNBOUND:                -1.190
REMARK  Name = 
REMARK  7 active torsions:
REMARK  status: ('A' for Active; 'I' for Inactive)
REMARK    1  A    between atoms: C_1  and  N_2
REMARK    2  A    between atoms: N_2  and  C_3
REMARK    3  A    between atoms: C_3  and  C_4
REMARK    4  A    between atoms: C_7  and  C_8
REMARK    5  A    between atoms: C_8  and  C_9
REMARK    6  A    between atoms: C_9  and  C_10
REMARK    7  A    between atoms: C_18  and  C_20
REMARK                            x       y       z     vdW  Elec       q    Type
REMARK                         _______ _______ _______ _____ _____    ______ ____
ROOT
ATOM      1  C   UNL     1      47.240   8.809  14.092  0.00  0.00    +0.000 C 
ATOM      2  N   UNL     1      48.278   7.847  14.450  0.00  0.00    +0.000 N 
ATOM      3  C   UNL     1      48.848   7.976  15.724  0.00  0.00    +0.000 C 
ATOM      4  O   UNL     1      48.472   8.842  16.509  0.00  0.00    +0.000 OA
ENDROOT
BRANCH   3   5
ATOM      5  C   UNL     1      49.938   7.071  16.119  0.00  0.00    +0.000 A 
ATOM      6  C   UNL     1      51.285   7.392  16.078  0.00  0.00    +0.000 A 
ATOM      7  S   UNL     1      52.301   6.155  16.668  0.00  0.00    +0.000 S 
ATOM      8  C   UNL     1      50.965   5.214  17.141  0.00  0.00    +0.000 A 
ATOM      9  N   UNL     1      51.132   4.054  17.828  0.00  0.00    +0.000 NA
ATOM     10  C   UNL     1      50.026   3.493  18.191  0.00  0.00    +0.000 A 
ATOM     11  N   UNL     1      48.773   3.959  17.889  0.00  0.00    +0.000 N 
ATOM     12  C   UNL     1      48.561   5.041  17.061  0.00  0.00    +0.000 A 
ATOM     13  O   UNL     1      47.452   5.270  16.593  0.00  0.00    +0.000 OA
ATOM     14  C   UNL     1      49.769   5.786  16.752  0.00  0.00    +0.000 A 
ATOM     15  H   UNL     1      47.951   3.430  18.137  0.00  0.00    +0.000 HD
ENDBRANCH   3   5
BRANCH   2  16
ATOM     16  C   UNL     1      48.580   6.746  13.525  0.00  0.00    +0.000 C 
BRANCH  16  17
ATOM     17  C   UNL     1      47.433   6.155  12.749  0.00  0.00    +0.000 A 
ATOM     18  C   UNL     1      46.703   5.095  13.270  0.00  0.00    +0.000 A 
ATOM     19  C   UNL     1      45.645   4.583  12.530  0.00  0.00    +0.000 A 
ATOM     20  C   UNL     1      45.308   5.151  11.297  0.00  0.00    +0.000 A 
ATOM     21  C   UNL     1      46.109   6.195  10.845  0.00  0.00    +0.000 A 
ATOM     22  N   UNL     1      47.149   6.706  11.539  0.00  0.00    +0.000 NA
BRANCH  20  23
ATOM     23  C   UNL     1      44.166   4.656  10.443  0.00  0.00    +0.000 C 
BRANCH  23  24
ATOM     24  C   UNL     1      44.261   3.165  10.096  0.00  0.00    +0.000 C 
BRANCH  24  25
ATOM     25  C   UNL     1      45.173   2.887   8.935  0.00  0.00    +0.000 A 
ATOM     26  C   UNL     1      45.509   3.902   8.034  0.00  0.00    +0.000 A 
ATOM     27  C   UNL     1      46.388   3.611   7.006  0.00  0.00    +0.000 A 
ATOM     28  N   UNL     1      46.940   2.394   6.812  0.00  0.00    +0.000 NA
ATOM     29  C   UNL     1      46.592   1.425   7.684  0.00  0.00    +0.000 A 
ATOM     30  C   UNL     1      45.720   1.616   8.743  0.00  0.00    +0.000 A 
ENDBRANCH  24  25
ENDBRANCH  23  24
ENDBRANCH  20  23
ENDBRANCH  16  17
ENDBRANCH   2  16
TORSDOF 6
ENDMDL
MODEL 7
REMARK VINA RESULT:    -6.618      3.336      7.973
REMARK INTER + INTRA:         -10.130
REMARK INTER:                  -8.716
REMARK INTRA:                  -1.414
REMARK UNBOUND:                -1.190
REMARK  Name = 
REMARK  7 active torsions:
REMARK  status: ('A' for Active; 'I' for Inactive)
REMARK    1  A    between atoms: C_1  and  N_2
REMARK    2  A    between atoms: N_2  and  C_3
REMARK    3  A    between atoms: C_3  and  C_4
REMARK    4  A    between atoms: C_7  and  C_8
REMARK    5  A    between atoms: C_8  and  C_9
REMARK    6  A    between atoms: C_9  and  C_10
REMARK    7  A    between atoms: C_18  and  C_20
REMARK                            x       y       z     vdW  Elec       q    Type
REMARK                         _______ _______ _______ _____ _____    ______ ____
ROOT
ATOM      1  C   UNL     1      47.766   9.150  17.977  0.00  0.00    +0.000 C 
ATOM      2  N   UNL     1      48.686   8.097  17.560  0.00  0.00    +0.000 N 
ATOM      3  C   UNL     1      48.737   6.947  18.359  0.00  0.00    +0.000 C 
ATOM      4  O   UNL     1      48.022   6.824  19.350  0.00  0.00    +0.000 OA
ENDROOT
BRANCH   3   5
ATOM      5  C   UNL     1      49.686   5.876  18.020  0.00  0.00    +0.000 A 
ATOM      6  C   UNL     1      51.024   5.864  18.380  0.00  0.00    +0.000 A 
ATOM      7  S   UNL     1      51.848   4.449  17.899  0.00  0.00    +0.000 S 
ATOM      8  C   UNL     1      50.409   3.742  17.332  0.00  0.00    +0.000 A 
ATOM      9  N   UNL     1      50.385   2.460  16.885  0.00  0.00    +0.000 NA
ATOM     10  C   UNL     1      49.207   2.034  16.566  0.00  0.00    +0.000 A 
ATOM     11  N   UNL     1      48.063   2.787  16.608  0.00  0.00    +0.000 N 
ATOM     12  C   UNL     1      48.068   4.134  16.902  0.00  0.00    +0.000 A 
ATOM     13  O   UNL     1      47.089   4.834  16.672  0.00  0.00    +0.000 OA
ATOM     14  C   UNL     1      49.341   4.617  17.407  0.00  0.00    +0.000 A 
ATOM     15  H   UNL     1      47.188   2.416  16.271  0.00  0.00    +0.000 HD
ENDBRANCH   3   5
BRANCH   2  16
ATOM     16  C   UNL     1      49.406   8.241  16.286  0.00  0.00    +0.000 C 
BRANCH  16  17
ATOM     17  C   UNL     1      48.685   7.830  15.029  0.00  0.00    +0.000 A 
ATOM     18  C   UNL     1      47.689   8.635  14.495  0.00  0.00    +0.000 A 
ATOM     19  C   UNL     1      47.054   8.228  13.329  0.00  0.00    +0.000 A 
ATOM     20  C   UNL     1      47.438   7.043  12.694  0.00  0.00    +0.000 A 
ATOM     21  C   UNL     1      48.432   6.291  13.314  0.00  0.00    +0.000 A 
ATOM     22  N   UNL     1      49.059   6.658  14.453  0.00  0.00    +0.000 NA
BRANCH  20  23
ATOM     23  C   UNL     1      46.803   6.543  11.420  0.00  0.00    +0.000 C 
BRANCH  23  24
ATOM     24  C   UNL     1      45.270   6.582  11.442  0.00  0.00    +0.000 C 
BRANCH  24  25
ATOM     25  C   UNL     1      44.645   5.215  11.417  0.00  0.00    +0.000 A 
ATOM     26  C   UNL     1      44.043   4.687  12.561  0.00  0.00    +0.000 A 
ATOM     27  C   UNL     1      43.440   3.444  12.479  0.00  0.00    +0.000 A 
ATOM     28  N   UNL     1      43.406   2.699  11.354  0.00  0.00    +0.000 NA
ATOM     29  C   UNL     1      44.006   3.221  10.263  0.00  0.00    +0.000 A 
ATOM     30  C   UNL     1      44.635   4.454  10.245  0.00  0.00    +0.000 A 
ENDBRANCH  24  25
ENDBRANCH  23  24
ENDBRANCH  20  23
ENDBRANCH  16  17
ENDBRANCH   2  16
TORSDOF 6
ENDMDL
MODEL 8
REMARK VINA RESULT:    -6.544      3.648      8.572
REMARK INTER + INTRA:         -10.030
REMARK INTER:                  -8.691
REMARK INTRA:                  -1.338
REMARK UNBOUND:                -1.190
REMARK  Name = 
REMARK  7 active torsions:
REMARK  status: ('A' for Active; 'I' for Inactive)
REMARK    1  A    between atoms: C_1  and  N_2
REMARK    2  A    between atoms: N_2  and  C_3
REMARK    3  A    between atoms: C_3  and  C_4
REMARK    4  A    between atoms: C_7  and  C_8
REMARK    5  A    between atoms: C_8  and  C_9
REMARK    6  A    between atoms: C_9  and  C_10
REMARK    7  A    between atoms: C_18  and  C_20
REMARK                            x       y       z     vdW  Elec       q    Type
REMARK                         _______ _______ _______ _____ _____    ______ ____
ROOT
ATOM      1  C   UNL     1      46.955   4.123  17.395  0.00  0.00    +0.000 C 
ATOM      2  N   UNL     1      47.812   4.921  16.524  0.00  0.00    +0.000 N 
ATOM      3  C   UNL     1      48.423   6.046  17.094  0.00  0.00    +0.000 C 
ATOM      4  O   UNL     1      48.264   6.330  18.277  0.00  0.00    +0.000 OA
ENDROOT
BRANCH   3   5
ATOM      5  C   UNL     1      49.253   6.919  16.250  0.00  0.00    +0.000 A 
ATOM      6  C   UNL     1      48.799   8.061  15.609  0.00  0.00    +0.000 A 
ATOM      7  S   UNL     1      50.019   8.899  14.761  0.00  0.00    +0.000 S 
ATOM      8  C   UNL     1      51.222   7.851  15.352  0.00  0.00    +0.000 A 
ATOM      9  N   UNL     1      52.537   8.076  15.097  0.00  0.00    +0.000 NA
ATOM     10  C   UNL     1      53.336   7.245  15.680  0.00  0.00    +0.000 A 
ATOM     11  N   UNL     1      52.939   6.184  16.452  0.00  0.00    +0.000 N 
ATOM     12  C   UNL     1      51.616   5.827  16.604  0.00  0.00    +0.000 A 
ATOM     13  O   UNL     1      51.306   4.736  17.066  0.00  0.00    +0.000 OA
ATOM     14  C   UNL     1      50.682   6.814  16.091  0.00  0.00    +0.000 A 
ATOM     15  H   UNL     1      53.614   5.528  16.814  0.00  0.00    +0.000 HD
ENDBRANCH   3   5
BRANCH   2  16
ATOM     16  C   UNL     1      48.080   4.447  15.158  0.00  0.00    +0.000 C 
BRANCH  16  17
ATOM     17  C   UNL     1      47.107   4.849  14.080  0.00  0.00    +0.000 A 
ATOM     18  C   UNL     1      47.463   5.795  13.128  0.00  0.00    +0.000 A 
ATOM     19  C   UNL     1      46.544   6.132  12.144  0.00  0.00    +0.000 A 
ATOM     20  C   UNL     1      45.295   5.504  12.101  0.00  0.00    +0.000 A 
ATOM     21  C   UNL     1      45.018   4.585  13.109  0.00  0.00    +0.000 A 
ATOM     22  N   UNL     1      45.889   4.245  14.084  0.00  0.00    +0.000 NA
BRANCH  20  23
ATOM     23  C   UNL     1      44.250   5.810  11.056  0.00  0.00    +0.000 C 
BRANCH  23  24
ATOM     24  C   UNL     1      43.586   4.560  10.467  0.00  0.00    +0.000 C 
BRANCH  24  25
ATOM     25  C   UNL     1      44.486   3.796   9.538  0.00  0.00    +0.000 A 
ATOM     26  C   UNL     1      45.259   4.466   8.585  0.00  0.00    +0.000 A 
ATOM     27  C   UNL     1      46.107   3.725   7.781  0.00  0.00    +0.000 A 
ATOM     28  N   UNL     1      46.228   2.383   7.853  0.00  0.00    +0.000 NA
ATOM     29  C   UNL     1      45.463   1.754   8.770  0.00  0.00    +0.000 A 
ATOM     30  C   UNL     1      44.584   2.405   9.619  0.00  0.00    +0.000 A 
ENDBRANCH  24  25
ENDBRANCH  23  24
ENDBRANCH  20  23
ENDBRANCH  16  17
ENDBRANCH   2  16
TORSDOF 6
ENDMDL
MODEL 9
REMARK VINA RESULT:    -6.206      3.060      4.332
REMARK INTER + INTRA:          -9.573
REMARK INTER:                  -7.963
REMARK INTRA:                  -1.610
REMARK UNBOUND:                -1.190
REMARK  Name = 
REMARK  7 active torsions:
REMARK  status: ('A' for Active; 'I' for Inactive)
REMARK    1  A    between atoms: C_1  and  N_2
REMARK    2  A    between atoms: N_2  and  C_3
REMARK    3  A    between atoms: C_3  and  C_4
REMARK    4  A    between atoms: C_7  and  C_8
REMARK    5  A    between atoms: C_8  and  C_9
REMARK    6  A    between atoms: C_9  and  C_10
REMARK    7  A    between atoms: C_18  and  C_20
REMARK                            x       y       z     vdW  Elec       q    Type
REMARK                         _______ _______ _______ _____ _____    ______ ____
ROOT
ATOM      1  C   UNL     1      51.277   9.154  12.938  0.00  0.00    +0.000 C 
ATOM      2  N   UNL     1      49.836   9.084  13.159  0.00  0.00    +0.000 N 
ATOM      3  C   UNL     1      49.089   8.341  12.234  0.00  0.00    +0.000 C 
ATOM      4  O   UNL     1      49.628   7.757  11.298  0.00  0.00    +0.000 OA
ENDROOT
BRANCH   3   5
ATOM      5  C   UNL     1      47.626   8.282  12.373  0.00  0.00    +0.000 A 
ATOM      6  C   UNL     1      46.756   9.295  12.001  0.00  0.00    +0.000 A 
ATOM      7  S   UNL     1      45.112   8.897  12.221  0.00  0.00    +0.000 S 
ATOM      8  C   UNL     1      45.503   7.305  12.672  0.00  0.00    +0.000 A 
ATOM      9  N   UNL     1      44.535   6.379  12.892  0.00  0.00    +0.000 NA
ATOM     10  C   UNL     1      44.986   5.194  13.145  0.00  0.00    +0.000 A 
ATOM     11  N   UNL     1      46.312   4.865  13.246  0.00  0.00    +0.000 N 
ATOM     12  C   UNL     1      47.320   5.804  13.190  0.00  0.00    +0.000 A 
ATOM     13  O   UNL     1      48.458   5.530  13.548  0.00  0.00    +0.000 OA
ATOM     14  C   UNL     1      46.870   7.117  12.762  0.00  0.00    +0.000 A 
ATOM     15  H   UNL     1      46.594   3.937  13.524  0.00  0.00    +0.000 HD
ENDBRANCH   3   5
BRANCH   2  16
ATOM     16  C   UNL     1      49.270   9.682  14.376  0.00  0.00    +0.000 C 
BRANCH  16  17
ATOM     17  C   UNL     1      49.204   8.818  15.609  0.00  0.00    +0.000 A 
ATOM     18  C   UNL     1      48.340   9.138  16.647  0.00  0.00    +0.000 A 
ATOM     19  C   UNL     1      48.300   8.312  17.762  0.00  0.00    +0.000 A 
ATOM     20  C   UNL     1      49.096   7.164  17.818  0.00  0.00    +0.000 A 
ATOM     21  C   UNL     1      49.946   6.935  16.741  0.00  0.00    +0.000 A 
ATOM     22  N   UNL     1      50.013   7.727  15.648  0.00  0.00    +0.000 NA
BRANCH  20  23
ATOM     23  C   UNL     1      49.097   6.214  18.991  0.00  0.00    +0.000 C 
BRANCH  23  24
ATOM     24  C   UNL     1      48.062   5.089  18.871  0.00  0.00    +0.000 C 
BRANCH  24  25
ATOM     25  C   UNL     1      48.441   4.044  17.860  0.00  0.00    +0.000 A 
ATOM     26  C   UNL     1      49.609   3.294  18.016  0.00  0.00    +0.000 A 
ATOM     27  C   UNL     1      49.895   2.311  17.085  0.00  0.00    +0.000 A 
ATOM     28  N   UNL     1      49.113   2.036  16.020  0.00  0.00    +0.000 NA
ATOM     29  C   UNL     1      47.997   2.782  15.879  0.00  0.00    +0.000 A 
ATOM     30  C   UNL     1      47.625   3.787  16.756  0.00  0.00    +0.000 A 
ENDBRANCH  24  25
ENDBRANCH  23  24
ENDBRANCH  20  23
ENDBRANCH  16  17
ENDBRANCH   2  16
TORSDOF 6
ENDMDL
