MODEL 1
REMARK VINA RESULT:    -7.978      0.000      0.000
REMARK INTER + INTRA:         -13.443
REMARK INTER:                 -12.176
REMARK INTRA:                  -1.267
REMARK UNBOUND:                -1.267
REMARK  Name = 
REMARK  10 active torsions:
REMARK  status: ('A' for Active; 'I' for Inactive)
REMARK    1  A    between atoms: C_1  and  C_2
REMARK    2  A    between atoms: C_2  and  C_3
REMARK    3  A    between atoms: C_3  and  C_4
REMARK    4  A    between atoms: C_4  and  N_5
REMARK    5  A    between atoms: C_4  and  C_13
REMARK    6  A    between atoms: N_5  and  C_6
REMARK    7  A    between atoms: C_6  and  C_7
REMARK    8  A    between atoms: C_16  and  C_17
REMARK    9  A    between atoms: C_17  and  N_18
REMARK   10  A    between atoms: C_19  and  C_21
REMARK                            x       y       z     vdW  Elec       q    Type
REMARK                         _______ _______ _______ _____ _____    ______ ____
ROOT
ATOM      1  C   UNL     1      45.423   4.470  12.298  0.00  0.00    +0.000 A 
ATOM      2  C   UNL     1      45.971   5.500  11.532  0.00  0.00    +0.000 A 
ATOM      3  C   UNL     1      46.975   6.302  12.071  0.00  0.00    +0.000 A 
ATOM      4  C   UNL     1      47.457   6.038  13.350  0.00  0.00    +0.000 A 
ATOM      5  C   UNL     1      46.871   4.988  14.043  0.00  0.00    +0.000 A 
ATOM      6  N   UNL     1      45.871   4.215  13.556  0.00  0.00    +0.000 NA
ENDROOT
BRANCH   1   7
ATOM      7  C   UNL     1      44.317   3.539  11.754  0.00  0.00    +0.000 C 
BRANCH   7   8
ATOM      8  N   UNL     1      44.845   2.462  10.863  0.00  0.00    +0.000 NA
ATOM      9  H   UNL     1      44.455   1.571  11.165  0.00  0.00    +0.000 HD
BRANCH   8  10
ATOM     10  C   UNL     1      44.425   2.706   9.468  0.00  0.00    +0.000 C 
BRANCH  10  11
ATOM     11  C   UNL     1      45.489   2.537   8.411  0.00  0.00    +0.000 A 
ATOM     12  C   UNL     1      45.937   3.660   7.692  0.00  0.00    +0.000 A 
ATOM     13  C   UNL     1      47.010   3.555   6.814  0.00  0.00    +0.000 A 
ATOM     14  C   UNL     1      47.625   2.324   6.685  0.00  0.00    +0.000 A 
ATOM     15  N   UNL     1      47.224   1.216   7.346  0.00  0.00    +0.000 NA
ATOM     16  C   UNL     1      46.175   1.349   8.199  0.00  0.00    +0.000 A 
ENDBRANCH  10  11
ENDBRANCH   8  10
ENDBRANCH   7   8
BRANCH   7  17
ATOM     17  C   UNL     1      43.208   4.385  11.075  0.00  0.00    +0.000 C 
BRANCH  17  19
ATOM     18  C   UNL     1      42.721   6.809  11.422  0.00  0.00    +0.000 C 
ATOM     19  C   UNL     1      42.465   5.397  11.947  0.00  0.00    +0.000 C 
ENDBRANCH  17  19
ENDBRANCH   7  17
ENDBRANCH   1   7
BRANCH   4  20
ATOM     20  C   UNL     1      48.511   6.894  13.981  0.00  0.00    +0.000 C 
BRANCH  20  21
ATOM     21  N   UNL     1      48.259   7.052  15.389  0.00  0.00    +0.000 N 
ATOM     22  C   UNL     1      49.185   6.679  16.328  0.00  0.00    +0.000 C 
ATOM     23  O   UNL     1      50.289   6.246  16.009  0.00  0.00    +0.000 OA
ATOM     24  H   UNL     1      47.298   7.213  15.677  0.00  0.00    +0.000 HD
BRANCH  22  25
ATOM     25  C   UNL     1      48.811   6.875  17.733  0.00  0.00    +0.000 A 
ATOM     26  C   UNL     1      48.516   8.152  18.190  0.00  0.00    +0.000 A 
ATOM     27  S   UNL     1      48.067   8.204  19.835  0.00  0.00    +0.000 S 
ATOM     28  C   UNL     1      48.298   6.526  20.008  0.00  0.00    +0.000 A 
ATOM     29  N   UNL     1      48.108   5.916  21.208  0.00  0.00    +0.000 NA
ATOM     30  C   UNL     1      48.349   4.646  21.205  0.00  0.00    +0.000 A 
ATOM     31  N   UNL     1      48.752   3.932  20.107  0.00  0.00    +0.000 N 
ATOM     32  C   UNL     1      48.932   4.502  18.870  0.00  0.00    +0.000 A 
ATOM     33  O   UNL     1      49.251   3.827  17.896  0.00  0.00    +0.000 OA
ATOM     34  C   UNL     1      48.689   5.931  18.821  0.00  0.00    +0.000 A 
ATOM     35  H   UNL     1      48.920   2.937  20.172  0.00  0.00    +0.000 HD
ENDBRANCH  22  25
ENDBRANCH  20  21
ENDBRANCH   4  20
TORSDOF 9
ENDMDL
MODEL 2
REMARK VINA RESULT:    -7.828      1.623      2.008
REMARK INTER + INTRA:         -13.214
REMARK INTER:                 -11.724
REMARK INTRA:                  -1.490
REMARK UNBOUND:                -1.267
REMARK  Name = 
REMARK  10 active torsions:
REMARK  status: ('A' for Active; 'I' for Inactive)
REMARK    1  A    between atoms: C_1  and  C_2
REMARK    2  A    between atoms: C_2  and  C_3
REMARK    3  A    between atoms: C_3  and  C_4
REMARK    4  A    between atoms: C_4  and  N_5
REMARK    5  A    between atoms: C_4  and  C_13
REMARK    6  A    between atoms: N_5  and  C_6
REMARK    7  A    between atoms: C_6  and  C_7
REMARK    8  A    between atoms: C_16  and  C_17
REMARK    9  A    between atoms: C_17  and  N_18
REMARK   10  A    between atoms: C_19  and  C_21
REMARK                            x       y       z     vdW  Elec       q    Type
REMARK                         _______ _______ _______ _____ _____    ______ ____
ROOT
ATOM      1  C   UNL     1      45.650   6.235  11.530  0.00  0.00    +0.000 A 
ATOM      2  C   UNL     1      45.007   7.437  11.831  0.00  0.00    +0.000 A 
ATOM      3  C   UNL     1      45.639   8.373  12.645  0.00  0.00    +0.000 A 
ATOM      4  C   UNL     1      46.927   8.125  13.111  0.00  0.00    +0.000 A 
ATOM      5  C   UNL     1      47.506   6.914  12.757  0.00  0.00    +0.000 A 
ATOM      6  N   UNL     1      46.900   5.972  11.995  0.00  0.00    +0.000 NA
ENDROOT
BRANCH   1   7
ATOM      7  C   UNL     1      45.008   5.162  10.623  0.00  0.00    +0.000 C 
BRANCH   7   8
ATOM      8  N   UNL     1      45.465   5.247   9.203  0.00  0.00    +0.000 NA
ATOM      9  H   UNL     1      46.470   5.083   9.175  0.00  0.00    +0.000 HD
BRANCH   8  10
ATOM     10  C   UNL     1      44.800   4.206   8.392  0.00  0.00    +0.000 C 
BRANCH  10  11
ATOM     11  C   UNL     1      45.687   3.106   7.861  0.00  0.00    +0.000 A 
ATOM     12  C   UNL     1      46.631   3.399   6.860  0.00  0.00    +0.000 A 
ATOM     13  C   UNL     1      47.550   2.439   6.454  0.00  0.00    +0.000 A 
ATOM     14  C   UNL     1      47.515   1.203   7.071  0.00  0.00    +0.000 A 
ATOM     15  N   UNL     1      46.620   0.873   8.029  0.00  0.00    +0.000 NA
ATOM     16  C   UNL     1      45.735   1.832   8.408  0.00  0.00    +0.000 A 
ENDBRANCH  10  11
ENDBRANCH   8  10
ENDBRANCH   7   8
BRANCH   7  17
ATOM     17  C   UNL     1      43.464   5.219  10.758  0.00  0.00    +0.000 C 
BRANCH  17  19
ATOM     18  C   UNL     1      43.615   3.031  11.951  0.00  0.00    +0.000 C 
ATOM     19  C   UNL     1      42.820   4.330  11.821  0.00  0.00    +0.000 C 
ENDBRANCH  17  19
ENDBRANCH   7  17
ENDBRANCH   1   7
BRANCH   4  20
ATOM     20  C   UNL     1      47.631   9.088  14.016  0.00  0.00    +0.000 C 
BRANCH  20  21
ATOM     21  N   UNL     1      47.810   8.515  15.324  0.00  0.00    +0.000 N 
ATOM     22  C   UNL     1      49.037   8.498  15.935  0.00  0.00    +0.000 C 
ATOM     23  O   UNL     1      50.023   9.018  15.419  0.00  0.00    +0.000 OA
ATOM     24  H   UNL     1      47.072   7.913  15.676  0.00  0.00    +0.000 HD
BRANCH  22  25
ATOM     25  C   UNL     1      49.100   7.875  17.262  0.00  0.00    +0.000 A 
ATOM     26  C   UNL     1      49.428   8.650  18.366  0.00  0.00    +0.000 A 
ATOM     27  S   UNL     1      49.425   7.785  19.836  0.00  0.00    +0.000 S 
ATOM     28  C   UNL     1      49.032   6.331  19.043  0.00  0.00    +0.000 A 
ATOM     29  N   UNL     1      48.907   5.169  19.737  0.00  0.00    +0.000 NA
ATOM     30  C   UNL     1      48.638   4.137  19.008  0.00  0.00    +0.000 A 
ATOM     31  N   UNL     1      48.474   4.166  17.648  0.00  0.00    +0.000 N 
ATOM     32  C   UNL     1      48.567   5.320  16.908  0.00  0.00    +0.000 A 
ATOM     33  O   UNL     1      48.372   5.320  15.697  0.00  0.00    +0.000 OA
ATOM     34  C   UNL     1      48.883   6.508  17.678  0.00  0.00    +0.000 A 
ATOM     35  H   UNL     1      48.260   3.321  17.136  0.00  0.00    +0.000 HD
ENDBRANCH  22  25
ENDBRANCH  20  21
ENDBRANCH   4  20
TORSDOF 9
ENDMDL
MODEL 3
REMARK VINA RESULT:    -7.739      2.388      2.856
REMARK INTER + INTRA:         -13.078
REMARK INTER:                 -11.790
REMARK INTRA:                  -1.288
REMARK UNBOUND:                -1.267
REMARK  Name = 
REMARK  10 active torsions:
REMARK  status: ('A' for Active; 'I' for Inactive)
REMARK    1  A    between atoms: C_1  and  C_2
REMARK    2  A    between atoms: C_2  and  C_3
REMARK    3  A    between atoms: C_3  and  C_4
REMARK    4  A    between atoms: C_4  and  N_5
REMARK    5  A    between atoms: C_4  and  C_13
REMARK    6  A    between atoms: N_5  and  C_6
REMARK    7  A    between atoms: C_6  and  C_7
REMARK    8  A    between atoms: C_16  and  C_17
REMARK    9  A    between atoms: C_17  and  N_18
REMARK   10  A    between atoms: C_19  and  C_21
REMARK                            x       y       z     vdW  Elec       q    Type
REMARK                         _______ _______ _______ _____ _____    ______ ____
ROOT
ATOM      1  C   UNL     1      46.138   5.755  11.983  0.00  0.00    +0.000 A 
ATOM      2  C   UNL     1      46.563   7.066  11.760  0.00  0.00    +0.000 A 
ATOM      3  C   UNL     1      47.343   7.710  12.716  0.00  0.00    +0.000 A 
ATOM      4  C   UNL     1      47.736   7.026  13.863  0.00  0.00    +0.000 A 
ATOM      5  C   UNL     1      47.285   5.721  14.007  0.00  0.00    +0.000 A 
ATOM      6  N   UNL     1      46.497   5.082  13.109  0.00  0.00    +0.000 NA
ENDROOT
BRANCH   1   7
ATOM      7  C   UNL     1      45.281   4.981  10.957  0.00  0.00    +0.000 C 
BRANCH   7   8
ATOM      8  N   UNL     1      45.732   5.185   9.547  0.00  0.00    +0.000 NA
ATOM      9  H   UNL     1      46.717   4.932   9.482  0.00  0.00    +0.000 HD
BRANCH   8  10
ATOM     10  C   UNL     1      44.965   4.307   8.638  0.00  0.00    +0.000 C 
BRANCH  10  11
ATOM     11  C   UNL     1      45.714   3.135   8.053  0.00  0.00    +0.000 A 
ATOM     12  C   UNL     1      46.663   3.355   7.038  0.00  0.00    +0.000 A 
ATOM     13  C   UNL     1      47.462   2.313   6.581  0.00  0.00    +0.000 A 
ATOM     14  C   UNL     1      47.306   1.070   7.164  0.00  0.00    +0.000 A 
ATOM     15  N   UNL     1      46.401   0.809   8.134  0.00  0.00    +0.000 NA
ATOM     16  C   UNL     1      45.635   1.846   8.562  0.00  0.00    +0.000 A 
ENDBRANCH  10  11
ENDBRANCH   8  10
ENDBRANCH   7   8
BRANCH   7  17
ATOM     17  C   UNL     1      43.782   5.326  11.161  0.00  0.00    +0.000 C 
BRANCH  17  19
ATOM     18  C   UNL     1      43.725   3.017  12.109  0.00  0.00    +0.000 C 
ATOM     19  C   UNL     1      42.876   4.222  11.706  0.00  0.00    +0.000 C 
ENDBRANCH  17  19
ENDBRANCH   7  17
ENDBRANCH   1   7
BRANCH   4  20
ATOM     20  C   UNL     1      48.547   7.690  14.932  0.00  0.00    +0.000 C 
BRANCH  20  21
ATOM     21  N   UNL     1      49.528   6.779  15.462  0.00  0.00    +0.000 N 
ATOM     22  C   UNL     1      49.433   6.292  16.739  0.00  0.00    +0.000 C 
ATOM     23  O   UNL     1      48.482   6.565  17.467  0.00  0.00    +0.000 OA
ATOM     24  H   UNL     1      50.409   6.700  14.964  0.00  0.00    +0.000 HD
BRANCH  22  25
ATOM     25  C   UNL     1      50.499   5.381  17.174  0.00  0.00    +0.000 A 
ATOM     26  C   UNL     1      51.698   5.904  17.637  0.00  0.00    +0.000 A 
ATOM     27  S   UNL     1      52.816   4.717  18.136  0.00  0.00    +0.000 S 
ATOM     28  C   UNL     1      51.755   3.458  17.706  0.00  0.00    +0.000 A 
ATOM     29  N   UNL     1      52.119   2.156  17.853  0.00  0.00    +0.000 NA
ATOM     30  C   UNL     1      51.231   1.305  17.458  0.00  0.00    +0.000 A 
ATOM     31  N   UNL     1      50.008   1.639  16.938  0.00  0.00    +0.000 N 
ATOM     32  C   UNL     1      49.588   2.939  16.795  0.00  0.00    +0.000 A 
ATOM     33  O   UNL     1      48.469   3.205  16.367  0.00  0.00    +0.000 OA
ATOM     34  C   UNL     1      50.555   3.937  17.210  0.00  0.00    +0.000 A 
ATOM     35  H   UNL     1      49.356   0.922  16.651  0.00  0.00    +0.000 HD
ENDBRANCH  22  25
ENDBRANCH  20  21
ENDBRANCH   4  20
TORSDOF 9
ENDMDL
MODEL 4
REMARK VINA RESULT:    -7.705      1.528      2.191
REMARK INTER + INTRA:         -13.026
REMARK INTER:                 -11.642
REMARK INTRA:                  -1.384
REMARK UNBOUND:                -1.267
REMARK  Name = 
REMARK  10 active torsions:
REMARK  status: ('A' for Active; 'I' for Inactive)
REMARK    1  A    between atoms: C_1  and  C_2
REMARK    2  A    between atoms: C_2  and  C_3
REMARK    3  A    between atoms: C_3  and  C_4
REMARK    4  A    between atoms: C_4  and  N_5
REMARK    5  A    between atoms: C_4  and  C_13
REMARK    6  A    between atoms: N_5  and  C_6
REMARK    7  A    between atoms: C_6  and  C_7
REMARK    8  A    between atoms: C_16  and  C_17
REMARK    9  A    between atoms: C_17  and  N_18
REMARK   10  A    between atoms: C_19  and  C_21
REMARK                            x       y       z     vdW  Elec       q    Type
REMARK                         _______ _______ _______ _____ _____    ______ ____
ROOT
ATOM      1  C   UNL     1      46.127   5.762  11.701  0.00  0.00    +0.000 A 
ATOM      2  C   UNL     1      46.897   6.866  11.333  0.00  0.00    +0.000 A 
ATOM      3  C   UNL     1      47.855   7.363  12.212  0.00  0.00    +0.000 A 
ATOM      4  C   UNL     1      48.072   6.724  13.431  0.00  0.00    +0.000 A 
ATOM      5  C   UNL     1      47.276   5.624  13.719  0.00  0.00    +0.000 A 
ATOM      6  N   UNL     1      46.314   5.141  12.896  0.00  0.00    +0.000 NA
ENDROOT
BRANCH   1   7
ATOM      7  C   UNL     1      45.057   5.155  10.766  0.00  0.00    +0.000 C 
BRANCH   7   8
ATOM      8  N   UNL     1      45.401   5.292   9.318  0.00  0.00    +0.000 NA
ATOM      9  H   UNL     1      46.408   5.185   9.212  0.00  0.00    +0.000 HD
BRANCH   8  10
ATOM     10  C   UNL     1      44.735   4.230   8.536  0.00  0.00    +0.000 C 
BRANCH  10  11
ATOM     11  C   UNL     1      45.631   3.152   7.976  0.00  0.00    +0.000 A 
ATOM     12  C   UNL     1      46.603   3.488   7.016  0.00  0.00    +0.000 A 
ATOM     13  C   UNL     1      47.529   2.543   6.588  0.00  0.00    +0.000 A 
ATOM     14  C   UNL     1      47.473   1.280   7.145  0.00  0.00    +0.000 A 
ATOM     15  N   UNL     1      46.552   0.908   8.062  0.00  0.00    +0.000 NA
ATOM     16  C   UNL     1      45.661   1.852   8.462  0.00  0.00    +0.000 A 
ENDBRANCH  10  11
ENDBRANCH   8  10
ENDBRANCH   7   8
BRANCH   7  17
ATOM     17  C   UNL     1      43.665   5.749  11.108  0.00  0.00    +0.000 C 
BRANCH  17  19
ATOM     18  C   UNL     1      43.226   3.405  11.846  0.00  0.00    +0.000 C 
ATOM     19  C   UNL     1      42.646   4.817  11.763  0.00  0.00    +0.000 C 
ENDBRANCH  17  19
ENDBRANCH   7  17
ENDBRANCH   1   7
BRANCH   4  20
ATOM     20  C   UNL     1      49.068   7.244  14.420  0.00  0.00    +0.000 C 
BRANCH  20  21
ATOM     21  N   UNL     1      48.709   6.846  15.756  0.00  0.00    +0.000 N 
ATOM     22  C   UNL     1      49.610   6.232  16.586  0.00  0.00    +0.000 C 
ATOM     23  O   UNL     1      50.775   6.044  16.247  0.00  0.00    +0.000 OA
ATOM     24  H   UNL     1      47.720   6.808  15.982  0.00  0.00    +0.000 HD
BRANCH  22  25
ATOM     25  C   UNL     1      49.126   5.860  17.920  0.00  0.00    +0.000 A 
ATOM     26  C   UNL     1      49.231   4.542  18.343  0.00  0.00    +0.000 A 
ATOM     27  S   UNL     1      48.656   4.283  19.928  0.00  0.00    +0.000 S 
ATOM     28  C   UNL     1      48.201   5.915  20.088  0.00  0.00    +0.000 A 
ATOM     29  N   UNL     1      47.604   6.365  21.224  0.00  0.00    +0.000 NA
ATOM     30  C   UNL     1      47.283   7.616  21.199  0.00  0.00    +0.000 A 
ATOM     31  N   UNL     1      47.514   8.459  20.144  0.00  0.00    +0.000 N 
ATOM     32  C   UNL     1      48.136   8.056  18.988  0.00  0.00    +0.000 A 
ATOM     33  O   UNL     1      48.368   8.845  18.078  0.00  0.00    +0.000 OA
ATOM     34  C   UNL     1      48.504   6.653  18.957  0.00  0.00    +0.000 A 
ATOM     35  H   UNL     1      47.241   9.431  20.191  0.00  0.00    +0.000 HD
ENDBRANCH  22  25
ENDBRANCH  20  21
ENDBRANCH   4  20
TORSDOF 9
ENDMDL
MODEL 5
REMARK VINA RESULT:    -7.084      3.293      9.027
REMARK INTER + INTRA:         -12.078
REMARK INTER:                 -10.291
REMARK INTRA:                  -1.787
REMARK UNBOUND:                -1.267
REMARK  Name = 
REMARK  10 active torsions:
REMARK  status: ('A' for Active; 'I' for Inactive)
REMARK    1  A    between atoms: C_1  and  C_2
REMARK    2  A    between atoms: C_2  and  C_3
REMARK    3  A    between atoms: C_3  and  C_4
REMARK    4  A    between atoms: C_4  and  N_5
REMARK    5  A    between atoms: C_4  and  C_13
REMARK    6  A    between atoms: N_5  and  C_6
REMARK    7  A    between atoms: C_6  and  C_7
REMARK    8  A    between atoms: C_16  and  C_17
REMARK    9  A    between atoms: C_17  and  N_18
REMARK   10  A    between atoms: C_19  and  C_21
REMARK                            x       y       z     vdW  Elec       q    Type
REMARK                         _______ _______ _______ _____ _____    ______ ____
ROOT
ATOM      1  C   UNL     1      48.914   8.127  16.041  0.00  0.00    +0.000 A 
ATOM      2  C   UNL     1      49.591   7.193  15.255  0.00  0.00    +0.000 A 
ATOM      3  C   UNL     1      49.257   7.052  13.910  0.00  0.00    +0.000 A 
ATOM      4  C   UNL     1      48.286   7.877  13.349  0.00  0.00    +0.000 A 
ATOM      5  C   UNL     1      47.668   8.791  14.192  0.00  0.00    +0.000 A 
ATOM      6  N   UNL     1      47.950   8.925  15.510  0.00  0.00    +0.000 NA
ENDROOT
BRANCH   1   7
ATOM      7  C   UNL     1      49.245   8.340  17.534  0.00  0.00    +0.000 C 
BRANCH   7   8
ATOM      8  N   UNL     1      49.982   7.190  18.140  0.00  0.00    +0.000 NA
ATOM      9  H   UNL     1      50.654   7.554  18.814  0.00  0.00    +0.000 HD
BRANCH   8  10
ATOM     10  C   UNL     1      49.040   6.303  18.853  0.00  0.00    +0.000 C 
BRANCH  10  11
ATOM     11  C   UNL     1      48.598   5.065  18.112  0.00  0.00    +0.000 A 
ATOM     12  C   UNL     1      49.543   4.073  17.793  0.00  0.00    +0.000 A 
ATOM     13  C   UNL     1      49.139   2.865  17.236  0.00  0.00    +0.000 A 
ATOM     14  C   UNL     1      47.788   2.668  17.023  0.00  0.00    +0.000 A 
ATOM     15  N   UNL     1      46.845   3.595  17.303  0.00  0.00    +0.000 NA
ATOM     16  C   UNL     1      47.269   4.765  17.849  0.00  0.00    +0.000 A 
ENDBRANCH  10  11
ENDBRANCH   8  10
ENDBRANCH   7   8
BRANCH   7  17
ATOM     17  C   UNL     1      47.951   8.697  18.312  0.00  0.00    +0.000 C 
BRANCH  17  19
ATOM     18  C   UNL     1      46.754   9.953  20.106  0.00  0.00    +0.000 C 
ATOM     19  C   UNL     1      47.988   9.936  19.205  0.00  0.00    +0.000 C 
ENDBRANCH  17  19
ENDBRANCH   7  17
ENDBRANCH   1   7
BRANCH   4  20
ATOM     20  C   UNL     1      47.873   7.738  11.917  0.00  0.00    +0.000 C 
BRANCH  20  21
ATOM     21  N   UNL     1      47.113   6.530  11.725  0.00  0.00    +0.000 N 
ATOM     22  C   UNL     1      45.743   6.540  11.731  0.00  0.00    +0.000 C 
ATOM     23  O   UNL     1      45.105   7.584  11.845  0.00  0.00    +0.000 OA
ATOM     24  H   UNL     1      47.604   5.648  11.829  0.00  0.00    +0.000 HD
BRANCH  22  25
ATOM     25  C   UNL     1      45.076   5.247  11.539  0.00  0.00    +0.000 A 
ATOM     26  C   UNL     1      44.389   4.669  12.597  0.00  0.00    +0.000 A 
ATOM     27  S   UNL     1      43.643   3.187  12.201  0.00  0.00    +0.000 S 
ATOM     28  C   UNL     1      44.253   3.241  10.613  0.00  0.00    +0.000 A 
ATOM     29  N   UNL     1      44.004   2.234   9.735  0.00  0.00    +0.000 NA
ATOM     30  C   UNL     1      44.554   2.388   8.575  0.00  0.00    +0.000 A 
ATOM     31  N   UNL     1      45.322   3.464   8.214  0.00  0.00    +0.000 N 
ATOM     32  C   UNL     1      45.579   4.515   9.059  0.00  0.00    +0.000 A 
ATOM     33  O   UNL     1      46.234   5.486   8.691  0.00  0.00    +0.000 OA
ATOM     34  C   UNL     1      44.997   4.385  10.381  0.00  0.00    +0.000 A 
ATOM     35  H   UNL     1      45.720   3.525   7.287  0.00  0.00    +0.000 HD
ENDBRANCH  22  25
ENDBRANCH  20  21
ENDBRANCH   4  20
TORSDOF 9
ENDMDL
MODEL 6
REMARK VINA RESULT:    -7.083      2.557      3.298
REMARK INTER + INTRA:         -12.077
REMARK INTER:                 -10.691
REMARK INTRA:                  -1.386
REMARK UNBOUND:                -1.267
REMARK  Name = 
REMARK  10 active torsions:
REMARK  status: ('A' for Active; 'I' for Inactive)
REMARK    1  A    between atoms: C_1  and  C_2
REMARK    2  A    between atoms: C_2  and  C_3
REMARK    3  A    between atoms: C_3  and  C_4
REMARK    4  A    between atoms: C_4  and  N_5
REMARK    5  A    between atoms: C_4  and  C_13
REMARK    6  A    between atoms: N_5  and  C_6
REMARK    7  A    between atoms: C_6  and  C_7
REMARK    8  A    between atoms: C_16  and  C_17
REMARK    9  A    between atoms: C_17  and  N_18
REMARK   10  A    between atoms: C_19  and  C_21
REMARK                            x       y       z     vdW  Elec       q    Type
REMARK                         _______ _______ _______ _____ _____    ______ ____
ROOT
ATOM      1  C   UNL     1      46.024   5.183  11.741  0.00  0.00    +0.000 A 
ATOM      2  C   UNL     1      46.394   6.483  11.395  0.00  0.00    +0.000 A 
ATOM      3  C   UNL     1      47.103   7.263  12.305  0.00  0.00    +0.000 A 
ATOM      4  C   UNL     1      47.480   6.723  13.531  0.00  0.00    +0.000 A 
ATOM      5  C   UNL     1      47.087   5.419  13.796  0.00  0.00    +0.000 A 
ATOM      6  N   UNL     1      46.368   4.650  12.943  0.00  0.00    +0.000 NA
ENDROOT
BRANCH   1   7
ATOM      7  C   UNL     1      45.248   4.263  10.772  0.00  0.00    +0.000 C 
BRANCH   7   8
ATOM      8  N   UNL     1      45.001   4.892   9.440  0.00  0.00    +0.000 NA
ATOM      9  H   UNL     1      45.884   5.254   9.083  0.00  0.00    +0.000 HD
BRANCH   8  10
ATOM     10  C   UNL     1      44.493   3.882   8.488  0.00  0.00    +0.000 C 
BRANCH  10  11
ATOM     11  C   UNL     1      45.514   2.927   7.919  0.00  0.00    +0.000 A 
ATOM     12  C   UNL     1      46.452   3.394   6.980  0.00  0.00    +0.000 A 
ATOM     13  C   UNL     1      47.486   2.572   6.547  0.00  0.00    +0.000 A 
ATOM     14  C   UNL     1      47.570   1.299   7.077  0.00  0.00    +0.000 A 
ATOM     15  N   UNL     1      46.687   0.804   7.973  0.00  0.00    +0.000 NA
ATOM     16  C   UNL     1      45.688   1.630   8.380  0.00  0.00    +0.000 A 
ENDBRANCH  10  11
ENDBRANCH   8  10
ENDBRANCH   7   8
BRANCH   7  17
ATOM     17  C   UNL     1      43.943   3.770  11.451  0.00  0.00    +0.000 C 
BRANCH  17  19
ATOM     18  C   UNL     1      42.801   5.307  13.054  0.00  0.00    +0.000 C 
ATOM     19  C   UNL     1      42.812   4.785  11.618  0.00  0.00    +0.000 C 
ENDBRANCH  17  19
ENDBRANCH   7  17
ENDBRANCH   1   7
BRANCH   4  20
ATOM     20  C   UNL     1      48.215   7.536  14.552  0.00  0.00    +0.000 C 
BRANCH  20  21
ATOM     21  N   UNL     1      49.248   6.751  15.176  0.00  0.00    +0.000 N 
ATOM     22  C   UNL     1      49.387   6.707  16.539  0.00  0.00    +0.000 C 
ATOM     23  O   UNL     1      48.605   7.289  17.287  0.00  0.00    +0.000 OA
ATOM     24  H   UNL     1      50.012   6.433  14.589  0.00  0.00    +0.000 HD
BRANCH  22  25
ATOM     25  C   UNL     1      50.484   5.884  17.060  0.00  0.00    +0.000 A 
ATOM     26  C   UNL     1      50.205   4.862  17.957  0.00  0.00    +0.000 A 
ATOM     27  S   UNL     1      51.583   3.980  18.439  0.00  0.00    +0.000 S 
ATOM     28  C   UNL     1      52.609   4.964  17.504  0.00  0.00    +0.000 A 
ATOM     29  N   UNL     1      53.953   4.760  17.494  0.00  0.00    +0.000 NA
ATOM     30  C   UNL     1      54.615   5.599  16.767  0.00  0.00    +0.000 A 
ATOM     31  N   UNL     1      54.051   6.616  16.041  0.00  0.00    +0.000 N 
ATOM     32  C   UNL     1      52.697   6.843  16.001  0.00  0.00    +0.000 A 
ATOM     33  O   UNL     1      52.219   7.735  15.307  0.00  0.00    +0.000 OA
ATOM     34  C   UNL     1      51.907   5.938  16.814  0.00  0.00    +0.000 A 
ATOM     35  H   UNL     1      54.627   7.235  15.488  0.00  0.00    +0.000 HD
ENDBRANCH  22  25
ENDBRANCH  20  21
ENDBRANCH   4  20
TORSDOF 9
ENDMDL
MODEL 7
REMARK VINA RESULT:    -6.860      3.444      8.633
REMARK INTER + INTRA:         -11.737
REMARK INTER:                 -10.204
REMARK INTRA:                  -1.534
REMARK UNBOUND:                -1.267
REMARK  Name = 
REMARK  10 active torsions:
REMARK  status: ('A' for Active; 'I' for Inactive)
REMARK    1  A    between atoms: C_1  and  C_2
REMARK    2  A    between atoms: C_2  and  C_3
REMARK    3  A    between atoms: C_3  and  C_4
REMARK    4  A    between atoms: C_4  and  N_5
REMARK    5  A    between atoms: C_4  and  C_13
REMARK    6  A    between atoms: N_5  and  C_6
REMARK    7  A    between atoms: C_6  and  C_7
REMARK    8  A    between atoms: C_16  and  C_17
REMARK    9  A    between atoms: C_17  and  N_18
REMARK   10  A    between atoms: C_19  and  C_21
REMARK                            x       y       z     vdW  Elec       q    Type
REMARK                         _______ _______ _______ _____ _____    ______ ____
ROOT
ATOM      1  C   UNL     1      48.632   7.468  16.327  0.00  0.00    +0.000 A 
ATOM      2  C   UNL     1      48.356   8.735  15.811  0.00  0.00    +0.000 A 
ATOM      3  C   UNL     1      48.272   8.915  14.433  0.00  0.00    +0.000 A 
ATOM      4  C   UNL     1      48.414   7.821  13.584  0.00  0.00    +0.000 A 
ATOM      5  C   UNL     1      48.672   6.591  14.173  0.00  0.00    +0.000 A 
ATOM      6  N   UNL     1      48.793   6.395  15.508  0.00  0.00    +0.000 NA
ENDROOT
BRANCH   1   7
ATOM      7  C   UNL     1      48.727   7.200  17.846  0.00  0.00    +0.000 C 
BRANCH   7   8
ATOM      8  N   UNL     1      47.723   6.204  18.327  0.00  0.00    +0.000 NA
ATOM      9  H   UNL     1      47.251   5.802  17.519  0.00  0.00    +0.000 HD
BRANCH   8  10
ATOM     10  C   UNL     1      48.400   5.114  19.060  0.00  0.00    +0.000 C 
BRANCH  10  11
ATOM     11  C   UNL     1      49.169   4.122  18.221  0.00  0.00    +0.000 A 
ATOM     12  C   UNL     1      50.564   4.021  18.370  0.00  0.00    +0.000 A 
ATOM     13  C   UNL     1      51.274   3.023  17.712  0.00  0.00    +0.000 A 
ATOM     14  C   UNL     1      50.567   2.133  16.926  0.00  0.00    +0.000 A 
ATOM     15  N   UNL     1      49.229   2.197  16.744  0.00  0.00    +0.000 NA
ATOM     16  C   UNL     1      48.561   3.181  17.401  0.00  0.00    +0.000 A 
ENDBRANCH  10  11
ENDBRANCH   8  10
ENDBRANCH   7   8
BRANCH   7  17
ATOM     17  C   UNL     1      48.654   8.543  18.619  0.00  0.00    +0.000 C 
BRANCH  17  19
ATOM     18  C   UNL     1      47.623   8.746  20.885  0.00  0.00    +0.000 C 
ATOM     19  C   UNL     1      47.363   8.844  19.381  0.00  0.00    +0.000 C 
ENDBRANCH  17  19
ENDBRANCH   7  17
ENDBRANCH   1   7
BRANCH   4  20
ATOM     20  C   UNL     1      48.363   7.974  12.095  0.00  0.00    +0.000 C 
BRANCH  20  21
ATOM     21  N   UNL     1      47.636   6.884  11.499  0.00  0.00    +0.000 N 
ATOM     22  C   UNL     1      46.268   6.897  11.418  0.00  0.00    +0.000 C 
ATOM     23  O   UNL     1      45.607   7.859  11.800  0.00  0.00    +0.000 OA
ATOM     24  H   UNL     1      48.133   6.010  11.364  0.00  0.00    +0.000 HD
BRANCH  22  25
ATOM     25  C   UNL     1      45.637   5.725  10.802  0.00  0.00    +0.000 A 
ATOM     26  C   UNL     1      45.763   5.520   9.435  0.00  0.00    +0.000 A 
ATOM     27  S   UNL     1      45.002   4.097   8.882  0.00  0.00    +0.000 S 
ATOM     28  C   UNL     1      44.434   3.728  10.443  0.00  0.00    +0.000 A 
ATOM     29  N   UNL     1      43.668   2.627  10.666  0.00  0.00    +0.000 NA
ATOM     30  C   UNL     1      43.279   2.486  11.890  0.00  0.00    +0.000 A 
ATOM     31  N   UNL     1      43.596   3.341  12.912  0.00  0.00    +0.000 N 
ATOM     32  C   UNL     1      44.387   4.451  12.739  0.00  0.00    +0.000 A 
ATOM     33  O   UNL     1      44.689   5.173  13.684  0.00  0.00    +0.000 OA
ATOM     34  C   UNL     1      44.839   4.666  11.378  0.00  0.00    +0.000 A 
ATOM     35  H   UNL     1      43.262   3.169  13.851  0.00  0.00    +0.000 HD
ENDBRANCH  22  25
ENDBRANCH  20  21
ENDBRANCH   4  20
TORSDOF 9
ENDMDL
MODEL 8
REMARK VINA RESULT:    -6.762      2.162      2.811
REMARK INTER + INTRA:         -11.588
REMARK INTER:                 -10.684
REMARK INTRA:                  -0.904
REMARK UNBOUND:                -1.267
REMARK  Name = 
REMARK  10 active torsions:
REMARK  status: ('A' for Active; 'I' for Inactive)
REMARK    1  A    between atoms: C_1  and  C_2
REMARK    2  A    between atoms: C_2  and  C_3
REMARK    3  A    between atoms: C_3  and  C_4
REMARK    4  A    between atoms: C_4  and  N_5
REMARK    5  A    between atoms: C_4  and  C_13
REMARK    6  A    between atoms: N_5  and  C_6
REMARK    7  A    between atoms: C_6  and  C_7
REMARK    8  A    between atoms: C_16  and  C_17
REMARK    9  A    between atoms: C_17  and  N_18
REMARK   10  A    between atoms: C_19  and  C_21
REMARK                            x       y       z     vdW  Elec       q    Type
REMARK                         _______ _______ _______ _____ _____    ______ ____
ROOT
ATOM      1  C   UNL     1      45.527   4.156  12.559  0.00  0.00    +0.000 A 
ATOM      2  C   UNL     1      45.751   5.502  12.854  0.00  0.00    +0.000 A 
ATOM      3  C   UNL     1      46.623   5.847  13.883  0.00  0.00    +0.000 A 
ATOM      4  C   UNL     1      47.303   4.848  14.576  0.00  0.00    +0.000 A 
ATOM      5  C   UNL     1      47.037   3.535  14.216  0.00  0.00    +0.000 A 
ATOM      6  N   UNL     1      46.169   3.171  13.242  0.00  0.00    +0.000 NA
ENDROOT
BRANCH   1   7
ATOM      7  C   UNL     1      44.582   3.709  11.422  0.00  0.00    +0.000 C 
BRANCH   7   8
ATOM      8  N   UNL     1      45.076   2.503  10.691  0.00  0.00    +0.000 NA
ATOM      9  H   UNL     1      44.716   1.671  11.156  0.00  0.00    +0.000 HD
BRANCH   8  10
ATOM     10  C   UNL     1      44.577   2.513   9.300  0.00  0.00    +0.000 C 
BRANCH  10  11
ATOM     11  C   UNL     1      45.617   2.366   8.216  0.00  0.00    +0.000 A 
ATOM     12  C   UNL     1      45.954   3.477   7.423  0.00  0.00    +0.000 A 
ATOM     13  C   UNL     1      47.004   3.404   6.515  0.00  0.00    +0.000 A 
ATOM     14  C   UNL     1      47.708   2.219   6.429  0.00  0.00    +0.000 A 
ATOM     15  N   UNL     1      47.414   1.122   7.162  0.00  0.00    +0.000 NA
ATOM     16  C   UNL     1      46.385   1.223   8.043  0.00  0.00    +0.000 A 
ENDBRANCH  10  11
ENDBRANCH   8  10
ENDBRANCH   7   8
BRANCH   7  17
ATOM     17  C   UNL     1      44.297   4.905  10.477  0.00  0.00    +0.000 C 
BRANCH  17  19
ATOM     18  C   UNL     1      42.237   5.465  11.771  0.00  0.00    +0.000 C 
ATOM     19  C   UNL     1      43.439   6.044  11.026  0.00  0.00    +0.000 C 
ENDBRANCH  17  19
ENDBRANCH   7  17
ENDBRANCH   1   7
BRANCH   4  20
ATOM     20  C   UNL     1      48.224   5.172  15.711  0.00  0.00    +0.000 C 
BRANCH  20  21
ATOM     21  N   UNL     1      48.107   6.559  16.078  0.00  0.00    +0.000 N 
ATOM     22  C   UNL     1      49.209   7.365  16.187  0.00  0.00    +0.000 C 
ATOM     23  O   UNL     1      50.337   6.956  15.924  0.00  0.00    +0.000 OA
ATOM     24  H   UNL     1      47.228   6.861  16.488  0.00  0.00    +0.000 HD
BRANCH  22  25
ATOM     25  C   UNL     1      48.967   8.758  16.581  0.00  0.00    +0.000 A 
ATOM     26  C   UNL     1      49.514   9.787  15.826  0.00  0.00    +0.000 A 
ATOM     27  S   UNL     1      49.111  11.343  16.395  0.00  0.00    +0.000 S 
ATOM     28  C   UNL     1      48.231  10.698  17.701  0.00  0.00    +0.000 A 
ATOM     29  N   UNL     1      47.639  11.513  18.614  0.00  0.00    +0.000 NA
ATOM     30  C   UNL     1      47.031  10.891  19.570  0.00  0.00    +0.000 A 
ATOM     31  N   UNL     1      46.955   9.528  19.688  0.00  0.00    +0.000 N 
ATOM     32  C   UNL     1      47.516   8.666  18.777  0.00  0.00    +0.000 A 
ATOM     33  O   UNL     1      47.393   7.451  18.887  0.00  0.00    +0.000 OA
ATOM     34  C   UNL     1      48.225   9.314  17.690  0.00  0.00    +0.000 A 
ATOM     35  H   UNL     1      46.459   9.104  20.460  0.00  0.00    +0.000 HD
ENDBRANCH  22  25
ENDBRANCH  20  21
ENDBRANCH   4  20
TORSDOF 9
ENDMDL
MODEL 9
REMARK VINA RESULT:    -6.726      3.494      8.661
REMARK INTER + INTRA:         -11.533
REMARK INTER:                  -9.973
REMARK INTRA:                  -1.560
REMARK UNBOUND:                -1.267
REMARK  Name = 
REMARK  10 active torsions:
REMARK  status: ('A' for Active; 'I' for Inactive)
REMARK    1  A    between atoms: C_1  and  C_2
REMARK    2  A    between atoms: C_2  and  C_3
REMARK    3  A    between atoms: C_3  and  C_4
REMARK    4  A    between atoms: C_4  and  N_5
REMARK    5  A    between atoms: C_4  and  C_13
REMARK    6  A    between atoms: N_5  and  C_6
REMARK    7  A    between atoms: C_6  and  C_7
REMARK    8  A    between atoms: C_16  and  C_17
REMARK    9  A    between atoms: C_17  and  N_18
REMARK   10  A    between atoms: C_19  and  C_21
REMARK                            x       y       z     vdW  Elec       q    Type
REMARK                         _______ _______ _______ _____ _____    ______ ____
ROOT
ATOM      1  C   UNL     1      48.841   7.715  16.091  0.00  0.00    +0.000 A 
ATOM      2  C   UNL     1      48.377   8.929  15.580  0.00  0.00    +0.000 A 
ATOM      3  C   UNL     1      48.233   9.087  14.204  0.00  0.00    +0.000 A 
ATOM      4  C   UNL     1      48.506   8.020  13.353  0.00  0.00    +0.000 A 
ATOM      5  C   UNL     1      48.950   6.842  13.938  0.00  0.00    +0.000 A 
ATOM      6  N   UNL     1      49.130   6.671  15.270  0.00  0.00    +0.000 NA
ENDROOT
BRANCH   1   7
ATOM      7  C   UNL     1      49.010   7.472  17.607  0.00  0.00    +0.000 C 
BRANCH   7   8
ATOM      8  N   UNL     1      47.714   7.228  18.308  0.00  0.00    +0.000 NA
ATOM      9  H   UNL     1      46.963   7.251  17.620  0.00  0.00    +0.000 HD
BRANCH   8  10
ATOM     10  C   UNL     1      47.723   5.893  18.943  0.00  0.00    +0.000 C 
BRANCH  10  11
ATOM     11  C   UNL     1      48.061   4.729  18.044  0.00  0.00    +0.000 A 
ATOM     12  C   UNL     1      49.214   3.966  18.302  0.00  0.00    +0.000 A 
ATOM     13  C   UNL     1      49.473   2.810  17.576  0.00  0.00    +0.000 A 
ATOM     14  C   UNL     1      48.559   2.430  16.611  0.00  0.00    +0.000 A 
ATOM     15  N   UNL     1      47.444   3.136  16.321  0.00  0.00    +0.000 NA
ATOM     16  C   UNL     1      47.216   4.261  17.048  0.00  0.00    +0.000 A 
ENDBRANCH  10  11
ENDBRANCH   8  10
ENDBRANCH   7   8
BRANCH   7  17
ATOM     17  C   UNL     1      49.821   8.635  18.237  0.00  0.00    +0.000 C 
BRANCH  17  19
ATOM     18  C   UNL     1      51.929   9.921  18.607  0.00  0.00    +0.000 C 
ATOM     19  C   UNL     1      51.314   8.703  17.917  0.00  0.00    +0.000 C 
ENDBRANCH  17  19
ENDBRANCH   7  17
ENDBRANCH   1   7
BRANCH   4  20
ATOM     20  C   UNL     1      48.397   8.157  11.866  0.00  0.00    +0.000 C 
BRANCH  20  21
ATOM     21  N   UNL     1      47.681   7.040  11.307  0.00  0.00    +0.000 N 
ATOM     22  C   UNL     1      46.315   6.959  11.378  0.00  0.00    +0.000 C 
ATOM     23  O   UNL     1      45.639   7.859  11.871  0.00  0.00    +0.000 OA
ATOM     24  H   UNL     1      48.216   6.208  11.080  0.00  0.00    +0.000 HD
BRANCH  22  25
ATOM     25  C   UNL     1      45.696   5.769  10.784  0.00  0.00    +0.000 A 
ATOM     26  C   UNL     1      45.839   5.530   9.425  0.00  0.00    +0.000 A 
ATOM     27  S   UNL     1      45.092   4.089   8.900  0.00  0.00    +0.000 S 
ATOM     28  C   UNL     1      44.508   3.758  10.463  0.00  0.00    +0.000 A 
ATOM     29  N   UNL     1      43.745   2.658  10.705  0.00  0.00    +0.000 NA
ATOM     30  C   UNL     1      43.343   2.546  11.928  0.00  0.00    +0.000 A 
ATOM     31  N   UNL     1      43.644   3.429  12.932  0.00  0.00    +0.000 N 
ATOM     32  C   UNL     1      44.431   4.538  12.740  0.00  0.00    +0.000 A 
ATOM     33  O   UNL     1      44.719   5.286  13.669  0.00  0.00    +0.000 OA
ATOM     34  C   UNL     1      44.897   4.720  11.378  0.00  0.00    +0.000 A 
ATOM     35  H   UNL     1      43.300   3.279  13.870  0.00  0.00    +0.000 HD
ENDBRANCH  22  25
ENDBRANCH  20  21
ENDBRANCH   4  20
TORSDOF 9
ENDMDL
