MODEL 1
REMARK VINA RESULT:    -8.418      0.000      0.000
REMARK INTER + INTRA:         -12.484
REMARK INTER:                 -11.371
REMARK INTRA:                  -1.113
REMARK UNBOUND:                -1.113
REMARK  Name = 
REMARK  7 active torsions:
REMARK  status: ('A' for Active; 'I' for Inactive)
REMARK    1  A    between atoms: C_1  and  C_2
REMARK    2  A    between atoms: C_2  and  C_3
REMARK    3  A    between atoms: C_2  and  C_13
REMARK    4  A    between atoms: C_3  and  C_4
REMARK    5  A    between atoms: C_7  and  C_8
REMARK    6  A    between atoms: C_17  and  O_18
REMARK    7  A    between atoms: O_18  and  C_19
REMARK                            x       y       z     vdW  Elec       q    Type
REMARK                         _______ _______ _______ _____ _____    ______ ____
ROOT
ATOM      1  C   UNL     1      42.481   5.776  11.697  0.00  0.00    +0.000 C 
ATOM      2  C   UNL     1      43.797   5.253  11.094  0.00  0.00    +0.000 C 
ENDROOT
BRANCH   2   3
ATOM      3  C   UNL     1      45.018   5.451  11.997  0.00  0.00    +0.000 A 
ATOM      4  C   UNL     1      46.025   6.353  11.619  0.00  0.00    +0.000 A 
ATOM      5  C   UNL     1      47.234   6.418  12.306  0.00  0.00    +0.000 A 
ATOM      6  C   UNL     1      47.421   5.659  13.454  0.00  0.00    +0.000 A 
ATOM      7  C   UNL     1      46.374   4.890  13.957  0.00  0.00    +0.000 A 
ATOM      8  C   UNL     1      45.192   4.763  13.216  0.00  0.00    +0.000 A 
BRANCH   7   9
ATOM      9  O   UNL     1      46.440   4.206  15.148  0.00  0.00    +0.000 OA
BRANCH   9  10
ATOM     10  C   UNL     1      47.744   4.204  15.756  0.00  0.00    +0.000 C 
ATOM     11  C   UNL     1      48.092   2.828  16.279  0.00  0.00    +0.000 C 
ATOM     12  C   UNL     1      47.565   2.839  17.697  0.00  0.00    +0.000 C 
ATOM     13  O   UNL     1      47.596   4.192  18.156  0.00  0.00    +0.000 OA
ATOM     14  C   UNL     1      47.738   5.057  17.020  0.00  0.00    +0.000 C 
ENDBRANCH   9  10
ENDBRANCH   7   9
ENDBRANCH   2   3
BRANCH   2  15
ATOM     15  C   UNL     1      43.607   3.784  10.574  0.00  0.00    +0.000 C 
BRANCH  15  16
ATOM     16  C   UNL     1      44.558   3.308   9.490  0.00  0.00    +0.000 A 
ATOM     17  C   UNL     1      44.853   1.950   9.341  0.00  0.00    +0.000 A 
ATOM     18  C   UNL     1      45.808   1.523   8.418  0.00  0.00    +0.000 A 
ATOM     19  C   UNL     1      46.448   2.442   7.586  0.00  0.00    +0.000 A 
ATOM     20  C   UNL     1      46.134   3.801   7.687  0.00  0.00    +0.000 A 
ATOM     21  C   UNL     1      45.190   4.226   8.632  0.00  0.00    +0.000 A 
BRANCH  19  22
ATOM     22  C   UNL     1      47.472   1.926   6.641  0.00  0.00    +0.000 C 
ATOM     23  N   UNL     1      48.609   2.671   6.477  0.00  0.00    +0.000 N 
ATOM     24  O   UNL     1      47.299   0.905   5.988  0.00  0.00    +0.000 OA
ATOM     25  H   UNL     1      48.669   3.631   6.778  0.00  0.00    +0.000 HD
ATOM     26  H   UNL     1      49.222   2.372   5.727  0.00  0.00    +0.000 HD
ENDBRANCH  19  22
ENDBRANCH  15  16
ENDBRANCH   2  15
TORSDOF 6
ENDMDL
MODEL 2
REMARK VINA RESULT:    -7.858      2.186      3.368
REMARK INTER + INTRA:         -11.727
REMARK INTER:                 -10.541
REMARK INTRA:                  -1.186
REMARK UNBOUND:                -1.113
REMARK  Name = 
REMARK  7 active torsions:
REMARK  status: ('A' for Active; 'I' for Inactive)
REMARK    1  A    between atoms: C_1  and  C_2
REMARK    2  A    between atoms: C_2  and  C_3
REMARK    3  A    between atoms: C_2  and  C_13
REMARK    4  A    between atoms: C_3  and  C_4
REMARK    5  A    between atoms: C_7  and  C_8
REMARK    6  A    between atoms: C_17  and  O_18
REMARK    7  A    between atoms: O_18  and  C_19
REMARK                            x       y       z     vdW  Elec       q    Type
REMARK                         _______ _______ _______ _____ _____    ______ ____
ROOT
ATOM      1  C   UNL     1      42.726   5.686  11.546  0.00  0.00    +0.000 C 
ATOM      2  C   UNL     1      44.016   5.101  10.945  0.00  0.00    +0.000 C 
ENDROOT
BRANCH   2   3
ATOM      3  C   UNL     1      45.215   5.128  11.897  0.00  0.00    +0.000 A 
ATOM      4  C   UNL     1      45.532   3.988  12.653  0.00  0.00    +0.000 A 
ATOM      5  C   UNL     1      46.485   4.032  13.665  0.00  0.00    +0.000 A 
ATOM      6  C   UNL     1      47.223   5.191  13.873  0.00  0.00    +0.000 A 
ATOM      7  C   UNL     1      47.060   6.281  13.021  0.00  0.00    +0.000 A 
ATOM      8  C   UNL     1      46.041   6.260  12.060  0.00  0.00    +0.000 A 
BRANCH   7   9
ATOM      9  O   UNL     1      47.833   7.416  13.086  0.00  0.00    +0.000 OA
BRANCH   9  10
ATOM     10  C   UNL     1      49.224   7.201  12.788  0.00  0.00    +0.000 C 
ATOM     11  C   UNL     1      50.101   7.743  13.895  0.00  0.00    +0.000 C 
ATOM     12  C   UNL     1      50.360   9.174  13.479  0.00  0.00    +0.000 C 
ATOM     13  O   UNL     1      50.291   9.226  12.053  0.00  0.00    +0.000 OA
ATOM     14  C   UNL     1      49.641   8.036  11.582  0.00  0.00    +0.000 C 
ENDBRANCH   9  10
ENDBRANCH   7   9
ENDBRANCH   2   3
BRANCH   2  15
ATOM     15  C   UNL     1      43.727   3.697  10.306  0.00  0.00    +0.000 C 
BRANCH  15  16
ATOM     16  C   UNL     1      44.689   3.215   9.234  0.00  0.00    +0.000 A 
ATOM     17  C   UNL     1      45.072   1.873   9.165  0.00  0.00    +0.000 A 
ATOM     18  C   UNL     1      46.037   1.451   8.250  0.00  0.00    +0.000 A 
ATOM     19  C   UNL     1      46.598   2.355   7.347  0.00  0.00    +0.000 A 
ATOM     20  C   UNL     1      46.194   3.694   7.369  0.00  0.00    +0.000 A 
ATOM     21  C   UNL     1      45.241   4.116   8.306  0.00  0.00    +0.000 A 
BRANCH  19  22
ATOM     22  C   UNL     1      47.637   1.848   6.414  0.00  0.00    +0.000 C 
ATOM     23  N   UNL     1      48.787   2.582   6.293  0.00  0.00    +0.000 N 
ATOM     24  O   UNL     1      47.467   0.845   5.734  0.00  0.00    +0.000 OA
ATOM     25  H   UNL     1      48.851   3.534   6.618  0.00  0.00    +0.000 HD
ATOM     26  H   UNL     1      49.413   2.293   5.551  0.00  0.00    +0.000 HD
ENDBRANCH  19  22
ENDBRANCH  15  16
ENDBRANCH   2  15
TORSDOF 6
ENDMDL
MODEL 3
REMARK VINA RESULT:    -7.534      1.629      2.369
REMARK INTER + INTRA:         -11.290
REMARK INTER:                 -10.301
REMARK INTRA:                  -0.988
REMARK UNBOUND:                -1.113
REMARK  Name = 
REMARK  7 active torsions:
REMARK  status: ('A' for Active; 'I' for Inactive)
REMARK    1  A    between atoms: C_1  and  C_2
REMARK    2  A    between atoms: C_2  and  C_3
REMARK    3  A    between atoms: C_2  and  C_13
REMARK    4  A    between atoms: C_3  and  C_4
REMARK    5  A    between atoms: C_7  and  C_8
REMARK    6  A    between atoms: C_17  and  O_18
REMARK    7  A    between atoms: O_18  and  C_19
REMARK                            x       y       z     vdW  Elec       q    Type
REMARK                         _______ _______ _______ _____ _____    ______ ____
ROOT
ATOM      1  C   UNL     1      44.409   3.256  12.441  0.00  0.00    +0.000 C 
ATOM      2  C   UNL     1      44.115   4.630  11.813  0.00  0.00    +0.000 C 
ENDROOT
BRANCH   2   3
ATOM      3  C   UNL     1      45.182   5.689  12.103  0.00  0.00    +0.000 A 
ATOM      4  C   UNL     1      45.039   6.984  11.581  0.00  0.00    +0.000 A 
ATOM      5  C   UNL     1      46.072   7.913  11.656  0.00  0.00    +0.000 A 
ATOM      6  C   UNL     1      47.234   7.604  12.351  0.00  0.00    +0.000 A 
ATOM      7  C   UNL     1      47.334   6.394  13.034  0.00  0.00    +0.000 A 
ATOM      8  C   UNL     1      46.328   5.431  12.884  0.00  0.00    +0.000 A 
BRANCH   7   9
ATOM      9  O   UNL     1      48.399   6.064  13.840  0.00  0.00    +0.000 OA
BRANCH   9  10
ATOM     10  C   UNL     1      48.388   6.710  15.126  0.00  0.00    +0.000 C 
ATOM     11  C   UNL     1      49.588   7.618  15.280  0.00  0.00    +0.000 C 
ATOM     12  C   UNL     1      50.646   6.717  15.878  0.00  0.00    +0.000 C 
ATOM     13  O   UNL     1      49.972   5.705  16.629  0.00  0.00    +0.000 OA
ATOM     14  C   UNL     1      48.593   5.684  16.234  0.00  0.00    +0.000 C 
ENDBRANCH   9  10
ENDBRANCH   7   9
ENDBRANCH   2   3
BRANCH   2  15
ATOM     15  C   UNL     1      43.761   4.465  10.293  0.00  0.00    +0.000 C 
BRANCH  15  16
ATOM     16  C   UNL     1      44.788   3.767   9.417  0.00  0.00    +0.000 A 
ATOM     17  C   UNL     1      45.642   4.501   8.590  0.00  0.00    +0.000 A 
ATOM     18  C   UNL     1      46.509   3.857   7.707  0.00  0.00    +0.000 A 
ATOM     19  C   UNL     1      46.579   2.465   7.673  0.00  0.00    +0.000 A 
ATOM     20  C   UNL     1      45.765   1.712   8.526  0.00  0.00    +0.000 A 
ATOM     21  C   UNL     1      44.879   2.364   9.395  0.00  0.00    +0.000 A 
BRANCH  19  22
ATOM     22  C   UNL     1      47.505   1.840   6.694  0.00  0.00    +0.000 C 
ATOM     23  N   UNL     1      48.587   2.577   6.292  0.00  0.00    +0.000 N 
ATOM     24  O   UNL     1      47.297   0.733   6.216  0.00  0.00    +0.000 OA
ATOM     25  H   UNL     1      48.644   3.572   6.446  0.00  0.00    +0.000 HD
ATOM     26  H   UNL     1      49.120   2.187   5.524  0.00  0.00    +0.000 HD
ENDBRANCH  19  22
ENDBRANCH  15  16
ENDBRANCH   2  15
TORSDOF 6
ENDMDL
MODEL 4
REMARK VINA RESULT:    -7.360      3.314      5.298
REMARK INTER + INTRA:         -11.055
REMARK INTER:                  -9.924
REMARK INTRA:                  -1.130
REMARK UNBOUND:                -1.113
REMARK  Name = 
REMARK  7 active torsions:
REMARK  status: ('A' for Active; 'I' for Inactive)
REMARK    1  A    between atoms: C_1  and  C_2
REMARK    2  A    between atoms: C_2  and  C_3
REMARK    3  A    between atoms: C_2  and  C_13
REMARK    4  A    between atoms: C_3  and  C_4
REMARK    5  A    between atoms: C_7  and  C_8
REMARK    6  A    between atoms: C_17  and  O_18
REMARK    7  A    between atoms: O_18  and  C_19
REMARK                            x       y       z     vdW  Elec       q    Type
REMARK                         _______ _______ _______ _____ _____    ______ ____
ROOT
ATOM      1  C   UNL     1      45.275   3.450  12.421  0.00  0.00    +0.000 C 
ATOM      2  C   UNL     1      44.453   4.629  11.869  0.00  0.00    +0.000 C 
ENDROOT
BRANCH   2   3
ATOM      3  C   UNL     1      45.204   5.964  11.864  0.00  0.00    +0.000 A 
ATOM      4  C   UNL     1      46.608   5.974  11.839  0.00  0.00    +0.000 A 
ATOM      5  C   UNL     1      47.326   7.150  12.030  0.00  0.00    +0.000 A 
ATOM      6  C   UNL     1      46.656   8.362  12.141  0.00  0.00    +0.000 A 
ATOM      7  C   UNL     1      45.272   8.408  11.989  0.00  0.00    +0.000 A 
ATOM      8  C   UNL     1      44.550   7.213  11.883  0.00  0.00    +0.000 A 
BRANCH   7   9
ATOM      9  O   UNL     1      44.550   9.578  11.967  0.00  0.00    +0.000 OA
BRANCH   9  10
ATOM     10  C   UNL     1      44.256  10.066  10.646  0.00  0.00    +0.000 C 
ATOM     11  C   UNL     1      44.769  11.478  10.468  0.00  0.00    +0.000 C 
ATOM     12  C   UNL     1      43.608  12.340  10.912  0.00  0.00    +0.000 C 
ATOM     13  O   UNL     1      42.408  11.603  10.667  0.00  0.00    +0.000 OA
ATOM     14  C   UNL     1      42.750  10.224  10.465  0.00  0.00    +0.000 C 
ENDBRANCH   9  10
ENDBRANCH   7   9
ENDBRANCH   2   3
BRANCH   2  15
ATOM     15  C   UNL     1      43.811   4.241  10.490  0.00  0.00    +0.000 C 
BRANCH  15  16
ATOM     16  C   UNL     1      44.743   3.686   9.427  0.00  0.00    +0.000 A 
ATOM     17  C   UNL     1      44.937   2.308   9.293  0.00  0.00    +0.000 A 
ATOM     18  C   UNL     1      45.873   1.803   8.390  0.00  0.00    +0.000 A 
ATOM     19  C   UNL     1      46.595   2.664   7.564  0.00  0.00    +0.000 A 
ATOM     20  C   UNL     1      46.383   4.044   7.651  0.00  0.00    +0.000 A 
ATOM     21  C   UNL     1      45.457   4.547   8.575  0.00  0.00    +0.000 A 
BRANCH  19  22
ATOM     22  C   UNL     1      47.594   2.065   6.641  0.00  0.00    +0.000 C 
ATOM     23  N   UNL     1      48.209   2.903   5.749  0.00  0.00    +0.000 N 
ATOM     24  O   UNL     1      47.830   0.865   6.630  0.00  0.00    +0.000 OA
ATOM     25  H   UNL     1      47.851   3.823   5.544  0.00  0.00    +0.000 HD
ATOM     26  H   UNL     1      48.775   2.448   5.043  0.00  0.00    +0.000 HD
ENDBRANCH  19  22
ENDBRANCH  15  16
ENDBRANCH   2  15
TORSDOF 6
ENDMDL
MODEL 5
REMARK VINA RESULT:    -6.720      2.897      8.042
REMARK INTER + INTRA:         -10.190
REMARK INTER:                  -9.164
REMARK INTRA:                  -1.026
REMARK UNBOUND:                -1.113
REMARK  Name = 
REMARK  7 active torsions:
REMARK  status: ('A' for Active; 'I' for Inactive)
REMARK    1  A    between atoms: C_1  and  C_2
REMARK    2  A    between atoms: C_2  and  C_3
REMARK    3  A    between atoms: C_2  and  C_13
REMARK    4  A    between atoms: C_3  and  C_4
REMARK    5  A    between atoms: C_7  and  C_8
REMARK    6  A    between atoms: C_17  and  O_18
REMARK    7  A    between atoms: O_18  and  C_19
REMARK                            x       y       z     vdW  Elec       q    Type
REMARK                         _______ _______ _______ _____ _____    ______ ____
ROOT
ATOM      1  C   UNL     1      44.998   7.567  11.338  0.00  0.00    +0.000 C 
ATOM      2  C   UNL     1      45.411   6.216  11.948  0.00  0.00    +0.000 C 
ENDROOT
BRANCH   2   3
ATOM      3  C   UNL     1      44.904   5.000  11.167  0.00  0.00    +0.000 A 
ATOM      4  C   UNL     1      44.057   4.072  11.794  0.00  0.00    +0.000 A 
ATOM      5  C   UNL     1      43.734   2.862  11.189  0.00  0.00    +0.000 A 
ATOM      6  C   UNL     1      44.163   2.598   9.895  0.00  0.00    +0.000 A 
ATOM      7  C   UNL     1      44.853   3.573   9.178  0.00  0.00    +0.000 A 
ATOM      8  C   UNL     1      45.247   4.753   9.822  0.00  0.00    +0.000 A 
BRANCH   7   9
ATOM      9  O   UNL     1      45.207   3.435   7.856  0.00  0.00    +0.000 OA
BRANCH   9  10
ATOM     10  C   UNL     1      46.608   3.185   7.644  0.00  0.00    +0.000 C 
ATOM     11  C   UNL     1      47.036   3.658   6.272  0.00  0.00    +0.000 C 
ATOM     12  C   UNL     1      46.812   2.450   5.390  0.00  0.00    +0.000 C 
ATOM     13  O   UNL     1      46.955   1.287   6.208  0.00  0.00    +0.000 OA
ATOM     14  C   UNL     1      46.873   1.684   7.585  0.00  0.00    +0.000 C 
ENDBRANCH   9  10
ENDBRANCH   7   9
ENDBRANCH   2   3
BRANCH   2  15
ATOM     15  C   UNL     1      46.953   6.203  12.239  0.00  0.00    +0.000 C 
BRANCH  15  16
ATOM     16  C   UNL     1      47.389   5.781  13.632  0.00  0.00    +0.000 A 
ATOM     17  C   UNL     1      46.912   4.598  14.204  0.00  0.00    +0.000 A 
ATOM     18  C   UNL     1      47.226   4.264  15.522  0.00  0.00    +0.000 A 
ATOM     19  C   UNL     1      48.068   5.081  16.277  0.00  0.00    +0.000 A 
ATOM     20  C   UNL     1      48.592   6.246  15.707  0.00  0.00    +0.000 A 
ATOM     21  C   UNL     1      48.256   6.587  14.390  0.00  0.00    +0.000 A 
BRANCH  19  22
ATOM     22  C   UNL     1      48.344   4.683  17.681  0.00  0.00    +0.000 C 
ATOM     23  N   UNL     1      47.277   4.611  18.536  0.00  0.00    +0.000 N 
ATOM     24  O   UNL     1      49.479   4.475  18.087  0.00  0.00    +0.000 OA
ATOM     25  H   UNL     1      46.386   5.031  18.318  0.00  0.00    +0.000 HD
ATOM     26  H   UNL     1      47.509   4.477  19.513  0.00  0.00    +0.000 HD
ENDBRANCH  19  22
ENDBRANCH  15  16
ENDBRANCH   2  15
TORSDOF 6
ENDMDL
MODEL 6
REMARK VINA RESULT:    -6.629      2.865      4.423
REMARK INTER + INTRA:         -10.067
REMARK INTER:                  -8.852
REMARK INTRA:                  -1.214
REMARK UNBOUND:                -1.113
REMARK  Name = 
REMARK  7 active torsions:
REMARK  status: ('A' for Active; 'I' for Inactive)
REMARK    1  A    between atoms: C_1  and  C_2
REMARK    2  A    between atoms: C_2  and  C_3
REMARK    3  A    between atoms: C_2  and  C_13
REMARK    4  A    between atoms: C_3  and  C_4
REMARK    5  A    between atoms: C_7  and  C_8
REMARK    6  A    between atoms: C_17  and  O_18
REMARK    7  A    between atoms: O_18  and  C_19
REMARK                            x       y       z     vdW  Elec       q    Type
REMARK                         _______ _______ _______ _____ _____    ______ ____
ROOT
ATOM      1  C   UNL     1      48.282   9.444  12.028  0.00  0.00    +0.000 C 
ATOM      2  C   UNL     1      47.653   8.178  12.637  0.00  0.00    +0.000 C 
ENDROOT
BRANCH   2   3
ATOM      3  C   UNL     1      48.062   7.916  14.090  0.00  0.00    +0.000 A 
ATOM      4  C   UNL     1      48.120   8.983  15.001  0.00  0.00    +0.000 A 
ATOM      5  C   UNL     1      48.671   8.824  16.268  0.00  0.00    +0.000 A 
ATOM      6  C   UNL     1      49.077   7.566  16.694  0.00  0.00    +0.000 A 
ATOM      7  C   UNL     1      48.866   6.454  15.882  0.00  0.00    +0.000 A 
ATOM      8  C   UNL     1      48.391   6.634  14.576  0.00  0.00    +0.000 A 
BRANCH   7   9
ATOM      9  O   UNL     1      49.130   5.164  16.277  0.00  0.00    +0.000 OA
BRANCH   9  10
ATOM     10  C   UNL     1      48.590   4.819  17.566  0.00  0.00    +0.000 C 
ATOM     11  C   UNL     1      49.039   3.437  17.984  0.00  0.00    +0.000 C 
ATOM     12  C   UNL     1      47.966   2.528  17.428  0.00  0.00    +0.000 C 
ATOM     13  O   UNL     1      46.754   3.281  17.368  0.00  0.00    +0.000 OA
ATOM     14  C   UNL     1      47.075   4.675  17.482  0.00  0.00    +0.000 C 
ENDBRANCH   9  10
ENDBRANCH   7   9
ENDBRANCH   2   3
BRANCH   2  15
ATOM     15  C   UNL     1      46.104   8.170  12.389  0.00  0.00    +0.000 C 
BRANCH  15  16
ATOM     16  C   UNL     1      45.476   6.847  11.987  0.00  0.00    +0.000 A 
ATOM     17  C   UNL     1      44.673   6.133  12.881  0.00  0.00    +0.000 A 
ATOM     18  C   UNL     1      44.186   4.868  12.552  0.00  0.00    +0.000 A 
ATOM     19  C   UNL     1      44.447   4.315  11.298  0.00  0.00    +0.000 A 
ATOM     20  C   UNL     1      45.210   5.032  10.371  0.00  0.00    +0.000 A 
ATOM     21  C   UNL     1      45.716   6.293  10.717  0.00  0.00    +0.000 A 
BRANCH  19  22
ATOM     22  C   UNL     1      43.919   2.954  11.017  0.00  0.00    +0.000 C 
ATOM     23  N   UNL     1      44.519   2.241  10.014  0.00  0.00    +0.000 N 
ATOM     24  O   UNL     1      42.954   2.495  11.614  0.00  0.00    +0.000 OA
ATOM     25  H   UNL     1      45.120   2.677   9.332  0.00  0.00    +0.000 HD
ATOM     26  H   UNL     1      44.052   1.381   9.751  0.00  0.00    +0.000 HD
ENDBRANCH  19  22
ENDBRANCH  15  16
ENDBRANCH   2  15
TORSDOF 6
ENDMDL
MODEL 7
REMARK VINA RESULT:    -6.416      4.201      8.532
REMARK INTER + INTRA:          -9.779
REMARK INTER:                  -8.762
REMARK INTRA:                  -1.017
REMARK UNBOUND:                -1.113
REMARK  Name = 
REMARK  7 active torsions:
REMARK  status: ('A' for Active; 'I' for Inactive)
REMARK    1  A    between atoms: C_1  and  C_2
REMARK    2  A    between atoms: C_2  and  C_3
REMARK    3  A    between atoms: C_2  and  C_13
REMARK    4  A    between atoms: C_3  and  C_4
REMARK    5  A    between atoms: C_7  and  C_8
REMARK    6  A    between atoms: C_17  and  O_18
REMARK    7  A    between atoms: O_18  and  C_19
REMARK                            x       y       z     vdW  Elec       q    Type
REMARK                         _______ _______ _______ _____ _____    ______ ____
ROOT
ATOM      1  C   UNL     1      47.204   5.359  18.554  0.00  0.00    +0.000 C 
ATOM      2  C   UNL     1      48.185   4.699  17.569  0.00  0.00    +0.000 C 
ENDROOT
BRANCH   2   3
ATOM      3  C   UNL     1      47.914   5.037  16.100  0.00  0.00    +0.000 A 
ATOM      4  C   UNL     1      48.527   6.157  15.517  0.00  0.00    +0.000 A 
ATOM      5  C   UNL     1      48.158   6.609  14.254  0.00  0.00    +0.000 A 
ATOM      6  C   UNL     1      47.245   5.885  13.498  0.00  0.00    +0.000 A 
ATOM      7  C   UNL     1      46.755   4.671  13.974  0.00  0.00    +0.000 A 
ATOM      8  C   UNL     1      47.064   4.267  15.279  0.00  0.00    +0.000 A 
BRANCH   7   9
ATOM      9  O   UNL     1      45.943   3.840  13.238  0.00  0.00    +0.000 OA
BRANCH   9  10
ATOM     10  C   UNL     1      44.894   4.520  12.526  0.00  0.00    +0.000 C 
ATOM     11  C   UNL     1      43.544   3.927  12.864  0.00  0.00    +0.000 C 
ATOM     12  C   UNL     1      43.365   2.832  11.836  0.00  0.00    +0.000 C 
ATOM     13  O   UNL     1      44.100   3.212  10.671  0.00  0.00    +0.000 OA
ATOM     14  C   UNL     1      45.016   4.257  11.029  0.00  0.00    +0.000 C 
ENDBRANCH   9  10
ENDBRANCH   7   9
ENDBRANCH   2   3
BRANCH   2  15
ATOM     15  C   UNL     1      49.665   4.949  18.029  0.00  0.00    +0.000 C 
BRANCH  15  16
ATOM     16  C   UNL     1      50.642   3.798  17.863  0.00  0.00    +0.000 A 
ATOM     17  C   UNL     1      50.225   2.574  17.335  0.00  0.00    +0.000 A 
ATOM     18  C   UNL     1      51.094   1.484  17.283  0.00  0.00    +0.000 A 
ATOM     19  C   UNL     1      52.417   1.614  17.707  0.00  0.00    +0.000 A 
ATOM     20  C   UNL     1      52.867   2.844  18.196  0.00  0.00    +0.000 A 
ATOM     21  C   UNL     1      51.983   3.929  18.267  0.00  0.00    +0.000 A 
BRANCH  19  22
ATOM     22  C   UNL     1      53.285   0.410  17.648  0.00  0.00    +0.000 C 
ATOM     23  N   UNL     1      53.040  -0.589  18.552  0.00  0.00    +0.000 N 
ATOM     24  O   UNL     1      54.221   0.321  16.864  0.00  0.00    +0.000 OA
ATOM     25  H   UNL     1      52.473  -0.441  19.373  0.00  0.00    +0.000 HD
ATOM     26  H   UNL     1      53.731  -1.329  18.582  0.00  0.00    +0.000 HD
ENDBRANCH  19  22
ENDBRANCH  15  16
ENDBRANCH   2  15
TORSDOF 6
ENDMDL
MODEL 8
REMARK VINA RESULT:    -6.060      4.076      5.457
REMARK INTER + INTRA:          -9.299
REMARK INTER:                  -8.138
REMARK INTRA:                  -1.161
REMARK UNBOUND:                -1.113
REMARK  Name = 
REMARK  7 active torsions:
REMARK  status: ('A' for Active; 'I' for Inactive)
REMARK    1  A    between atoms: C_1  and  C_2
REMARK    2  A    between atoms: C_2  and  C_3
REMARK    3  A    between atoms: C_2  and  C_13
REMARK    4  A    between atoms: C_3  and  C_4
REMARK    5  A    between atoms: C_7  and  C_8
REMARK    6  A    between atoms: C_17  and  O_18
REMARK    7  A    between atoms: O_18  and  C_19
REMARK                            x       y       z     vdW  Elec       q    Type
REMARK                         _______ _______ _______ _____ _____    ______ ____
ROOT
ATOM      1  C   UNL     1      48.645  10.039  12.456  0.00  0.00    +0.000 C 
ATOM      2  C   UNL     1      49.117   8.614  12.796  0.00  0.00    +0.000 C 
ENDROOT
BRANCH   2   3
ATOM      3  C   UNL     1      48.915   8.225  14.263  0.00  0.00    +0.000 A 
ATOM      4  C   UNL     1      48.273   9.115  15.139  0.00  0.00    +0.000 A 
ATOM      5  C   UNL     1      48.244   8.886  16.511  0.00  0.00    +0.000 A 
ATOM      6  C   UNL     1      48.761   7.705  17.028  0.00  0.00    +0.000 A 
ATOM      7  C   UNL     1      49.242   6.721  16.168  0.00  0.00    +0.000 A 
ATOM      8  C   UNL     1      49.347   6.993  14.797  0.00  0.00    +0.000 A 
BRANCH   7   9
ATOM      9  O   UNL     1      49.660   5.481  16.591  0.00  0.00    +0.000 OA
BRANCH   9  10
ATOM     10  C   UNL     1      48.642   4.710  17.255  0.00  0.00    +0.000 C 
ATOM     11  C   UNL     1      49.195   3.384  17.728  0.00  0.00    +0.000 C 
ATOM     12  C   UNL     1      48.960   2.458  16.556  0.00  0.00    +0.000 C 
ATOM     13  O   UNL     1      47.818   2.944  15.847  0.00  0.00    +0.000 OA
ATOM     14  C   UNL     1      47.563   4.294  16.261  0.00  0.00    +0.000 C 
ENDBRANCH   9  10
ENDBRANCH   7   9
ENDBRANCH   2   3
BRANCH   2  15
ATOM     15  C   UNL     1      48.526   7.588  11.766  0.00  0.00    +0.000 C 
BRANCH  15  16
ATOM     16  C   UNL     1      47.234   6.890  12.151  0.00  0.00    +0.000 A 
ATOM     17  C   UNL     1      47.251   5.608  12.708  0.00  0.00    +0.000 A 
ATOM     18  C   UNL     1      46.062   4.923  12.962  0.00  0.00    +0.000 A 
ATOM     19  C   UNL     1      44.830   5.530  12.715  0.00  0.00    +0.000 A 
ATOM     20  C   UNL     1      44.791   6.829  12.201  0.00  0.00    +0.000 A 
ATOM     21  C   UNL     1      45.989   7.504  11.927  0.00  0.00    +0.000 A 
BRANCH  19  22
ATOM     22  C   UNL     1      43.602   4.739  12.985  0.00  0.00    +0.000 C 
ATOM     23  N   UNL     1      43.739   3.381  13.098  0.00  0.00    +0.000 N 
ATOM     24  O   UNL     1      42.496   5.258  13.054  0.00  0.00    +0.000 OA
ATOM     25  H   UNL     1      44.566   2.898  12.781  0.00  0.00    +0.000 HD
ATOM     26  H   UNL     1      42.873   2.857  13.139  0.00  0.00    +0.000 HD
ENDBRANCH  19  22
ENDBRANCH  15  16
ENDBRANCH   2  15
TORSDOF 6
ENDMDL
MODEL 9
REMARK VINA RESULT:    -5.714      4.094      7.947
REMARK INTER + INTRA:          -8.832
REMARK INTER:                  -7.348
REMARK INTRA:                  -1.484
REMARK UNBOUND:                -1.113
REMARK  Name = 
REMARK  7 active torsions:
REMARK  status: ('A' for Active; 'I' for Inactive)
REMARK    1  A    between atoms: C_1  and  C_2
REMARK    2  A    between atoms: C_2  and  C_3
REMARK    3  A    between atoms: C_2  and  C_13
REMARK    4  A    between atoms: C_3  and  C_4
REMARK    5  A    between atoms: C_7  and  C_8
REMARK    6  A    between atoms: C_17  and  O_18
REMARK    7  A    between atoms: O_18  and  C_19
REMARK                            x       y       z     vdW  Elec       q    Type
REMARK                         _______ _______ _______ _____ _____    ______ ____
ROOT
ATOM      1  C   UNL     1      48.438   9.984  16.814  0.00  0.00    +0.000 C 
ATOM      2  C   UNL     1      48.480   8.453  16.664  0.00  0.00    +0.000 C 
ENDROOT
BRANCH   2   3
ATOM      3  C   UNL     1      48.797   7.975  15.244  0.00  0.00    +0.000 A 
ATOM      4  C   UNL     1      50.032   8.297  14.659  0.00  0.00    +0.000 A 
ATOM      5  C   UNL     1      50.281   8.053  13.312  0.00  0.00    +0.000 A 
ATOM      6  C   UNL     1      49.339   7.380  12.544  0.00  0.00    +0.000 A 
ATOM      7  C   UNL     1      48.180   6.887  13.139  0.00  0.00    +0.000 A 
ATOM      8  C   UNL     1      47.897   7.211  14.472  0.00  0.00    +0.000 A 
BRANCH   7   9
ATOM      9  O   UNL     1      47.258   6.112  12.476  0.00  0.00    +0.000 OA
BRANCH   9  10
ATOM     10  C   UNL     1      46.204   5.603  13.313  0.00  0.00    +0.000 C 
ATOM     11  C   UNL     1      46.275   4.095  13.408  0.00  0.00    +0.000 C 
ATOM     12  C   UNL     1      45.420   3.622  12.254  0.00  0.00    +0.000 C 
ATOM     13  O   UNL     1      44.436   4.629  12.007  0.00  0.00    +0.000 OA
ATOM     14  C   UNL     1      44.848   5.840  12.656  0.00  0.00    +0.000 C 
ENDBRANCH   9  10
ENDBRANCH   7   9
ENDBRANCH   2   3
BRANCH   2  15
ATOM     15  C   UNL     1      49.391   7.826  17.778  0.00  0.00    +0.000 C 
BRANCH  15  16
ATOM     16  C   UNL     1      49.663   6.334  17.686  0.00  0.00    +0.000 A 
ATOM     17  C   UNL     1      50.971   5.849  17.596  0.00  0.00    +0.000 A 
ATOM     18  C   UNL     1      51.217   4.489  17.403  0.00  0.00    +0.000 A 
ATOM     19  C   UNL     1      50.160   3.579  17.353  0.00  0.00    +0.000 A 
ATOM     20  C   UNL     1      48.846   4.039  17.487  0.00  0.00    +0.000 A 
ATOM     21  C   UNL     1      48.604   5.410  17.658  0.00  0.00    +0.000 A 
BRANCH  19  22
ATOM     22  C   UNL     1      50.487   2.149  17.122  0.00  0.00    +0.000 C 
ATOM     23  N   UNL     1      51.406   1.570  17.956  0.00  0.00    +0.000 N 
ATOM     24  O   UNL     1      50.003   1.512  16.196  0.00  0.00    +0.000 OA
ATOM     25  H   UNL     1      52.017   2.118  18.542  0.00  0.00    +0.000 HD
ATOM     26  H   UNL     1      51.713   0.642  17.690  0.00  0.00    +0.000 HD
ENDBRANCH  19  22
ENDBRANCH  15  16
ENDBRANCH   2  15
TORSDOF 6
ENDMDL
