MODEL 1
REMARK VINA RESULT:    -8.134      0.000      0.000
REMARK INTER + INTRA:         -11.535
REMARK INTER:                 -10.987
REMARK INTRA:                  -0.548
REMARK UNBOUND:                -0.548
REMARK  Name = 
REMARK  7 active torsions:
REMARK  status: ('A' for Active; 'I' for Inactive)
REMARK    1  A    between atoms: C_1  and  C_2
REMARK    2  A    between atoms: C_2  and  N_3
REMARK    3  A    between atoms: C_2  and  C_16
REMARK    4  A    between atoms: C_4  and  C_6
REMARK    5  A    between atoms: C_19  and  C_20
REMARK    6  A    between atoms: C_20  and  N_21
REMARK    7  A    between atoms: C_22  and  C_24
REMARK                            x       y       z     vdW  Elec       q    Type
REMARK                         _______ _______ _______ _____ _____    ______ ____
ROOT
ATOM      1  C   UNL     1      48.582   9.221  13.013  0.00  0.00    +0.000 C 
ATOM      2  C   UNL     1      47.352   8.554  13.636  0.00  0.00    +0.000 C 
ENDROOT
BRANCH   2   3
ATOM      3  C   UNL     1      46.569   7.651  12.692  0.00  0.00    +0.000 A 
ATOM      4  C   UNL     1      45.187   7.501  12.896  0.00  0.00    +0.000 A 
ATOM      5  C   UNL     1      44.420   6.659  12.084  0.00  0.00    +0.000 A 
ATOM      6  C   UNL     1      45.015   5.925  11.053  0.00  0.00    +0.000 A 
ATOM      7  C   UNL     1      46.391   6.074  10.837  0.00  0.00    +0.000 A 
ATOM      8  C   UNL     1      47.161   6.915  11.654  0.00  0.00    +0.000 A 
BRANCH   6   9
ATOM      9  C   UNL     1      44.193   4.988  10.207  0.00  0.00    +0.000 C 
BRANCH   9  10
ATOM     10  N   UNL     1      44.983   4.290   9.227  0.00  0.00    +0.000 N 
ATOM     11  C   UNL     1      45.012   2.912   9.174  0.00  0.00    +0.000 C 
ATOM     12  O   UNL     1      44.384   2.186   9.939  0.00  0.00    +0.000 OA
ATOM     13  H   UNL     1      45.497   4.800   8.514  0.00  0.00    +0.000 HD
BRANCH  11  14
ATOM     14  C   UNL     1      45.878   2.338   8.103  0.00  0.00    +0.000 A 
ATOM     15  C   UNL     1      46.240   3.112   7.009  0.00  0.00    +0.000 A 
ATOM     16  N   UNL     1      47.013   2.626   6.002  0.00  0.00    +0.000 NA
ATOM     17  C   UNL     1      47.400   1.338   6.140  0.00  0.00    +0.000 A 
ATOM     18  C   UNL     1      47.038   0.567   7.235  0.00  0.00    +0.000 A 
ATOM     19  N   UNL     1      46.274   1.041   8.249  0.00  0.00    +0.000 NA
ENDBRANCH  11  14
ENDBRANCH   9  10
ENDBRANCH   6   9
ENDBRANCH   2   3
BRANCH   2  20
ATOM     20  N   UNL     1      47.729   7.800  14.818  0.00  0.00    +0.000 N 
ATOM     21  C   UNL     1      48.869   7.038  14.878  0.00  0.00    +0.000 C 
ATOM     22  O   UNL     1      49.706   7.028  13.979  0.00  0.00    +0.000 OA
ATOM     23  H   UNL     1      46.998   7.649  15.503  0.00  0.00    +0.000 HD
BRANCH  21  24
ATOM     24  C   UNL     1      49.063   6.266  16.110  0.00  0.00    +0.000 A 
ATOM     25  C   UNL     1      50.058   6.625  17.010  0.00  0.00    +0.000 A 
ATOM     26  S   UNL     1      50.120   5.625  18.392  0.00  0.00    +0.000 S 
ATOM     27  C   UNL     1      48.861   4.642  17.805  0.00  0.00    +0.000 A 
ATOM     28  N   UNL     1      48.440   3.552  18.501  0.00  0.00    +0.000 NA
ATOM     29  C   UNL     1      47.508   2.874  17.917  0.00  0.00    +0.000 A 
ATOM     30  N   UNL     1      46.951   3.194  16.705  0.00  0.00    +0.000 N 
ATOM     31  C   UNL     1      47.306   4.313  15.993  0.00  0.00    +0.000 A 
ATOM     32  O   UNL     1      46.725   4.619  14.957  0.00  0.00    +0.000 OA
ATOM     33  C   UNL     1      48.376   5.090  16.589  0.00  0.00    +0.000 A 
ATOM     34  H   UNL     1      46.210   2.634  16.312  0.00  0.00    +0.000 HD
ENDBRANCH  21  24
ENDBRANCH   2  20
TORSDOF 6
ENDMDL
MODEL 2
REMARK VINA RESULT:    -8.073      2.278      2.661
REMARK INTER + INTRA:         -11.453
REMARK INTER:                 -10.283
REMARK INTRA:                  -1.169
REMARK UNBOUND:                -0.548
REMARK  Name = 
REMARK  7 active torsions:
REMARK  status: ('A' for Active; 'I' for Inactive)
REMARK    1  A    between atoms: C_1  and  C_2
REMARK    2  A    between atoms: C_2  and  N_3
REMARK    3  A    between atoms: C_2  and  C_16
REMARK    4  A    between atoms: C_4  and  C_6
REMARK    5  A    between atoms: C_19  and  C_20
REMARK    6  A    between atoms: C_20  and  N_21
REMARK    7  A    between atoms: C_22  and  C_24
REMARK                            x       y       z     vdW  Elec       q    Type
REMARK                         _______ _______ _______ _____ _____    ______ ____
ROOT
ATOM      1  C   UNL     1      48.334   7.875  14.198  0.00  0.00    +0.000 C 
ATOM      2  C   UNL     1      47.795   6.616  14.886  0.00  0.00    +0.000 C 
ENDROOT
BRANCH   2   3
ATOM      3  C   UNL     1      47.010   5.679  13.978  0.00  0.00    +0.000 A 
ATOM      4  C   UNL     1      46.188   6.237  12.985  0.00  0.00    +0.000 A 
ATOM      5  C   UNL     1      45.416   5.429  12.143  0.00  0.00    +0.000 A 
ATOM      6  C   UNL     1      45.427   4.038  12.281  0.00  0.00    +0.000 A 
ATOM      7  C   UNL     1      46.250   3.472  13.263  0.00  0.00    +0.000 A 
ATOM      8  C   UNL     1      47.020   4.282  14.110  0.00  0.00    +0.000 A 
BRANCH   6   9
ATOM      9  C   UNL     1      44.563   3.174  11.400  0.00  0.00    +0.000 C 
BRANCH   9  10
ATOM     10  N   UNL     1      45.266   2.686  10.242  0.00  0.00    +0.000 N 
ATOM     11  C   UNL     1      45.081   3.247   8.996  0.00  0.00    +0.000 C 
ATOM     12  O   UNL     1      44.321   4.185   8.777  0.00  0.00    +0.000 OA
ATOM     13  H   UNL     1      45.959   1.947  10.328  0.00  0.00    +0.000 HD
BRANCH  11  14
ATOM     14  C   UNL     1      45.881   2.630   7.899  0.00  0.00    +0.000 A 
ATOM     15  C   UNL     1      46.376   1.340   8.037  0.00  0.00    +0.000 A 
ATOM     16  N   UNL     1      47.122   0.744   7.070  0.00  0.00    +0.000 NA
ATOM     17  C   UNL     1      47.352   1.496   5.970  0.00  0.00    +0.000 A 
ATOM     18  C   UNL     1      46.855   2.784   5.833  0.00  0.00    +0.000 A 
ATOM     19  N   UNL     1      46.103   3.387   6.786  0.00  0.00    +0.000 NA
ENDBRANCH  11  14
ENDBRANCH   9  10
ENDBRANCH   6   9
ENDBRANCH   2   3
BRANCH   2  20
ATOM     20  N   UNL     1      48.878   5.880  15.515  0.00  0.00    +0.000 N 
ATOM     21  C   UNL     1      49.045   5.829  16.876  0.00  0.00    +0.000 C 
ATOM     22  O   UNL     1      48.231   6.306  17.661  0.00  0.00    +0.000 OA
ATOM     23  H   UNL     1      49.650   5.621  14.911  0.00  0.00    +0.000 HD
BRANCH  21  24
ATOM     24  C   UNL     1      50.238   5.118  17.350  0.00  0.00    +0.000 A 
ATOM     25  C   UNL     1      51.305   5.824  17.888  0.00  0.00    +0.000 A 
ATOM     26  S   UNL     1      52.592   4.827  18.403  0.00  0.00    +0.000 S 
ATOM     27  C   UNL     1      51.791   3.424  17.867  0.00  0.00    +0.000 A 
ATOM     28  N   UNL     1      52.375   2.200  17.974  0.00  0.00    +0.000 NA
ATOM     29  C   UNL     1      51.673   1.230  17.489  0.00  0.00    +0.000 A 
ATOM     30  N   UNL     1      50.434   1.372  16.917  0.00  0.00    +0.000 N 
ATOM     31  C   UNL     1      49.782   2.579  16.838  0.00  0.00    +0.000 A 
ATOM     32  O   UNL     1      48.638   2.657  16.403  0.00  0.00    +0.000 OA
ATOM     33  C   UNL     1      50.545   3.707  17.336  0.00  0.00    +0.000 A 
ATOM     34  H   UNL     1      49.927   0.570  16.576  0.00  0.00    +0.000 HD
ENDBRANCH  21  24
ENDBRANCH   2  20
TORSDOF 6
ENDMDL
MODEL 3
REMARK VINA RESULT:    -7.990      2.749      3.816
REMARK INTER + INTRA:         -11.340
REMARK INTER:                 -10.147
REMARK INTRA:                  -1.193
REMARK UNBOUND:                -0.548
REMARK  Name = 
REMARK  7 active torsions:
REMARK  status: ('A' for Active; 'I' for Inactive)
REMARK    1  A    between atoms: C_1  and  C_2
REMARK    2  A    between atoms: C_2  and  N_3
REMARK    3  A    between atoms: C_2  and  C_16
REMARK    4  A    between atoms: C_4  and  C_6
REMARK    5  A    between atoms: C_19  and  C_20
REMARK    6  A    between atoms: C_20  and  N_21
REMARK    7  A    between atoms: C_22  and  C_24
REMARK                            x       y       z     vdW  Elec       q    Type
REMARK                         _______ _______ _______ _____ _____    ______ ____
ROOT
ATOM      1  C   UNL     1      47.347   4.220  16.147  0.00  0.00    +0.000 C 
ATOM      2  C   UNL     1      47.726   5.075  14.934  0.00  0.00    +0.000 C 
ENDROOT
BRANCH   2   3
ATOM      3  C   UNL     1      46.789   4.939  13.740  0.00  0.00    +0.000 A 
ATOM      4  C   UNL     1      46.287   3.667  13.421  0.00  0.00    +0.000 A 
ATOM      5  C   UNL     1      45.451   3.473  12.316  0.00  0.00    +0.000 A 
ATOM      6  C   UNL     1      45.107   4.543  11.484  0.00  0.00    +0.000 A 
ATOM      7  C   UNL     1      45.596   5.816  11.799  0.00  0.00    +0.000 A 
ATOM      8  C   UNL     1      46.438   6.010  12.904  0.00  0.00    +0.000 A 
BRANCH   6   9
ATOM      9  C   UNL     1      44.240   4.321  10.272  0.00  0.00    +0.000 C 
BRANCH   9  10
ATOM     10  N   UNL     1      44.861   3.462   9.297  0.00  0.00    +0.000 N 
ATOM     11  C   UNL     1      45.778   3.948   8.388  0.00  0.00    +0.000 C 
ATOM     12  O   UNL     1      46.131   5.122   8.337  0.00  0.00    +0.000 OA
ATOM     13  H   UNL     1      44.675   2.463   9.292  0.00  0.00    +0.000 HD
BRANCH  11  14
ATOM     14  C   UNL     1      46.330   2.935   7.444  0.00  0.00    +0.000 A 
ATOM     15  C   UNL     1      46.555   1.633   7.870  0.00  0.00    +0.000 A 
ATOM     16  N   UNL     1      47.072   0.681   7.049  0.00  0.00    +0.000 NA
ATOM     17  C   UNL     1      47.355   1.092   5.793  0.00  0.00    +0.000 A 
ATOM     18  C   UNL     1      47.129   2.393   5.368  0.00  0.00    +0.000 A 
ATOM     19  N   UNL     1      46.608   3.349   6.174  0.00  0.00    +0.000 NA
ENDBRANCH  11  14
ENDBRANCH   9  10
ENDBRANCH   6   9
ENDBRANCH   2   3
BRANCH   2  20
ATOM     20  N   UNL     1      47.822   6.474  15.311  0.00  0.00    +0.000 N 
ATOM     21  C   UNL     1      49.018   7.081  15.604  0.00  0.00    +0.000 C 
ATOM     22  O   UNL     1      50.099   6.517  15.460  0.00  0.00    +0.000 OA
ATOM     23  H   UNL     1      46.959   6.919  15.599  0.00  0.00    +0.000 HD
BRANCH  21  24
ATOM     24  C   UNL     1      48.938   8.475  16.054  0.00  0.00    +0.000 A 
ATOM     25  C   UNL     1      49.434   9.496  15.254  0.00  0.00    +0.000 A 
ATOM     26  S   UNL     1      49.235  11.050  15.933  0.00  0.00    +0.000 S 
ATOM     27  C   UNL     1      48.538  10.405  17.345  0.00  0.00    +0.000 A 
ATOM     28  N   UNL     1      48.166  11.211  18.375  0.00  0.00    +0.000 NA
ATOM     29  C   UNL     1      47.691  10.583  19.399  0.00  0.00    +0.000 A 
ATOM     30  N   UNL     1      47.542   9.222  19.481  0.00  0.00    +0.000 N 
ATOM     31  C   UNL     1      47.851   8.373  18.446  0.00  0.00    +0.000 A 
ATOM     32  O   UNL     1      47.622   7.171  18.518  0.00  0.00    +0.000 OA
ATOM     33  C   UNL     1      48.425   9.027  17.285  0.00  0.00    +0.000 A 
ATOM     34  H   UNL     1      47.144   8.793  20.303  0.00  0.00    +0.000 HD
ENDBRANCH  21  24
ENDBRANCH   2  20
TORSDOF 6
ENDMDL
MODEL 4
REMARK VINA RESULT:    -7.918      2.211      4.164
REMARK INTER + INTRA:         -11.243
REMARK INTER:                 -10.017
REMARK INTRA:                  -1.226
REMARK UNBOUND:                -0.548
REMARK  Name = 
REMARK  7 active torsions:
REMARK  status: ('A' for Active; 'I' for Inactive)
REMARK    1  A    between atoms: C_1  and  C_2
REMARK    2  A    between atoms: C_2  and  N_3
REMARK    3  A    between atoms: C_2  and  C_16
REMARK    4  A    between atoms: C_4  and  C_6
REMARK    5  A    between atoms: C_19  and  C_20
REMARK    6  A    between atoms: C_20  and  N_21
REMARK    7  A    between atoms: C_22  and  C_24
REMARK                            x       y       z     vdW  Elec       q    Type
REMARK                         _______ _______ _______ _____ _____    ______ ____
ROOT
ATOM      1  C   UNL     1      47.130   4.321  16.077  0.00  0.00    +0.000 C 
ATOM      2  C   UNL     1      47.630   5.019  14.808  0.00  0.00    +0.000 C 
ENDROOT
BRANCH   2   3
ATOM      3  C   UNL     1      46.718   4.872  13.597  0.00  0.00    +0.000 A 
ATOM      4  C   UNL     1      46.212   3.598  13.287  0.00  0.00    +0.000 A 
ATOM      5  C   UNL     1      45.398   3.393  12.168  0.00  0.00    +0.000 A 
ATOM      6  C   UNL     1      45.081   4.453  11.312  0.00  0.00    +0.000 A 
ATOM      7  C   UNL     1      45.574   5.727  11.618  0.00  0.00    +0.000 A 
ATOM      8  C   UNL     1      46.394   5.932  12.737  0.00  0.00    +0.000 A 
BRANCH   6   9
ATOM      9  C   UNL     1      44.238   4.219  10.086  0.00  0.00    +0.000 C 
BRANCH   9  10
ATOM     10  N   UNL     1      44.885   3.364   9.124  0.00  0.00    +0.000 N 
ATOM     11  C   UNL     1      45.808   3.857   8.226  0.00  0.00    +0.000 C 
ATOM     12  O   UNL     1      46.146   5.036   8.174  0.00  0.00    +0.000 OA
ATOM     13  H   UNL     1      44.713   2.362   9.122  0.00  0.00    +0.000 HD
BRANCH  11  14
ATOM     14  C   UNL     1      46.388   2.847   7.295  0.00  0.00    +0.000 A 
ATOM     15  C   UNL     1      46.621   3.176   5.967  0.00  0.00    +0.000 A 
ATOM     16  N   UNL     1      47.133   2.283   5.079  0.00  0.00    +0.000 NA
ATOM     17  C   UNL     1      47.394   1.054   5.579  0.00  0.00    +0.000 A 
ATOM     18  C   UNL     1      47.161   0.728   6.907  0.00  0.00    +0.000 A 
ATOM     19  N   UNL     1      46.659   1.611   7.804  0.00  0.00    +0.000 NA
ENDBRANCH  11  14
ENDBRANCH   9  10
ENDBRANCH   6   9
ENDBRANCH   2   3
BRANCH   2  20
ATOM     20  N   UNL     1      47.863   6.429  15.065  0.00  0.00    +0.000 N 
ATOM     21  C   UNL     1      49.019   6.896  15.640  0.00  0.00    +0.000 C 
ATOM     22  O   UNL     1      49.981   6.170  15.875  0.00  0.00    +0.000 OA
ATOM     23  H   UNL     1      47.046   7.027  15.042  0.00  0.00    +0.000 HD
BRANCH  21  24
ATOM     24  C   UNL     1      49.064   8.336  15.913  0.00  0.00    +0.000 A 
ATOM     25  C   UNL     1      49.127   8.797  17.221  0.00  0.00    +0.000 A 
ATOM     26  S   UNL     1      49.193  10.499  17.341  0.00  0.00    +0.000 S 
ATOM     27  C   UNL     1      49.077  10.678  15.653  0.00  0.00    +0.000 A 
ATOM     28  N   UNL     1      49.037  11.910  15.079  0.00  0.00    +0.000 NA
ATOM     29  C   UNL     1      48.905  11.896  13.794  0.00  0.00    +0.000 A 
ATOM     30  N   UNL     1      48.822  10.761  13.029  0.00  0.00    +0.000 N 
ATOM     31  C   UNL     1      48.913   9.496  13.558  0.00  0.00    +0.000 A 
ATOM     32  O   UNL     1      48.926   8.504  12.838  0.00  0.00    +0.000 OA
ATOM     33  C   UNL     1      49.025   9.456  15.004  0.00  0.00    +0.000 A 
ATOM     34  H   UNL     1      48.741  10.818  12.026  0.00  0.00    +0.000 HD
ENDBRANCH  21  24
ENDBRANCH   2  20
TORSDOF 6
ENDMDL
MODEL 5
REMARK VINA RESULT:    -7.897      3.385      6.310
REMARK INTER + INTRA:         -11.215
REMARK INTER:                 -10.115
REMARK INTRA:                  -1.100
REMARK UNBOUND:                -0.548
REMARK  Name = 
REMARK  7 active torsions:
REMARK  status: ('A' for Active; 'I' for Inactive)
REMARK    1  A    between atoms: C_1  and  C_2
REMARK    2  A    between atoms: C_2  and  N_3
REMARK    3  A    between atoms: C_2  and  C_16
REMARK    4  A    between atoms: C_4  and  C_6
REMARK    5  A    between atoms: C_19  and  C_20
REMARK    6  A    between atoms: C_20  and  N_21
REMARK    7  A    between atoms: C_22  and  C_24
REMARK                            x       y       z     vdW  Elec       q    Type
REMARK                         _______ _______ _______ _____ _____    ______ ____
ROOT
ATOM      1  C   UNL     1      43.583   2.980  10.580  0.00  0.00    +0.000 C 
ATOM      2  C   UNL     1      45.112   2.996  10.484  0.00  0.00    +0.000 C 
ENDROOT
BRANCH   2   3
ATOM      3  C   UNL     1      45.665   2.779   9.081  0.00  0.00    +0.000 A 
ATOM      4  C   UNL     1      45.829   3.894   8.242  0.00  0.00    +0.000 A 
ATOM      5  C   UNL     1      46.299   3.753   6.932  0.00  0.00    +0.000 A 
ATOM      6  C   UNL     1      46.603   2.491   6.414  0.00  0.00    +0.000 A 
ATOM      7  C   UNL     1      46.451   1.374   7.245  0.00  0.00    +0.000 A 
ATOM      8  C   UNL     1      45.975   1.514   8.557  0.00  0.00    +0.000 A 
BRANCH   6   9
ATOM      9  C   UNL     1      47.070   2.341   4.989  0.00  0.00    +0.000 C 
BRANCH   9  10
ATOM     10  N   UNL     1      47.333   0.970   4.634  0.00  0.00    +0.000 N 
ATOM     11  C   UNL     1      46.689   0.364   3.575  0.00  0.00    +0.000 C 
ATOM     12  O   UNL     1      45.860   0.928   2.867  0.00  0.00    +0.000 OA
ATOM     13  H   UNL     1      48.041   0.432   5.126  0.00  0.00    +0.000 HD
BRANCH  11  14
ATOM     14  C   UNL     1      47.067  -1.058   3.335  0.00  0.00    +0.000 A 
ATOM     15  C   UNL     1      46.501  -2.070   4.100  0.00  0.00    +0.000 A 
ATOM     16  N   UNL     1      46.829  -3.378   3.927  0.00  0.00    +0.000 NA
ATOM     17  C   UNL     1      47.745  -3.622   2.963  0.00  0.00    +0.000 A 
ATOM     18  C   UNL     1      48.308  -2.611   2.199  0.00  0.00    +0.000 A 
ATOM     19  N   UNL     1      47.985  -1.304   2.356  0.00  0.00    +0.000 NA
ENDBRANCH  11  14
ENDBRANCH   9  10
ENDBRANCH   6   9
ENDBRANCH   2   3
BRANCH   2  20
ATOM     20  N   UNL     1      45.641   4.237  11.021  0.00  0.00    +0.000 N 
ATOM     21  C   UNL     1      45.894   4.416  12.358  0.00  0.00    +0.000 C 
ATOM     22  O   UNL     1      45.799   3.507  13.177  0.00  0.00    +0.000 OA
ATOM     23  H   UNL     1      45.575   5.048  10.417  0.00  0.00    +0.000 HD
BRANCH  21  24
ATOM     24  C   UNL     1      46.343   5.756  12.753  0.00  0.00    +0.000 A 
ATOM     25  C   UNL     1      47.470   5.908  13.549  0.00  0.00    +0.000 A 
ATOM     26  S   UNL     1      47.848   7.538  13.889  0.00  0.00    +0.000 S 
ATOM     27  C   UNL     1      46.482   8.090  13.036  0.00  0.00    +0.000 A 
ATOM     28  N   UNL     1      46.186   9.416  12.970  0.00  0.00    +0.000 NA
ATOM     29  C   UNL     1      45.099   9.688  12.327  0.00  0.00    +0.000 A 
ATOM     30  N   UNL     1      44.287   8.755  11.735  0.00  0.00    +0.000 N 
ATOM     31  C   UNL     1      44.575   7.411  11.729  0.00  0.00    +0.000 A 
ATOM     32  O   UNL     1      43.876   6.613  11.113  0.00  0.00    +0.000 OA
ATOM     33  C   UNL     1      45.768   7.049  12.470  0.00  0.00    +0.000 A 
ATOM     34  H   UNL     1      43.461   9.034  11.228  0.00  0.00    +0.000 HD
ENDBRANCH  21  24
ENDBRANCH   2  20
TORSDOF 6
ENDMDL
MODEL 6
REMARK VINA RESULT:    -7.739      3.223      5.748
REMARK INTER + INTRA:         -11.001
REMARK INTER:                 -10.088
REMARK INTRA:                  -0.914
REMARK UNBOUND:                -0.548
REMARK  Name = 
REMARK  7 active torsions:
REMARK  status: ('A' for Active; 'I' for Inactive)
REMARK    1  A    between atoms: C_1  and  C_2
REMARK    2  A    between atoms: C_2  and  N_3
REMARK    3  A    between atoms: C_2  and  C_16
REMARK    4  A    between atoms: C_4  and  C_6
REMARK    5  A    between atoms: C_19  and  C_20
REMARK    6  A    between atoms: C_20  and  N_21
REMARK    7  A    between atoms: C_22  and  C_24
REMARK                            x       y       z     vdW  Elec       q    Type
REMARK                         _______ _______ _______ _____ _____    ______ ____
ROOT
ATOM      1  C   UNL     1      43.532   4.589  10.178  0.00  0.00    +0.000 C 
ATOM      2  C   UNL     1      44.623   3.543  10.428  0.00  0.00    +0.000 C 
ENDROOT
BRANCH   2   3
ATOM      3  C   UNL     1      45.360   3.078   9.179  0.00  0.00    +0.000 A 
ATOM      4  C   UNL     1      45.750   4.039   8.231  0.00  0.00    +0.000 A 
ATOM      5  C   UNL     1      46.399   3.669   7.048  0.00  0.00    +0.000 A 
ATOM      6  C   UNL     1      46.661   2.324   6.767  0.00  0.00    +0.000 A 
ATOM      7  C   UNL     1      46.283   1.360   7.710  0.00  0.00    +0.000 A 
ATOM      8  C   UNL     1      45.629   1.730   8.894  0.00  0.00    +0.000 A 
BRANCH   6   9
ATOM      9  C   UNL     1      47.322   1.928   5.473  0.00  0.00    +0.000 C 
BRANCH   9  10
ATOM     10  N   UNL     1      47.153   0.530   5.170  0.00  0.00    +0.000 N 
ATOM     11  C   UNL     1      46.838   0.102   3.897  0.00  0.00    +0.000 C 
ATOM     12  O   UNL     1      46.680   0.857   2.943  0.00  0.00    +0.000 OA
ATOM     13  H   UNL     1      47.316  -0.179   5.880  0.00  0.00    +0.000 HD
BRANCH  11  14
ATOM     14  C   UNL     1      46.696  -1.375   3.744  0.00  0.00    +0.000 A 
ATOM     15  C   UNL     1      46.618  -1.940   2.478  0.00  0.00    +0.000 A 
ATOM     16  N   UNL     1      46.471  -3.279   2.292  0.00  0.00    +0.000 NA
ATOM     17  C   UNL     1      46.402  -4.017   3.422  0.00  0.00    +0.000 A 
ATOM     18  C   UNL     1      46.482  -3.450   4.685  0.00  0.00    +0.000 A 
ATOM     19  N   UNL     1      46.635  -2.119   4.886  0.00  0.00    +0.000 NA
ENDBRANCH  11  14
ENDBRANCH   9  10
ENDBRANCH   6   9
ENDBRANCH   2   3
BRANCH   2  20
ATOM     20  N   UNL     1      45.585   4.038  11.397  0.00  0.00    +0.000 N 
ATOM     21  C   UNL     1      45.309   4.121  12.739  0.00  0.00    +0.000 C 
ATOM     22  O   UNL     1      44.274   3.680  13.230  0.00  0.00    +0.000 OA
ATOM     23  H   UNL     1      46.370   4.558  11.021  0.00  0.00    +0.000 HD
BRANCH  21  24
ATOM     24  C   UNL     1      46.354   4.724  13.574  0.00  0.00    +0.000 A 
ATOM     25  C   UNL     1      46.641   4.194  14.824  0.00  0.00    +0.000 A 
ATOM     26  S   UNL     1      47.896   5.015  15.640  0.00  0.00    +0.000 S 
ATOM     27  C   UNL     1      48.055   6.144  14.375  0.00  0.00    +0.000 A 
ATOM     28  N   UNL     1      48.946   7.167  14.457  0.00  0.00    +0.000 NA
ATOM     29  C   UNL     1      48.929   7.971  13.446  0.00  0.00    +0.000 A 
ATOM     30  N   UNL     1      48.109   7.837  12.354  0.00  0.00    +0.000 N 
ATOM     31  C   UNL     1      47.233   6.789  12.203  0.00  0.00    +0.000 A 
ATOM     32  O   UNL     1      46.580   6.649  11.175  0.00  0.00    +0.000 OA
ATOM     33  C   UNL     1      47.187   5.877  13.331  0.00  0.00    +0.000 A 
ATOM     34  H   UNL     1      48.159   8.488  11.586  0.00  0.00    +0.000 HD
ENDBRANCH  21  24
ENDBRANCH   2  20
TORSDOF 6
ENDMDL
MODEL 7
REMARK VINA RESULT:    -7.645      4.399      7.268
REMARK INTER + INTRA:         -10.874
REMARK INTER:                  -9.836
REMARK INTRA:                  -1.038
REMARK UNBOUND:                -0.548
REMARK  Name = 
REMARK  7 active torsions:
REMARK  status: ('A' for Active; 'I' for Inactive)
REMARK    1  A    between atoms: C_1  and  C_2
REMARK    2  A    between atoms: C_2  and  N_3
REMARK    3  A    between atoms: C_2  and  C_16
REMARK    4  A    between atoms: C_4  and  C_6
REMARK    5  A    between atoms: C_19  and  C_20
REMARK    6  A    between atoms: C_20  and  N_21
REMARK    7  A    between atoms: C_22  and  C_24
REMARK                            x       y       z     vdW  Elec       q    Type
REMARK                         _______ _______ _______ _____ _____    ______ ____
ROOT
ATOM      1  C   UNL     1      44.612   4.125  12.934  0.00  0.00    +0.000 C 
ATOM      2  C   UNL     1      45.764   5.133  12.867  0.00  0.00    +0.000 C 
ENDROOT
BRANCH   2   3
ATOM      3  C   UNL     1      45.362   6.532  12.416  0.00  0.00    +0.000 A 
ATOM      4  C   UNL     1      45.978   7.638  13.026  0.00  0.00    +0.000 A 
ATOM      5  C   UNL     1      45.627   8.947  12.679  0.00  0.00    +0.000 A 
ATOM      6  C   UNL     1      44.634   9.191  11.725  0.00  0.00    +0.000 A 
ATOM      7  C   UNL     1      44.021   8.094  11.105  0.00  0.00    +0.000 A 
ATOM      8  C   UNL     1      44.370   6.782  11.456  0.00  0.00    +0.000 A 
BRANCH   6   9
ATOM      9  C   UNL     1      44.230  10.601  11.384  0.00  0.00    +0.000 C 
BRANCH   9  10
ATOM     10  N   UNL     1      43.041  11.020  12.082  0.00  0.00    +0.000 N 
ATOM     11  C   UNL     1      41.800  10.976  11.482  0.00  0.00    +0.000 C 
ATOM     12  O   UNL     1      41.611  10.585  10.334  0.00  0.00    +0.000 OA
ATOM     13  H   UNL     1      43.085  11.310  13.055  0.00  0.00    +0.000 HD
BRANCH  11  14
ATOM     14  C   UNL     1      40.669  11.443  12.333  0.00  0.00    +0.000 A 
ATOM     15  C   UNL     1      39.359  11.155  11.973  0.00  0.00    +0.000 A 
ATOM     16  N   UNL     1      38.297  11.575  12.709  0.00  0.00    +0.000 NA
ATOM     17  C   UNL     1      38.605  12.295  13.811  0.00  0.00    +0.000 A 
ATOM     18  C   UNL     1      39.914  12.580  14.170  0.00  0.00    +0.000 A 
ATOM     19  N   UNL     1      40.982  12.162  13.449  0.00  0.00    +0.000 NA
ENDBRANCH  11  14
ENDBRANCH   9  10
ENDBRANCH   6   9
ENDBRANCH   2   3
BRANCH   2  20
ATOM     20  N   UNL     1      46.439   5.218  14.150  0.00  0.00    +0.000 N 
ATOM     21  C   UNL     1      47.132   4.165  14.691  0.00  0.00    +0.000 C 
ATOM     22  O   UNL     1      47.327   3.117  14.082  0.00  0.00    +0.000 OA
ATOM     23  H   UNL     1      46.166   5.990  14.747  0.00  0.00    +0.000 HD
BRANCH  21  24
ATOM     24  C   UNL     1      47.683   4.381  16.034  0.00  0.00    +0.000 A 
ATOM     25  C   UNL     1      47.315   3.547  17.082  0.00  0.00    +0.000 A 
ATOM     26  S   UNL     1      48.070   3.940  18.562  0.00  0.00    +0.000 S 
ATOM     27  C   UNL     1      48.865   5.275  17.866  0.00  0.00    +0.000 A 
ATOM     28  N   UNL     1      49.659   6.086  18.614  0.00  0.00    +0.000 NA
ATOM     29  C   UNL     1      50.164   7.083  17.966  0.00  0.00    +0.000 A 
ATOM     30  N   UNL     1      49.956   7.335  16.634  0.00  0.00    +0.000 N 
ATOM     31  C   UNL     1      49.207   6.514  15.827  0.00  0.00    +0.000 A 
ATOM     32  O   UNL     1      49.114   6.718  14.621  0.00  0.00    +0.000 OA
ATOM     33  C   UNL     1      48.587   5.398  16.516  0.00  0.00    +0.000 A 
ATOM     34  H   UNL     1      50.397   8.121  16.180  0.00  0.00    +0.000 HD
ENDBRANCH  21  24
ENDBRANCH   2  20
TORSDOF 6
ENDMDL
MODEL 8
REMARK VINA RESULT:    -7.238      4.464      7.107
REMARK INTER + INTRA:         -10.324
REMARK INTER:                  -9.221
REMARK INTRA:                  -1.103
REMARK UNBOUND:                -0.548
REMARK  Name = 
REMARK  7 active torsions:
REMARK  status: ('A' for Active; 'I' for Inactive)
REMARK    1  A    between atoms: C_1  and  C_2
REMARK    2  A    between atoms: C_2  and  N_3
REMARK    3  A    between atoms: C_2  and  C_16
REMARK    4  A    between atoms: C_4  and  C_6
REMARK    5  A    between atoms: C_19  and  C_20
REMARK    6  A    between atoms: C_20  and  N_21
REMARK    7  A    between atoms: C_22  and  C_24
REMARK                            x       y       z     vdW  Elec       q    Type
REMARK                         _______ _______ _______ _____ _____    ______ ____
ROOT
ATOM      1  C   UNL     1      45.175   4.561  12.774  0.00  0.00    +0.000 C 
ATOM      2  C   UNL     1      46.150   5.742  12.745  0.00  0.00    +0.000 C 
ENDROOT
BRANCH   2   3
ATOM      3  C   UNL     1      45.548   7.055  12.258  0.00  0.00    +0.000 A 
ATOM      4  C   UNL     1      46.130   8.260  12.684  0.00  0.00    +0.000 A 
ATOM      5  C   UNL     1      45.601   9.497  12.299  0.00  0.00    +0.000 A 
ATOM      6  C   UNL     1      44.462   9.566  11.491  0.00  0.00    +0.000 A 
ATOM      7  C   UNL     1      43.880   8.369  11.055  0.00  0.00    +0.000 A 
ATOM      8  C   UNL     1      44.407   7.129  11.445  0.00  0.00    +0.000 A 
BRANCH   6   9
ATOM      9  C   UNL     1      43.872  10.900  11.113  0.00  0.00    +0.000 C 
BRANCH   9  10
ATOM     10  N   UNL     1      42.754  11.267  11.943  0.00  0.00    +0.000 N 
ATOM     11  C   UNL     1      41.454  11.101  11.515  0.00  0.00    +0.000 C 
ATOM     12  O   UNL     1      41.150  10.640  10.419  0.00  0.00    +0.000 OA
ATOM     13  H   UNL     1      42.900  11.608  12.890  0.00  0.00    +0.000 HD
BRANCH  11  14
ATOM     14  C   UNL     1      40.408  11.528  12.489  0.00  0.00    +0.000 A 
ATOM     15  C   UNL     1      39.063  11.357  12.188  0.00  0.00    +0.000 A 
ATOM     16  N   UNL     1      38.076  11.747  13.037  0.00  0.00    +0.000 NA
ATOM     17  C   UNL     1      38.495  12.315  14.190  0.00  0.00    +0.000 A 
ATOM     18  C   UNL     1      39.839  12.483  14.489  0.00  0.00    +0.000 A 
ATOM     19  N   UNL     1      40.833  12.093  13.655  0.00  0.00    +0.000 NA
ENDBRANCH  11  14
ENDBRANCH   9  10
ENDBRANCH   6   9
ENDBRANCH   2   3
BRANCH   2  20
ATOM     20  N   UNL     1      46.742   5.943  14.056  0.00  0.00    +0.000 N 
ATOM     21  C   UNL     1      48.097   6.042  14.248  0.00  0.00    +0.000 C 
ATOM     22  O   UNL     1      48.896   6.082  13.318  0.00  0.00    +0.000 OA
ATOM     23  H   UNL     1      46.142   5.749  14.850  0.00  0.00    +0.000 HD
BRANCH  21  24
ATOM     24  C   UNL     1      48.541   6.154  15.642  0.00  0.00    +0.000 A 
ATOM     25  C   UNL     1      49.277   7.257  16.054  0.00  0.00    +0.000 A 
ATOM     26  S   UNL     1      49.687   7.222  17.711  0.00  0.00    +0.000 S 
ATOM     27  C   UNL     1      48.949   5.702  17.918  0.00  0.00    +0.000 A 
ATOM     28  N   UNL     1      48.976   5.067  19.121  0.00  0.00    +0.000 NA
ATOM     29  C   UNL     1      48.416   3.904  19.122  0.00  0.00    +0.000 A 
ATOM     30  N   UNL     1      47.820   3.322  18.032  0.00  0.00    +0.000 N 
ATOM     31  C   UNL     1      47.720   3.948  16.814  0.00  0.00    +0.000 A 
ATOM     32  O   UNL     1      47.101   3.438  15.885  0.00  0.00    +0.000 OA
ATOM     33  C   UNL     1      48.367   5.244  16.749  0.00  0.00    +0.000 A 
ATOM     34  H   UNL     1      47.380   2.417  18.104  0.00  0.00    +0.000 HD
ENDBRANCH  21  24
ENDBRANCH   2  20
TORSDOF 6
ENDMDL
MODEL 9
REMARK VINA RESULT:    -7.221      3.321      5.704
REMARK INTER + INTRA:         -10.301
REMARK INTER:                 -10.410
REMARK INTRA:                   0.108
REMARK UNBOUND:                -0.548
REMARK  Name = 
REMARK  7 active torsions:
REMARK  status: ('A' for Active; 'I' for Inactive)
REMARK    1  A    between atoms: C_1  and  C_2
REMARK    2  A    between atoms: C_2  and  N_3
REMARK    3  A    between atoms: C_2  and  C_16
REMARK    4  A    between atoms: C_4  and  C_6
REMARK    5  A    between atoms: C_19  and  C_20
REMARK    6  A    between atoms: C_20  and  N_21
REMARK    7  A    between atoms: C_22  and  C_24
REMARK                            x       y       z     vdW  Elec       q    Type
REMARK                         _______ _______ _______ _____ _____    ______ ____
ROOT
ATOM      1  C   UNL     1      43.625   4.660   9.672  0.00  0.00    +0.000 C 
ATOM      2  C   UNL     1      44.745   3.686  10.048  0.00  0.00    +0.000 C 
ENDROOT
BRANCH   2   3
ATOM      3  C   UNL     1      45.519   3.115   8.867  0.00  0.00    +0.000 A 
ATOM      4  C   UNL     1      45.877   3.978   7.817  0.00  0.00    +0.000 A 
ATOM      5  C   UNL     1      46.557   3.506   6.690  0.00  0.00    +0.000 A 
ATOM      6  C   UNL     1      46.883   2.151   6.568  0.00  0.00    +0.000 A 
ATOM      7  C   UNL     1      46.537   1.285   7.612  0.00  0.00    +0.000 A 
ATOM      8  C   UNL     1      45.851   1.758   8.741  0.00  0.00    +0.000 A 
BRANCH   6   9
ATOM      9  C   UNL     1      47.579   1.640   5.333  0.00  0.00    +0.000 C 
BRANCH   9  10
ATOM     10  N   UNL     1      47.290   0.255   5.068  0.00  0.00    +0.000 N 
ATOM     11  C   UNL     1      47.043  -0.198   3.789  0.00  0.00    +0.000 C 
ATOM     12  O   UNL     1      47.048   0.524   2.796  0.00  0.00    +0.000 OA
ATOM     13  H   UNL     1      47.314  -0.434   5.816  0.00  0.00    +0.000 HD
BRANCH  11  14
ATOM     14  C   UNL     1      46.758  -1.658   3.678  0.00  0.00    +0.000 A 
ATOM     15  C   UNL     1      46.709  -2.447   4.820  0.00  0.00    +0.000 A 
ATOM     16  N   UNL     1      46.469  -3.784   4.765  0.00  0.00    +0.000 NA
ATOM     17  C   UNL     1      46.288  -4.290   3.524  0.00  0.00    +0.000 A 
ATOM     18  C   UNL     1      46.337  -3.499   2.386  0.00  0.00    +0.000 A 
ATOM     19  N   UNL     1      46.567  -2.165   2.426  0.00  0.00    +0.000 NA
ENDBRANCH  11  14
ENDBRANCH   9  10
ENDBRANCH   6   9
ENDBRANCH   2   3
BRANCH   2  20
ATOM     20  N   UNL     1      45.674   4.315  10.971  0.00  0.00    +0.000 N 
ATOM     21  C   UNL     1      45.660   5.662  11.232  0.00  0.00    +0.000 C 
ATOM     22  O   UNL     1      44.793   6.412  10.793  0.00  0.00    +0.000 OA
ATOM     23  H   UNL     1      46.493   3.772  11.218  0.00  0.00    +0.000 HD
BRANCH  21  24
ATOM     24  C   UNL     1      46.719   6.156  12.120  0.00  0.00    +0.000 A 
ATOM     25  C   UNL     1      47.605   7.127  11.676  0.00  0.00    +0.000 A 
ATOM     26  S   UNL     1      48.754   7.590  12.852  0.00  0.00    +0.000 S 
ATOM     27  C   UNL     1      48.142   6.463  13.972  0.00  0.00    +0.000 A 
ATOM     28  N   UNL     1      48.713   6.312  15.197  0.00  0.00    +0.000 NA
ATOM     29  C   UNL     1      48.174   5.392  15.926  0.00  0.00    +0.000 A 
ATOM     30  N   UNL     1      47.108   4.618  15.546  0.00  0.00    +0.000 N 
ATOM     31  C   UNL     1      46.465   4.772  14.342  0.00  0.00    +0.000 A 
ATOM     32  O   UNL     1      45.459   4.126  14.070  0.00  0.00    +0.000 OA
ATOM     33  C   UNL     1      47.056   5.769  13.469  0.00  0.00    +0.000 A 
ATOM     34  H   UNL     1      46.719   3.929  16.172  0.00  0.00    +0.000 HD
ENDBRANCH  21  24
ENDBRANCH   2  20
TORSDOF 6
ENDMDL
