MODEL 1
REMARK VINA RESULT:    -7.333      0.000      0.000
REMARK INTER + INTRA:         -13.524
REMARK INTER:                 -12.263
REMARK INTRA:                  -1.261
REMARK UNBOUND:                -1.261
REMARK  Name = 
REMARK  12 active torsions:
REMARK  status: ('A' for Active; 'I' for Inactive)
REMARK    1  A    between atoms: C_2  and  C_3
REMARK    2  A    between atoms: C_3  and  N_4
REMARK    3  A    between atoms: C_3  and  C_12
REMARK    4  A    between atoms: N_4  and  C_5
REMARK    5  A    between atoms: C_5  and  C_6
REMARK    6  A    between atoms: C_15  and  C_16
REMARK    7  A    between atoms: C_16  and  N_17
REMARK    8  A    between atoms: N_17  and  C_18
REMARK    9  A    between atoms: N_17  and  C_21
REMARK   10  A    between atoms: C_18  and  C_19
REMARK   11  A    between atoms: C_19  and  O_20
REMARK   12  A    between atoms: C_21  and  C_22
REMARK                            x       y       z     vdW  Elec       q    Type
REMARK                         _______ _______ _______ _____ _____    ______ ____
ROOT
ATOM      1  C   UNL     1      45.143   5.859  11.476  0.00  0.00    +0.000 A 
ATOM      2  C   UNL     1      46.024   5.188  12.343  0.00  0.00    +0.000 A 
ATOM      3  C   UNL     1      46.803   5.892  13.265  0.00  0.00    +0.000 A 
ATOM      4  C   UNL     1      46.755   7.290  13.319  0.00  0.00    +0.000 A 
ATOM      5  C   UNL     1      45.821   7.960  12.525  0.00  0.00    +0.000 A 
ATOM      6  C   UNL     1      45.020   7.253  11.621  0.00  0.00    +0.000 A 
ENDROOT
BRANCH   1   7
ATOM      7  C   UNL     1      44.428   5.078  10.365  0.00  0.00    +0.000 C 
BRANCH   7   9
ATOM      8  N   UNL     1      43.353   2.817  11.252  0.00  0.00    +0.000 NA
ATOM      9  C   UNL     1      43.816   3.810  10.848  0.00  0.00    +0.000 C 
ENDBRANCH   7   9
BRANCH   7  10
ATOM     10  N   UNL     1      45.318   4.880   9.195  0.00  0.00    +0.000 NA
ATOM     11  H   UNL     1      45.407   5.766   8.699  0.00  0.00    +0.000 HD
BRANCH  10  12
ATOM     12  C   UNL     1      44.777   3.889   8.260  0.00  0.00    +0.000 C 
BRANCH  12  13
ATOM     13  C   UNL     1      45.855   2.988   7.716  0.00  0.00    +0.000 A 
ATOM     14  C   UNL     1      46.034   1.700   8.231  0.00  0.00    +0.000 A 
ATOM     15  C   UNL     1      46.990   0.879   7.655  0.00  0.00    +0.000 A 
ATOM     16  N   UNL     1      47.769   1.249   6.616  0.00  0.00    +0.000 NA
ATOM     17  C   UNL     1      47.582   2.495   6.133  0.00  0.00    +0.000 A 
ATOM     18  C   UNL     1      46.652   3.390   6.641  0.00  0.00    +0.000 A 
ENDBRANCH  12  13
ENDBRANCH  10  12
ENDBRANCH   7  10
ENDBRANCH   1   7
BRANCH   4  19
ATOM     19  C   UNL     1      47.719   8.060  14.199  0.00  0.00    +0.000 C 
BRANCH  19  20
ATOM     20  N   UNL     1      48.785   7.211  14.812  0.00  0.00    +0.000 NA
BRANCH  20  21
ATOM     21  C   UNL     1      50.121   7.652  14.327  0.00  0.00    +0.000 C 
BRANCH  21  22
ATOM     22  C   UNL     1      50.196   8.140  12.867  0.00  0.00    +0.000 C 
BRANCH  22  23
ATOM     23  O   UNL     1      50.229   7.062  11.938  0.00  0.00    +0.000 OA
ATOM     24  H   UNL     1      50.334   6.249  12.463  0.00  0.00    +0.000 HD
ENDBRANCH  22  23
ENDBRANCH  21  22
ENDBRANCH  20  21
BRANCH  20  25
ATOM     25  C   UNL     1      48.706   7.279  16.289  0.00  0.00    +0.000 C 
BRANCH  25  26
ATOM     26  C   UNL     1      49.641   6.262  16.892  0.00  0.00    +0.000 A 
ATOM     27  C   UNL     1      50.905   6.556  17.383  0.00  0.00    +0.000 A 
ATOM     28  S   UNL     1      51.798   5.160  17.799  0.00  0.00    +0.000 S 
ATOM     29  C   UNL     1      50.516   4.133  17.348  0.00  0.00    +0.000 A 
ATOM     30  N   UNL     1      50.650   2.779  17.349  0.00  0.00    +0.000 NA
ATOM     31  C   UNL     1      49.602   2.143  16.944  0.00  0.00    +0.000 A 
ATOM     32  N   UNL     1      48.413   2.730  16.586  0.00  0.00    +0.000 N 
ATOM     33  C   UNL     1      48.199   4.086  16.669  0.00  0.00    +0.000 A 
ATOM     34  O   UNL     1      47.086   4.576  16.512  0.00  0.00    +0.000 OA
ATOM     35  C   UNL     1      49.392   4.847  16.984  0.00  0.00    +0.000 A 
ATOM     36  H   UNL     1      47.609   2.166  16.351  0.00  0.00    +0.000 HD
ENDBRANCH  25  26
ENDBRANCH  20  25
ENDBRANCH  19  20
ENDBRANCH   4  19
TORSDOF 12
ENDMDL
MODEL 2
REMARK VINA RESULT:    -7.077      1.417      1.852
REMARK INTER + INTRA:         -13.095
REMARK INTER:                 -11.896
REMARK INTRA:                  -1.199
REMARK UNBOUND:                -1.261
REMARK  Name = 
REMARK  12 active torsions:
REMARK  status: ('A' for Active; 'I' for Inactive)
REMARK    1  A    between atoms: C_2  and  C_3
REMARK    2  A    between atoms: C_3  and  N_4
REMARK    3  A    between atoms: C_3  and  C_12
REMARK    4  A    between atoms: N_4  and  C_5
REMARK    5  A    between atoms: C_5  and  C_6
REMARK    6  A    between atoms: C_15  and  C_16
REMARK    7  A    between atoms: C_16  and  N_17
REMARK    8  A    between atoms: N_17  and  C_18
REMARK    9  A    between atoms: N_17  and  C_21
REMARK   10  A    between atoms: C_18  and  C_19
REMARK   11  A    between atoms: C_19  and  O_20
REMARK   12  A    between atoms: C_21  and  C_22
REMARK                            x       y       z     vdW  Elec       q    Type
REMARK                         _______ _______ _______ _____ _____    ______ ____
ROOT
ATOM      1  C   UNL     1      44.954   5.792  11.536  0.00  0.00    +0.000 A 
ATOM      2  C   UNL     1      45.860   5.142  12.393  0.00  0.00    +0.000 A 
ATOM      3  C   UNL     1      46.694   5.870  13.245  0.00  0.00    +0.000 A 
ATOM      4  C   UNL     1      46.678   7.269  13.235  0.00  0.00    +0.000 A 
ATOM      5  C   UNL     1      45.722   7.924  12.452  0.00  0.00    +0.000 A 
ATOM      6  C   UNL     1      44.867   7.194  11.620  0.00  0.00    +0.000 A 
ENDROOT
BRANCH   1   7
ATOM      7  C   UNL     1      44.173   4.978  10.496  0.00  0.00    +0.000 C 
BRANCH   7   9
ATOM      8  N   UNL     1      43.242   2.680  11.449  0.00  0.00    +0.000 NA
ATOM      9  C   UNL     1      43.666   3.685  11.033  0.00  0.00    +0.000 C 
ENDBRANCH   7   9
BRANCH   7  10
ATOM     10  N   UNL     1      44.956   4.815   9.246  0.00  0.00    +0.000 NA
ATOM     11  H   UNL     1      44.800   5.631   8.655  0.00  0.00    +0.000 HD
BRANCH  10  12
ATOM     12  C   UNL     1      44.545   3.625   8.496  0.00  0.00    +0.000 C 
BRANCH  12  13
ATOM     13  C   UNL     1      45.733   2.851   7.985  0.00  0.00    +0.000 A 
ATOM     14  C   UNL     1      45.863   1.485   8.256  0.00  0.00    +0.000 A 
ATOM     15  C   UNL     1      46.932   0.796   7.709  0.00  0.00    +0.000 A 
ATOM     16  N   UNL     1      47.869   1.366   6.921  0.00  0.00    +0.000 NA
ATOM     17  C   UNL     1      47.727   2.685   6.670  0.00  0.00    +0.000 A 
ATOM     18  C   UNL     1      46.691   3.460   7.171  0.00  0.00    +0.000 A 
ENDBRANCH  12  13
ENDBRANCH  10  12
ENDBRANCH   7  10
ENDBRANCH   1   7
BRANCH   4  19
ATOM     19  C   UNL     1      47.697   8.057  14.033  0.00  0.00    +0.000 C 
BRANCH  19  20
ATOM     20  N   UNL     1      48.851   7.238  14.514  0.00  0.00    +0.000 NA
BRANCH  20  21
ATOM     21  C   UNL     1      50.114   7.751  13.919  0.00  0.00    +0.000 C 
BRANCH  21  22
ATOM     22  C   UNL     1      50.032   8.271  12.470  0.00  0.00    +0.000 C 
BRANCH  22  23
ATOM     23  O   UNL     1      50.435   7.289  11.521  0.00  0.00    +0.000 OA
ATOM     24  H   UNL     1      51.409   7.286  11.524  0.00  0.00    +0.000 HD
ENDBRANCH  22  23
ENDBRANCH  21  22
ENDBRANCH  20  21
BRANCH  20  25
ATOM     25  C   UNL     1      48.911   7.258  15.993  0.00  0.00    +0.000 C 
BRANCH  25  26
ATOM     26  C   UNL     1      49.109   5.855  16.509  0.00  0.00    +0.000 A 
ATOM     27  C   UNL     1      48.094   4.919  16.639  0.00  0.00    +0.000 A 
ATOM     28  S   UNL     1      48.596   3.503  17.452  0.00  0.00    +0.000 S 
ATOM     29  C   UNL     1      50.181   4.099  17.636  0.00  0.00    +0.000 A 
ATOM     30  N   UNL     1      51.119   3.423  18.353  0.00  0.00    +0.000 NA
ATOM     31  C   UNL     1      52.259   4.025  18.432  0.00  0.00    +0.000 A 
ATOM     32  N   UNL     1      52.566   5.215  17.820  0.00  0.00    +0.000 N 
ATOM     33  C   UNL     1      51.682   5.880  17.001  0.00  0.00    +0.000 A 
ATOM     34  O   UNL     1      52.025   6.845  16.328  0.00  0.00    +0.000 OA
ATOM     35  C   UNL     1      50.348   5.312  16.999  0.00  0.00    +0.000 A 
ATOM     36  H   UNL     1      53.502   5.592  17.863  0.00  0.00    +0.000 HD
ENDBRANCH  25  26
ENDBRANCH  20  25
ENDBRANCH  19  20
ENDBRANCH   4  19
TORSDOF 12
ENDMDL
MODEL 3
REMARK VINA RESULT:    -7.050      1.791      2.293
REMARK INTER + INTRA:         -13.050
REMARK INTER:                 -12.144
REMARK INTRA:                  -0.907
REMARK UNBOUND:                -1.261
REMARK  Name = 
REMARK  12 active torsions:
REMARK  status: ('A' for Active; 'I' for Inactive)
REMARK    1  A    between atoms: C_2  and  C_3
REMARK    2  A    between atoms: C_3  and  N_4
REMARK    3  A    between atoms: C_3  and  C_12
REMARK    4  A    between atoms: N_4  and  C_5
REMARK    5  A    between atoms: C_5  and  C_6
REMARK    6  A    between atoms: C_15  and  C_16
REMARK    7  A    between atoms: C_16  and  N_17
REMARK    8  A    between atoms: N_17  and  C_18
REMARK    9  A    between atoms: N_17  and  C_21
REMARK   10  A    between atoms: C_18  and  C_19
REMARK   11  A    between atoms: C_19  and  O_20
REMARK   12  A    between atoms: C_21  and  C_22
REMARK                            x       y       z     vdW  Elec       q    Type
REMARK                         _______ _______ _______ _____ _____    ______ ____
ROOT
ATOM      1  C   UNL     1      45.943   5.056  12.136  0.00  0.00    +0.000 A 
ATOM      2  C   UNL     1      46.608   6.262  11.847  0.00  0.00    +0.000 A 
ATOM      3  C   UNL     1      47.481   6.842  12.771  0.00  0.00    +0.000 A 
ATOM      4  C   UNL     1      47.683   6.257  14.026  0.00  0.00    +0.000 A 
ATOM      5  C   UNL     1      47.097   5.016  14.290  0.00  0.00    +0.000 A 
ATOM      6  C   UNL     1      46.245   4.420  13.355  0.00  0.00    +0.000 A 
ENDROOT
BRANCH   1   7
ATOM      7  C   UNL     1      44.867   4.532  11.176  0.00  0.00    +0.000 C 
BRANCH   7   9
ATOM      8  N   UNL     1      42.405   5.284  11.831  0.00  0.00    +0.000 NA
ATOM      9  C   UNL     1      43.492   4.956  11.559  0.00  0.00    +0.000 C 
ENDBRANCH   7   9
BRANCH   7  10
ATOM     10  N   UNL     1      44.987   3.065  10.990  0.00  0.00    +0.000 NA
ATOM     11  H   UNL     1      45.976   2.819  10.968  0.00  0.00    +0.000 HD
BRANCH  10  12
ATOM     12  C   UNL     1      44.382   2.624   9.730  0.00  0.00    +0.000 C 
BRANCH  12  13
ATOM     13  C   UNL     1      45.394   2.568   8.616  0.00  0.00    +0.000 A 
ATOM     14  C   UNL     1      45.705   3.714   7.877  0.00  0.00    +0.000 A 
ATOM     15  C   UNL     1      46.693   3.636   6.909  0.00  0.00    +0.000 A 
ATOM     16  N   UNL     1      47.382   2.509   6.630  0.00  0.00    +0.000 NA
ATOM     17  C   UNL     1      47.069   1.414   7.353  0.00  0.00    +0.000 A 
ATOM     18  C   UNL     1      46.097   1.392   8.342  0.00  0.00    +0.000 A 
ENDBRANCH  12  13
ENDBRANCH  10  12
ENDBRANCH   7  10
ENDBRANCH   1   7
BRANCH   4  19
ATOM     19  C   UNL     1      48.496   6.973  15.087  0.00  0.00    +0.000 C 
BRANCH  19  20
ATOM     20  N   UNL     1      49.536   6.114  15.730  0.00  0.00    +0.000 NA
BRANCH  20  21
ATOM     21  C   UNL     1      50.839   6.831  15.748  0.00  0.00    +0.000 C 
BRANCH  21  22
ATOM     22  C   UNL     1      50.778   8.369  15.827  0.00  0.00    +0.000 C 
BRANCH  22  23
ATOM     23  O   UNL     1      51.407   8.876  16.998  0.00  0.00    +0.000 OA
ATOM     24  H   UNL     1      50.812   8.671  17.741  0.00  0.00    +0.000 HD
ENDBRANCH  22  23
ENDBRANCH  21  22
ENDBRANCH  20  21
BRANCH  20  25
ATOM     25  C   UNL     1      49.115   5.741  17.100  0.00  0.00    +0.000 C 
BRANCH  25  26
ATOM     26  C   UNL     1      50.247   5.036  17.802  0.00  0.00    +0.000 A 
ATOM     27  C   UNL     1      51.163   5.664  18.634  0.00  0.00    +0.000 A 
ATOM     28  S   UNL     1      52.447   4.638  19.101  0.00  0.00    +0.000 S 
ATOM     29  C   UNL     1      51.804   3.331  18.218  0.00  0.00    +0.000 A 
ATOM     30  N   UNL     1      52.473   2.153  18.097  0.00  0.00    +0.000 NA
ATOM     31  C   UNL     1      51.872   1.276  17.364  0.00  0.00    +0.000 A 
ATOM     32  N   UNL     1      50.640   1.448  16.781  0.00  0.00    +0.000 N 
ATOM     33  C   UNL     1      49.883   2.581  16.963  0.00  0.00    +0.000 A 
ATOM     34  O   UNL     1      48.720   2.650  16.581  0.00  0.00    +0.000 OA
ATOM     35  C   UNL     1      50.580   3.643  17.661  0.00  0.00    +0.000 A 
ATOM     36  H   UNL     1      50.196   0.691  16.282  0.00  0.00    +0.000 HD
ENDBRANCH  25  26
ENDBRANCH  20  25
ENDBRANCH  19  20
ENDBRANCH   4  19
TORSDOF 12
ENDMDL
MODEL 4
REMARK VINA RESULT:    -7.004      1.803      2.401
REMARK INTER + INTRA:         -12.973
REMARK INTER:                 -11.565
REMARK INTRA:                  -1.408
REMARK UNBOUND:                -1.261
REMARK  Name = 
REMARK  12 active torsions:
REMARK  status: ('A' for Active; 'I' for Inactive)
REMARK    1  A    between atoms: C_2  and  C_3
REMARK    2  A    between atoms: C_3  and  N_4
REMARK    3  A    between atoms: C_3  and  C_12
REMARK    4  A    between atoms: N_4  and  C_5
REMARK    5  A    between atoms: C_5  and  C_6
REMARK    6  A    between atoms: C_15  and  C_16
REMARK    7  A    between atoms: C_16  and  N_17
REMARK    8  A    between atoms: N_17  and  C_18
REMARK    9  A    between atoms: N_17  and  C_21
REMARK   10  A    between atoms: C_18  and  C_19
REMARK   11  A    between atoms: C_19  and  O_20
REMARK   12  A    between atoms: C_21  and  C_22
REMARK                            x       y       z     vdW  Elec       q    Type
REMARK                         _______ _______ _______ _____ _____    ______ ____
ROOT
ATOM      1  C   UNL     1      44.906   6.170  11.437  0.00  0.00    +0.000 A 
ATOM      2  C   UNL     1      45.817   5.686  12.393  0.00  0.00    +0.000 A 
ATOM      3  C   UNL     1      46.494   6.560  13.249  0.00  0.00    +0.000 A 
ATOM      4  C   UNL     1      46.310   7.943  13.147  0.00  0.00    +0.000 A 
ATOM      5  C   UNL     1      45.344   8.428  12.262  0.00  0.00    +0.000 A 
ATOM      6  C   UNL     1      44.645   7.553  11.424  0.00  0.00    +0.000 A 
ENDROOT
BRANCH   1   7
ATOM      7  C   UNL     1      44.307   5.208  10.402  0.00  0.00    +0.000 C 
BRANCH   7   9
ATOM      8  N   UNL     1      43.164   3.085  11.518  0.00  0.00    +0.000 NA
ATOM      9  C   UNL     1      43.678   4.009  11.022  0.00  0.00    +0.000 C 
ENDBRANCH   7   9
BRANCH   7  10
ATOM     10  N   UNL     1      45.301   4.862   9.356  0.00  0.00    +0.000 NA
ATOM     11  H   UNL     1      45.548   5.711   8.848  0.00  0.00    +0.000 HD
BRANCH  10  12
ATOM     12  C   UNL     1      44.765   3.896   8.393  0.00  0.00    +0.000 C 
BRANCH  12  13
ATOM     13  C   UNL     1      45.842   2.995   7.849  0.00  0.00    +0.000 A 
ATOM     14  C   UNL     1      46.865   3.511   7.046  0.00  0.00    +0.000 A 
ATOM     15  C   UNL     1      47.875   2.663   6.625  0.00  0.00    +0.000 A 
ATOM     16  N   UNL     1      47.936   1.352   6.945  0.00  0.00    +0.000 NA
ATOM     17  C   UNL     1      46.941   0.872   7.721  0.00  0.00    +0.000 A 
ATOM     18  C   UNL     1      45.887   1.641   8.191  0.00  0.00    +0.000 A 
ENDBRANCH  12  13
ENDBRANCH  10  12
ENDBRANCH   7  10
ENDBRANCH   1   7
BRANCH   4  19
ATOM     19  C   UNL     1      47.166   8.895  13.959  0.00  0.00    +0.000 C 
BRANCH  19  20
ATOM     20  N   UNL     1      48.626   8.579  13.915  0.00  0.00    +0.000 NA
BRANCH  20  21
ATOM     21  C   UNL     1      49.187   8.973  12.595  0.00  0.00    +0.000 C 
BRANCH  21  22
ATOM     22  C   UNL     1      49.844   7.853  11.764  0.00  0.00    +0.000 C 
BRANCH  22  23
ATOM     23  O   UNL     1      49.828   6.600  12.439  0.00  0.00    +0.000 OA
ATOM     24  H   UNL     1      50.578   6.612  13.059  0.00  0.00    +0.000 HD
ENDBRANCH  22  23
ENDBRANCH  21  22
ENDBRANCH  20  21
BRANCH  20  25
ATOM     25  C   UNL     1      49.331   9.267  15.020  0.00  0.00    +0.000 C 
BRANCH  25  26
ATOM     26  C   UNL     1      48.703   8.885  16.336  0.00  0.00    +0.000 A 
ATOM     27  C   UNL     1      48.033   9.769  17.169  0.00  0.00    +0.000 A 
ATOM     28  S   UNL     1      47.628   9.081  18.680  0.00  0.00    +0.000 S 
ATOM     29  C   UNL     1      48.322   7.585  18.252  0.00  0.00    +0.000 A 
ATOM     30  N   UNL     1      48.417   6.562  19.143  0.00  0.00    +0.000 NA
ATOM     31  C   UNL     1      49.004   5.509  18.678  0.00  0.00    +0.000 A 
ATOM     32  N   UNL     1      49.458   5.364  17.390  0.00  0.00    +0.000 N 
ATOM     33  C   UNL     1      49.289   6.333  16.428  0.00  0.00    +0.000 A 
ATOM     34  O   UNL     1      49.543   6.124  15.247  0.00  0.00    +0.000 OA
ATOM     35  C   UNL     1      48.763   7.582  16.944  0.00  0.00    +0.000 A 
ATOM     36  H   UNL     1      49.840   4.485  17.073  0.00  0.00    +0.000 HD
ENDBRANCH  25  26
ENDBRANCH  20  25
ENDBRANCH  19  20
ENDBRANCH   4  19
TORSDOF 12
ENDMDL
MODEL 5
REMARK VINA RESULT:    -6.985      1.793      2.203
REMARK INTER + INTRA:         -12.942
REMARK INTER:                 -11.374
REMARK INTRA:                  -1.569
REMARK UNBOUND:                -1.261
REMARK  Name = 
REMARK  12 active torsions:
REMARK  status: ('A' for Active; 'I' for Inactive)
REMARK    1  A    between atoms: C_2  and  C_3
REMARK    2  A    between atoms: C_3  and  N_4
REMARK    3  A    between atoms: C_3  and  C_12
REMARK    4  A    between atoms: N_4  and  C_5
REMARK    5  A    between atoms: C_5  and  C_6
REMARK    6  A    between atoms: C_15  and  C_16
REMARK    7  A    between atoms: C_16  and  N_17
REMARK    8  A    between atoms: N_17  and  C_18
REMARK    9  A    between atoms: N_17  and  C_21
REMARK   10  A    between atoms: C_18  and  C_19
REMARK   11  A    between atoms: C_19  and  O_20
REMARK   12  A    between atoms: C_21  and  C_22
REMARK                            x       y       z     vdW  Elec       q    Type
REMARK                         _______ _______ _______ _____ _____    ______ ____
ROOT
ATOM      1  C   UNL     1      44.808   5.809  11.313  0.00  0.00    +0.000 A 
ATOM      2  C   UNL     1      44.590   6.643  12.424  0.00  0.00    +0.000 A 
ATOM      3  C   UNL     1      45.595   7.494  12.894  0.00  0.00    +0.000 A 
ATOM      4  C   UNL     1      46.858   7.505  12.293  0.00  0.00    +0.000 A 
ATOM      5  C   UNL     1      47.059   6.746  11.137  0.00  0.00    +0.000 A 
ATOM      6  C   UNL     1      46.045   5.915  10.649  0.00  0.00    +0.000 A 
ENDROOT
BRANCH   1   7
ATOM      7  C   UNL     1      43.750   4.768  10.924  0.00  0.00    +0.000 C 
BRANCH   7   9
ATOM      8  N   UNL     1      43.612   2.718  12.609  0.00  0.00    +0.000 NA
ATOM      9  C   UNL     1      43.678   3.629  11.881  0.00  0.00    +0.000 C 
ENDBRANCH   7   9
BRANCH   7  10
ATOM     10  N   UNL     1      43.924   4.329   9.518  0.00  0.00    +0.000 NA
ATOM     11  H   UNL     1      43.033   4.428   9.033  0.00  0.00    +0.000 HD
BRANCH  10  12
ATOM     12  C   UNL     1      44.333   2.924   9.432  0.00  0.00    +0.000 C 
BRANCH  12  13
ATOM     13  C   UNL     1      45.480   2.735   8.473  0.00  0.00    +0.000 A 
ATOM     14  C   UNL     1      46.075   1.480   8.312  0.00  0.00    +0.000 A 
ATOM     15  C   UNL     1      47.079   1.335   7.369  0.00  0.00    +0.000 A 
ATOM     16  N   UNL     1      47.525   2.340   6.585  0.00  0.00    +0.000 NA
ATOM     17  C   UNL     1      46.938   3.543   6.754  0.00  0.00    +0.000 A 
ATOM     18  C   UNL     1      45.926   3.789   7.671  0.00  0.00    +0.000 A 
ENDBRANCH  12  13
ENDBRANCH  10  12
ENDBRANCH   7  10
ENDBRANCH   1   7
BRANCH   4  19
ATOM     19  C   UNL     1      47.994   8.301  12.905  0.00  0.00    +0.000 C 
BRANCH  19  20
ATOM     20  N   UNL     1      48.947   7.473  13.706  0.00  0.00    +0.000 NA
BRANCH  20  21
ATOM     21  C   UNL     1      50.345   7.884  13.405  0.00  0.00    +0.000 C 
BRANCH  21  22
ATOM     22  C   UNL     1      50.639   8.314  11.954  0.00  0.00    +0.000 C 
BRANCH  22  23
ATOM     23  O   UNL     1      51.129   7.239  11.161  0.00  0.00    +0.000 OA
ATOM     24  H   UNL     1      51.210   7.581  10.253  0.00  0.00    +0.000 HD
ENDBRANCH  22  23
ENDBRANCH  21  22
ENDBRANCH  20  21
BRANCH  20  25
ATOM     25  C   UNL     1      48.652   7.607  15.150  0.00  0.00    +0.000 C 
BRANCH  25  26
ATOM     26  C   UNL     1      48.452   6.241  15.754  0.00  0.00    +0.000 A 
ATOM     27  C   UNL     1      47.660   5.248  15.197  0.00  0.00    +0.000 A 
ATOM     28  S   UNL     1      47.466   3.898  16.226  0.00  0.00    +0.000 S 
ATOM     29  C   UNL     1      48.445   4.600  17.431  0.00  0.00    +0.000 A 
ATOM     30  N   UNL     1      48.614   4.012  18.646  0.00  0.00    +0.000 NA
ATOM     31  C   UNL     1      49.353   4.687  19.462  0.00  0.00    +0.000 A 
ATOM     32  N   UNL     1      49.981   5.871  19.160  0.00  0.00    +0.000 N 
ATOM     33  C   UNL     1      49.923   6.447  17.913  0.00  0.00    +0.000 A 
ATOM     34  O   UNL     1      50.624   7.406  17.610  0.00  0.00    +0.000 OA
ATOM     35  C   UNL     1      48.992   5.796  17.012  0.00  0.00    +0.000 A 
ATOM     36  H   UNL     1      50.606   6.307  19.823  0.00  0.00    +0.000 HD
ENDBRANCH  25  26
ENDBRANCH  20  25
ENDBRANCH  19  20
ENDBRANCH   4  19
TORSDOF 12
ENDMDL
MODEL 6
REMARK VINA RESULT:    -6.826      1.802      2.352
REMARK INTER + INTRA:         -12.676
REMARK INTER:                 -11.794
REMARK INTRA:                  -0.882
REMARK UNBOUND:                -1.261
REMARK  Name = 
REMARK  12 active torsions:
REMARK  status: ('A' for Active; 'I' for Inactive)
REMARK    1  A    between atoms: C_2  and  C_3
REMARK    2  A    between atoms: C_3  and  N_4
REMARK    3  A    between atoms: C_3  and  C_12
REMARK    4  A    between atoms: N_4  and  C_5
REMARK    5  A    between atoms: C_5  and  C_6
REMARK    6  A    between atoms: C_15  and  C_16
REMARK    7  A    between atoms: C_16  and  N_17
REMARK    8  A    between atoms: N_17  and  C_18
REMARK    9  A    between atoms: N_17  and  C_21
REMARK   10  A    between atoms: C_18  and  C_19
REMARK   11  A    between atoms: C_19  and  O_20
REMARK   12  A    between atoms: C_21  and  C_22
REMARK                            x       y       z     vdW  Elec       q    Type
REMARK                         _______ _______ _______ _____ _____    ______ ____
ROOT
ATOM      1  C   UNL     1      45.914   6.687  11.780  0.00  0.00    +0.000 A 
ATOM      2  C   UNL     1      45.475   7.660  12.696  0.00  0.00    +0.000 A 
ATOM      3  C   UNL     1      46.379   8.531  13.309  0.00  0.00    +0.000 A 
ATOM      4  C   UNL     1      47.751   8.429  13.057  0.00  0.00    +0.000 A 
ATOM      5  C   UNL     1      48.189   7.526  12.085  0.00  0.00    +0.000 A 
ATOM      6  C   UNL     1      47.282   6.672  11.449  0.00  0.00    +0.000 A 
ENDROOT
BRANCH   1   7
ATOM      7  C   UNL     1      44.926   5.639  11.251  0.00  0.00    +0.000 C 
BRANCH   7   9
ATOM      8  N   UNL     1      44.997   3.385  12.656  0.00  0.00    +0.000 NA
ATOM      9  C   UNL     1      44.962   4.367  12.025  0.00  0.00    +0.000 C 
ENDBRANCH   7   9
BRANCH   7  10
ATOM     10  N   UNL     1      45.098   5.431   9.793  0.00  0.00    +0.000 NA
ATOM     11  H   UNL     1      44.681   6.220   9.300  0.00  0.00    +0.000 HD
BRANCH  10  12
ATOM     12  C   UNL     1      44.432   4.208   9.334  0.00  0.00    +0.000 C 
BRANCH  12  13
ATOM     13  C   UNL     1      45.365   3.330   8.540  0.00  0.00    +0.000 A 
ATOM     14  C   UNL     1      46.241   3.887   7.604  0.00  0.00    +0.000 A 
ATOM     15  C   UNL     1      47.131   3.053   6.946  0.00  0.00    +0.000 A 
ATOM     16  N   UNL     1      47.206   1.721   7.155  0.00  0.00    +0.000 NA
ATOM     17  C   UNL     1      46.353   1.203   8.063  0.00  0.00    +0.000 A 
ATOM     18  C   UNL     1      45.427   1.954   8.771  0.00  0.00    +0.000 A 
ENDBRANCH  12  13
ENDBRANCH  10  12
ENDBRANCH   7  10
ENDBRANCH   1   7
BRANCH   4  19
ATOM     19  C   UNL     1      48.743   9.260  13.847  0.00  0.00    +0.000 C 
BRANCH  19  20
ATOM     20  N   UNL     1      49.154   8.638  15.142  0.00  0.00    +0.000 NA
BRANCH  20  21
ATOM     21  C   UNL     1      48.083   8.833  16.156  0.00  0.00    +0.000 C 
BRANCH  21  22
ATOM     22  C   UNL     1      48.310   9.953  17.191  0.00  0.00    +0.000 C 
BRANCH  22  23
ATOM     23  O   UNL     1      47.969  11.237  16.681  0.00  0.00    +0.000 OA
ATOM     24  H   UNL     1      47.443  11.677  17.372  0.00  0.00    +0.000 HD
ENDBRANCH  22  23
ENDBRANCH  21  22
ENDBRANCH  20  21
BRANCH  20  25
ATOM     25  C   UNL     1      49.448   7.200  14.948  0.00  0.00    +0.000 C 
BRANCH  25  26
ATOM     26  C   UNL     1      49.385   6.488  16.275  0.00  0.00    +0.000 A 
ATOM     27  C   UNL     1      50.175   6.805  17.371  0.00  0.00    +0.000 A 
ATOM     28  S   UNL     1      50.021   5.680  18.648  0.00  0.00    +0.000 S 
ATOM     29  C   UNL     1      48.889   4.754  17.776  0.00  0.00    +0.000 A 
ATOM     30  N   UNL     1      48.417   3.570  18.251  0.00  0.00    +0.000 NA
ATOM     31  C   UNL     1      47.596   2.969  17.455  0.00  0.00    +0.000 A 
ATOM     32  N   UNL     1      47.161   3.466  16.251  0.00  0.00    +0.000 N 
ATOM     33  C   UNL     1      47.530   4.705  15.781  0.00  0.00    +0.000 A 
ATOM     34  O   UNL     1      47.003   5.206  14.794  0.00  0.00    +0.000 OA
ATOM     35  C   UNL     1      48.558   5.348  16.575  0.00  0.00    +0.000 A 
ATOM     36  H   UNL     1      46.459   2.977  15.715  0.00  0.00    +0.000 HD
ENDBRANCH  25  26
ENDBRANCH  20  25
ENDBRANCH  19  20
ENDBRANCH   4  19
TORSDOF 12
ENDMDL
MODEL 7
REMARK VINA RESULT:    -6.724      1.890      2.611
REMARK INTER + INTRA:         -12.504
REMARK INTER:                 -10.603
REMARK INTRA:                  -1.901
REMARK UNBOUND:                -1.261
REMARK  Name = 
REMARK  12 active torsions:
REMARK  status: ('A' for Active; 'I' for Inactive)
REMARK    1  A    between atoms: C_2  and  C_3
REMARK    2  A    between atoms: C_3  and  N_4
REMARK    3  A    between atoms: C_3  and  C_12
REMARK    4  A    between atoms: N_4  and  C_5
REMARK    5  A    between atoms: C_5  and  C_6
REMARK    6  A    between atoms: C_15  and  C_16
REMARK    7  A    between atoms: C_16  and  N_17
REMARK    8  A    between atoms: N_17  and  C_18
REMARK    9  A    between atoms: N_17  and  C_21
REMARK   10  A    between atoms: C_18  and  C_19
REMARK   11  A    between atoms: C_19  and  O_20
REMARK   12  A    between atoms: C_21  and  C_22
REMARK                            x       y       z     vdW  Elec       q    Type
REMARK                         _______ _______ _______ _____ _____    ______ ____
ROOT
ATOM      1  C   UNL     1      45.849   6.747  11.747  0.00  0.00    +0.000 A 
ATOM      2  C   UNL     1      47.231   6.498  11.834  0.00  0.00    +0.000 A 
ATOM      3  C   UNL     1      48.132   7.529  12.112  0.00  0.00    +0.000 A 
ATOM      4  C   UNL     1      47.684   8.845  12.270  0.00  0.00    +0.000 A 
ATOM      5  C   UNL     1      46.308   9.089  12.272  0.00  0.00    +0.000 A 
ATOM      6  C   UNL     1      45.403   8.053  12.022  0.00  0.00    +0.000 A 
ENDROOT
BRANCH   1   7
ATOM      7  C   UNL     1      44.904   5.633  11.276  0.00  0.00    +0.000 C 
BRANCH   7   9
ATOM      8  N   UNL     1      45.182   3.367  12.633  0.00  0.00    +0.000 NA
ATOM      9  C   UNL     1      45.076   4.366  12.039  0.00  0.00    +0.000 C 
ENDBRANCH   7   9
BRANCH   7  10
ATOM     10  N   UNL     1      44.996   5.440   9.808  0.00  0.00    +0.000 NA
ATOM     11  H   UNL     1      44.515   6.211   9.347  0.00  0.00    +0.000 HD
BRANCH  10  12
ATOM     12  C   UNL     1      44.360   4.190   9.382  0.00  0.00    +0.000 C 
BRANCH  12  13
ATOM     13  C   UNL     1      45.321   3.302   8.635  0.00  0.00    +0.000 A 
ATOM     14  C   UNL     1      45.342   1.923   8.865  0.00  0.00    +0.000 A 
ATOM     15  C   UNL     1      46.191   1.134   8.107  0.00  0.00    +0.000 A 
ATOM     16  N   UNL     1      47.009   1.618   7.147  0.00  0.00    +0.000 NA
ATOM     17  C   UNL     1      46.974   2.951   6.939  0.00  0.00    +0.000 A 
ATOM     18  C   UNL     1      46.159   3.823   7.646  0.00  0.00    +0.000 A 
ENDBRANCH  12  13
ENDBRANCH  10  12
ENDBRANCH   7  10
ENDBRANCH   1   7
BRANCH   4  19
ATOM     19  C   UNL     1      48.674   9.984  12.404  0.00  0.00    +0.000 C 
BRANCH  19  20
ATOM     20  N   UNL     1      50.070   9.539  12.698  0.00  0.00    +0.000 NA
BRANCH  20  21
ATOM     21  C   UNL     1      50.986  10.014  11.627  0.00  0.00    +0.000 C 
BRANCH  21  22
ATOM     22  C   UNL     1      51.848   8.942  10.932  0.00  0.00    +0.000 C 
BRANCH  22  23
ATOM     23  O   UNL     1      51.680   7.654  11.514  0.00  0.00    +0.000 OA
ATOM     24  H   UNL     1      52.573   7.281  11.621  0.00  0.00    +0.000 HD
ENDBRANCH  22  23
ENDBRANCH  21  22
ENDBRANCH  20  21
BRANCH  20  25
ATOM     25  C   UNL     1      50.497  10.039  14.025  0.00  0.00    +0.000 C 
BRANCH  25  26
ATOM     26  C   UNL     1      51.001   8.890  14.859  0.00  0.00    +0.000 A 
ATOM     27  C   UNL     1      52.338   8.545  14.990  0.00  0.00    +0.000 A 
ATOM     28  S   UNL     1      52.566   7.071  15.824  0.00  0.00    +0.000 S 
ATOM     29  C   UNL     1      50.889   6.867  16.043  0.00  0.00    +0.000 A 
ATOM     30  N   UNL     1      50.374   5.738  16.600  0.00  0.00    +0.000 NA
ATOM     31  C   UNL     1      49.084   5.718  16.661  0.00  0.00    +0.000 A 
ATOM     32  N   UNL     1      48.262   6.745  16.264  0.00  0.00    +0.000 N 
ATOM     33  C   UNL     1      48.743   7.944  15.794  0.00  0.00    +0.000 A 
ATOM     34  O   UNL     1      48.008   8.908  15.607  0.00  0.00    +0.000 OA
ATOM     35  C   UNL     1      50.177   7.953  15.579  0.00  0.00    +0.000 A 
ATOM     36  H   UNL     1      47.264   6.692  16.410  0.00  0.00    +0.000 HD
ENDBRANCH  25  26
ENDBRANCH  20  25
ENDBRANCH  19  20
ENDBRANCH   4  19
TORSDOF 12
ENDMDL
MODEL 8
REMARK VINA RESULT:    -6.501      3.894      7.924
REMARK INTER + INTRA:         -12.132
REMARK INTER:                  -9.736
REMARK INTRA:                  -2.396
REMARK UNBOUND:                -1.261
REMARK  Name = 
REMARK  12 active torsions:
REMARK  status: ('A' for Active; 'I' for Inactive)
REMARK    1  A    between atoms: C_2  and  C_3
REMARK    2  A    between atoms: C_3  and  N_4
REMARK    3  A    between atoms: C_3  and  C_12
REMARK    4  A    between atoms: N_4  and  C_5
REMARK    5  A    between atoms: C_5  and  C_6
REMARK    6  A    between atoms: C_15  and  C_16
REMARK    7  A    between atoms: C_16  and  N_17
REMARK    8  A    between atoms: N_17  and  C_18
REMARK    9  A    between atoms: N_17  and  C_21
REMARK   10  A    between atoms: C_18  and  C_19
REMARK   11  A    between atoms: C_19  and  O_20
REMARK   12  A    between atoms: C_21  and  C_22
REMARK                            x       y       z     vdW  Elec       q    Type
REMARK                         _______ _______ _______ _____ _____    ______ ____
ROOT
ATOM      1  C   UNL     1      48.843   7.500  17.372  0.00  0.00    +0.000 A 
ATOM      2  C   UNL     1      49.717   6.733  16.580  0.00  0.00    +0.000 A 
ATOM      3  C   UNL     1      49.935   7.047  15.237  0.00  0.00    +0.000 A 
ATOM      4  C   UNL     1      49.256   8.112  14.634  0.00  0.00    +0.000 A 
ATOM      5  C   UNL     1      48.454   8.933  15.431  0.00  0.00    +0.000 A 
ATOM      6  C   UNL     1      48.257   8.636  16.783  0.00  0.00    +0.000 A 
ENDROOT
BRANCH   1   7
ATOM      7  C   UNL     1      48.495   7.034  18.792  0.00  0.00    +0.000 C 
BRANCH   7   9
ATOM      8  N   UNL     1      48.503   9.019  20.557  0.00  0.00    +0.000 NA
ATOM      9  C   UNL     1      48.483   8.146  19.781  0.00  0.00    +0.000 C 
ENDBRANCH   7   9
BRANCH   7  10
ATOM     10  N   UNL     1      49.358   5.901  19.209  0.00  0.00    +0.000 NA
ATOM     11  H   UNL     1      50.054   5.737  18.482  0.00  0.00    +0.000 HD
BRANCH  10  12
ATOM     12  C   UNL     1      48.588   4.666  19.387  0.00  0.00    +0.000 C 
BRANCH  12  13
ATOM     13  C   UNL     1      48.838   3.688  18.270  0.00  0.00    +0.000 A 
ATOM     14  C   UNL     1      47.817   3.353  17.374  0.00  0.00    +0.000 A 
ATOM     15  C   UNL     1      48.107   2.504  16.319  0.00  0.00    +0.000 A 
ATOM     16  N   UNL     1      49.329   1.973  16.097  0.00  0.00    +0.000 NA
ATOM     17  C   UNL     1      50.301   2.307  16.971  0.00  0.00    +0.000 A 
ATOM     18  C   UNL     1      50.109   3.148  18.058  0.00  0.00    +0.000 A 
ENDBRANCH  12  13
ENDBRANCH  10  12
ENDBRANCH   7  10
ENDBRANCH   1   7
BRANCH   4  19
ATOM     19  C   UNL     1      49.365   8.348  13.141  0.00  0.00    +0.000 C 
BRANCH  19  20
ATOM     20  N   UNL     1      48.049   8.571  12.468  0.00  0.00    +0.000 NA
BRANCH  20  21
ATOM     21  C   UNL     1      48.095   9.833  11.681  0.00  0.00    +0.000 C 
BRANCH  21  22
ATOM     22  C   UNL     1      47.076  10.923  12.069  0.00  0.00    +0.000 C 
BRANCH  22  23
ATOM     23  O   UNL     1      45.867  10.375  12.582  0.00  0.00    +0.000 OA
ATOM     24  H   UNL     1      45.856  10.577  13.534  0.00  0.00    +0.000 HD
ENDBRANCH  22  23
ENDBRANCH  21  22
ENDBRANCH  20  21
BRANCH  20  25
ATOM     25  C   UNL     1      47.714   7.417  11.604  0.00  0.00    +0.000 C 
BRANCH  25  26
ATOM     26  C   UNL     1      46.799   6.478  12.348  0.00  0.00    +0.000 A 
ATOM     27  C   UNL     1      47.232   5.493  13.224  0.00  0.00    +0.000 A 
ATOM     28  S   UNL     1      45.973   4.460  13.737  0.00  0.00    +0.000 S 
ATOM     29  C   UNL     1      44.819   5.309  12.816  0.00  0.00    +0.000 A 
ATOM     30  N   UNL     1      43.531   4.882  12.714  0.00  0.00    +0.000 NA
ATOM     31  C   UNL     1      42.791   5.612  11.948  0.00  0.00    +0.000 A 
ATOM     32  N   UNL     1      43.203   6.759  11.315  0.00  0.00    +0.000 N 
ATOM     33  C   UNL     1      44.464   7.284  11.473  0.00  0.00    +0.000 A 
ATOM     34  O   UNL     1      44.762   8.392  11.042  0.00  0.00    +0.000 OA
ATOM     35  C   UNL     1      45.367   6.421  12.210  0.00  0.00    +0.000 A 
ATOM     36  H   UNL     1      42.549   7.322  10.790  0.00  0.00    +0.000 HD
ENDBRANCH  25  26
ENDBRANCH  20  25
ENDBRANCH  19  20
ENDBRANCH   4  19
TORSDOF 12
ENDMDL
MODEL 9
REMARK VINA RESULT:    -6.437      3.093      8.279
REMARK INTER + INTRA:         -12.025
REMARK INTER:                 -10.805
REMARK INTRA:                  -1.220
REMARK UNBOUND:                -1.261
REMARK  Name = 
REMARK  12 active torsions:
REMARK  status: ('A' for Active; 'I' for Inactive)
REMARK    1  A    between atoms: C_2  and  C_3
REMARK    2  A    between atoms: C_3  and  N_4
REMARK    3  A    between atoms: C_3  and  C_12
REMARK    4  A    between atoms: N_4  and  C_5
REMARK    5  A    between atoms: C_5  and  C_6
REMARK    6  A    between atoms: C_15  and  C_16
REMARK    7  A    between atoms: C_16  and  N_17
REMARK    8  A    between atoms: N_17  and  C_18
REMARK    9  A    between atoms: N_17  and  C_21
REMARK   10  A    between atoms: C_18  and  C_19
REMARK   11  A    between atoms: C_19  and  O_20
REMARK   12  A    between atoms: C_21  and  C_22
REMARK                            x       y       z     vdW  Elec       q    Type
REMARK                         _______ _______ _______ _____ _____    ______ ____
ROOT
ATOM      1  C   UNL     1      49.100   7.528  16.605  0.00  0.00    +0.000 A 
ATOM      2  C   UNL     1      48.556   8.811  16.413  0.00  0.00    +0.000 A 
ATOM      3  C   UNL     1      47.939   9.159  15.208  0.00  0.00    +0.000 A 
ATOM      4  C   UNL     1      47.885   8.249  14.146  0.00  0.00    +0.000 A 
ATOM      5  C   UNL     1      48.344   6.946  14.355  0.00  0.00    +0.000 A 
ATOM      6  C   UNL     1      48.936   6.588  15.570  0.00  0.00    +0.000 A 
ENDROOT
BRANCH   1   7
ATOM      7  C   UNL     1      49.916   7.230  17.869  0.00  0.00    +0.000 C 
BRANCH   7   9
ATOM      8  N   UNL     1      52.484   6.798  17.341  0.00  0.00    +0.000 NA
ATOM      9  C   UNL     1      51.360   6.997  17.586  0.00  0.00    +0.000 C 
ENDBRANCH   7   9
BRANCH   7  10
ATOM     10  N   UNL     1      49.299   6.135  18.657  0.00  0.00    +0.000 NA
ATOM     11  H   UNL     1      49.006   6.508  19.560  0.00  0.00    +0.000 HD
BRANCH  10  12
ATOM     12  C   UNL     1      50.243   5.041  18.903  0.00  0.00    +0.000 C 
BRANCH  12  13
ATOM     13  C   UNL     1      49.949   3.845  18.035  0.00  0.00    +0.000 A 
ATOM     14  C   UNL     1      48.676   3.660  17.486  0.00  0.00    +0.000 A 
ATOM     15  C   UNL     1      48.467   2.586  16.636  0.00  0.00    +0.000 A 
ATOM     16  N   UNL     1      49.426   1.696  16.301  0.00  0.00    +0.000 NA
ATOM     17  C   UNL     1      50.647   1.891  16.841  0.00  0.00    +0.000 A 
ATOM     18  C   UNL     1      50.955   2.935  17.701  0.00  0.00    +0.000 A 
ENDBRANCH  12  13
ENDBRANCH  10  12
ENDBRANCH   7  10
ENDBRANCH   1   7
BRANCH   4  19
ATOM     19  C   UNL     1      47.368   8.681  12.788  0.00  0.00    +0.000 C 
BRANCH  19  20
ATOM     20  N   UNL     1      46.075   8.039  12.403  0.00  0.00    +0.000 NA
BRANCH  20  21
ATOM     21  C   UNL     1      45.178   9.050  11.780  0.00  0.00    +0.000 C 
BRANCH  21  22
ATOM     22  C   UNL     1      45.777  10.450  11.545  0.00  0.00    +0.000 C 
BRANCH  22  23
ATOM     23  O   UNL     1      45.063  11.467  12.239  0.00  0.00    +0.000 OA
ATOM     24  H   UNL     1      45.715  11.938  12.787  0.00  0.00    +0.000 HD
ENDBRANCH  22  23
ENDBRANCH  21  22
ENDBRANCH  20  21
BRANCH  20  25
ATOM     25  C   UNL     1      46.320   6.905  11.484  0.00  0.00    +0.000 C 
BRANCH  25  26
ATOM     26  C   UNL     1      45.245   5.865  11.667  0.00  0.00    +0.000 A 
ATOM     27  C   UNL     1      44.455   5.747  12.801  0.00  0.00    +0.000 A 
ATOM     28  S   UNL     1      43.483   4.342  12.791  0.00  0.00    +0.000 S 
ATOM     29  C   UNL     1      44.082   3.866  11.269  0.00  0.00    +0.000 A 
ATOM     30  N   UNL     1      43.742   2.674  10.709  0.00  0.00    +0.000 NA
ATOM     31  C   UNL     1      44.310   2.443   9.572  0.00  0.00    +0.000 A 
ATOM     32  N   UNL     1      45.146   3.314   8.917  0.00  0.00    +0.000 N 
ATOM     33  C   UNL     1      45.433   4.571   9.396  0.00  0.00    +0.000 A 
ATOM     34  O   UNL     1      46.038   5.398   8.722  0.00  0.00    +0.000 OA
ATOM     35  C   UNL     1      44.930   4.814  10.734  0.00  0.00    +0.000 A 
ATOM     36  H   UNL     1      45.495   3.099   7.994  0.00  0.00    +0.000 HD
ENDBRANCH  25  26
ENDBRANCH  20  25
ENDBRANCH  19  20
ENDBRANCH   4  19
TORSDOF 12
ENDMDL
