MODEL 1
REMARK VINA RESULT:    -8.122      0.000      0.000
REMARK INTER + INTRA:         -10.615
REMARK INTER:                 -10.021
REMARK INTRA:                  -0.594
REMARK UNBOUND:                -0.594
REMARK  Name = 
REMARK  4 active torsions:
REMARK  status: ('A' for Active; 'I' for Inactive)
REMARK    1  A    between atoms: C_2  and  C_3
REMARK    2  A    between atoms: N_7  and  C_8
REMARK    3  A    between atoms: C_8  and  C_9
REMARK    4  A    between atoms: C_13  and  C_14
REMARK                            x       y       z     vdW  Elec       q    Type
REMARK                         _______ _______ _______ _____ _____    ______ ____
ROOT
ATOM      1  C   UNL     1      44.946   4.773  11.868  0.00  0.00    +0.000 A 
ATOM      2  C   UNL     1      45.288   4.091  13.035  0.00  0.00    +0.000 A 
ATOM      3  C   UNL     1      46.313   4.596  13.814  0.00  0.00    +0.000 A 
ATOM      4  N   UNL     1      46.989   5.728  13.525  0.00  0.00    +0.000 NA
ATOM      5  C   UNL     1      46.685   6.394  12.389  0.00  0.00    +0.000 A 
ATOM      6  C   UNL     1      45.664   5.935  11.546  0.00  0.00    +0.000 A 
ENDROOT
BRANCH   5   7
ATOM      7  C   UNL     1      47.444   7.644  12.125  0.00  0.00    +0.000 A 
ATOM      8  C   UNL     1      48.816   7.564  11.783  0.00  0.00    +0.000 A 
ATOM      9  C   UNL     1      49.587   8.698  11.504  0.00  0.00    +0.000 A 
ATOM     10  C   UNL     1      49.005   9.956  11.540  0.00  0.00    +0.000 A 
ATOM     11  C   UNL     1      47.659  10.077  11.870  0.00  0.00    +0.000 A 
ATOM     12  C   UNL     1      46.885   8.942  12.171  0.00  0.00    +0.000 A 
ATOM     13 CL   UNL     1      45.250   9.272  12.650  0.00  0.00    +0.000 Cl
ENDBRANCH   5   7
BRANCH   1  14
ATOM     14  C   UNL     1      43.808   4.298  10.990  0.00  0.00    +0.000 C 
BRANCH  14  19
ATOM     15  C   UNL     1      46.659   2.506   7.322  0.00  0.00    +0.000 A 
ATOM     16  C   UNL     1      45.939   1.936   8.343  0.00  0.00    +0.000 A 
ATOM     17  N   UNL     1      45.101   2.628   9.151  0.00  0.00    +0.000 NA
ATOM     18  C   UNL     1      44.966   3.942   8.913  0.00  0.00    +0.000 A 
ATOM     19  N   UNL     1      44.058   4.703   9.624  0.00  0.00    +0.000 N 
ATOM     20  N   UNL     1      45.652   4.591   7.961  0.00  0.00    +0.000 NA
ATOM     21  C   UNL     1      46.482   3.860   7.180  0.00  0.00    +0.000 A 
ATOM     22  H   UNL     1      44.290   5.678   9.480  0.00  0.00    +0.000 HD
BRANCH  15  24
ATOM     23  N   UNL     1      48.207   1.143   5.767  0.00  0.00    +0.000 NA
ATOM     24  C   UNL     1      47.510   1.750   6.465  0.00  0.00    +0.000 C 
ENDBRANCH  15  24
ENDBRANCH  14  19
ENDBRANCH   1  14
TORSDOF 4
ENDMDL
MODEL 2
REMARK VINA RESULT:    -7.137      2.167      3.794
REMARK INTER + INTRA:          -9.400
REMARK INTER:                  -9.289
REMARK INTRA:                  -0.112
REMARK UNBOUND:                -0.594
REMARK  Name = 
REMARK  4 active torsions:
REMARK  status: ('A' for Active; 'I' for Inactive)
REMARK    1  A    between atoms: C_2  and  C_3
REMARK    2  A    between atoms: N_7  and  C_8
REMARK    3  A    between atoms: C_8  and  C_9
REMARK    4  A    between atoms: C_13  and  C_14
REMARK                            x       y       z     vdW  Elec       q    Type
REMARK                         _______ _______ _______ _____ _____    ______ ____
ROOT
ATOM      1  C   UNL     1      45.708   5.233  11.982  0.00  0.00    +0.000 A 
ATOM      2  C   UNL     1      46.391   6.323  11.444  0.00  0.00    +0.000 A 
ATOM      3  C   UNL     1      47.408   6.892  12.189  0.00  0.00    +0.000 A 
ATOM      4  N   UNL     1      47.799   6.439  13.399  0.00  0.00    +0.000 NA
ATOM      5  C   UNL     1      47.137   5.395  13.945  0.00  0.00    +0.000 A 
ATOM      6  C   UNL     1      46.089   4.774  13.253  0.00  0.00    +0.000 A 
ENDROOT
BRANCH   5   7
ATOM      7  C   UNL     1      47.616   4.922  15.270  0.00  0.00    +0.000 A 
ATOM      8  C   UNL     1      47.360   3.586  15.664  0.00  0.00    +0.000 A 
ATOM      9  C   UNL     1      47.795   3.067  16.888  0.00  0.00    +0.000 A 
ATOM     10  C   UNL     1      48.523   3.866  17.757  0.00  0.00    +0.000 A 
ATOM     11  C   UNL     1      48.798   5.184  17.406  0.00  0.00    +0.000 A 
ATOM     12  C   UNL     1      48.344   5.715  16.186  0.00  0.00    +0.000 A 
ATOM     13 CL   UNL     1      48.691   7.397  15.942  0.00  0.00    +0.000 Cl
ENDBRANCH   5   7
BRANCH   1  14
ATOM     14  C   UNL     1      44.611   4.537  11.205  0.00  0.00    +0.000 C 
BRANCH  14  19
ATOM     15  C   UNL     1      46.672   2.433   7.190  0.00  0.00    +0.000 A 
ATOM     16  C   UNL     1      46.049   1.948   8.315  0.00  0.00    +0.000 A 
ATOM     17  N   UNL     1      45.422   2.731   9.224  0.00  0.00    +0.000 NA
ATOM     18  C   UNL     1      45.403   4.052   8.988  0.00  0.00    +0.000 A 
ATOM     19  N   UNL     1      44.702   4.911   9.811  0.00  0.00    +0.000 N 
ATOM     20  N   UNL     1      46.011   4.619   7.935  0.00  0.00    +0.000 NA
ATOM     21  C   UNL     1      46.630   3.798   7.054  0.00  0.00    +0.000 A 
ATOM     22  H   UNL     1      45.019   5.854   9.619  0.00  0.00    +0.000 HD
BRANCH  15  24
ATOM     23  N   UNL     1      47.798   0.891   5.451  0.00  0.00    +0.000 NA
ATOM     24  C   UNL     1      47.297   1.585   6.231  0.00  0.00    +0.000 C 
ENDBRANCH  15  24
ENDBRANCH  14  19
ENDBRANCH   1  14
TORSDOF 4
ENDMDL
MODEL 3
REMARK VINA RESULT:    -6.727      3.700      7.841
REMARK INTER + INTRA:          -8.894
REMARK INTER:                  -8.329
REMARK INTRA:                  -0.566
REMARK UNBOUND:                -0.594
REMARK  Name = 
REMARK  4 active torsions:
REMARK  status: ('A' for Active; 'I' for Inactive)
REMARK    1  A    between atoms: C_2  and  C_3
REMARK    2  A    between atoms: N_7  and  C_8
REMARK    3  A    between atoms: C_8  and  C_9
REMARK    4  A    between atoms: C_13  and  C_14
REMARK                            x       y       z     vdW  Elec       q    Type
REMARK                         _______ _______ _______ _____ _____    ______ ____
ROOT
ATOM      1  C   UNL     1      47.044   7.228  13.019  0.00  0.00    +0.000 A 
ATOM      2  C   UNL     1      46.192   8.330  12.975  0.00  0.00    +0.000 A 
ATOM      3  C   UNL     1      45.106   8.286  12.121  0.00  0.00    +0.000 A 
ATOM      4  N   UNL     1      44.803   7.226  11.342  0.00  0.00    +0.000 NA
ATOM      5  C   UNL     1      45.628   6.155  11.356  0.00  0.00    +0.000 A 
ATOM      6  C   UNL     1      46.753   6.133  12.190  0.00  0.00    +0.000 A 
ENDROOT
BRANCH   5   7
ATOM      7  C   UNL     1      45.243   5.006  10.495  0.00  0.00    +0.000 A 
ATOM      8  C   UNL     1      45.616   5.006   9.130  0.00  0.00    +0.000 A 
ATOM      9  C   UNL     1      45.302   3.951   8.266  0.00  0.00    +0.000 A 
ATOM     10  C   UNL     1      44.618   2.845   8.746  0.00  0.00    +0.000 A 
ATOM     11  C   UNL     1      44.236   2.805  10.083  0.00  0.00    +0.000 A 
ATOM     12  C   UNL     1      44.530   3.872  10.949  0.00  0.00    +0.000 A 
ATOM     13 CL   UNL     1      43.905   3.707  12.559  0.00  0.00    +0.000 Cl
ENDBRANCH   5   7
BRANCH   1  14
ATOM     14  C   UNL     1      48.229   7.192  13.960  0.00  0.00    +0.000 C 
BRANCH  14  19
ATOM     15  C   UNL     1      50.786   4.855  17.536  0.00  0.00    +0.000 A 
ATOM     16  C   UNL     1      51.026   5.953  16.746  0.00  0.00    +0.000 A 
ATOM     17  N   UNL     1      50.102   6.505  15.925  0.00  0.00    +0.000 NA
ATOM     18  C   UNL     1      48.883   5.945  15.908  0.00  0.00    +0.000 A 
ATOM     19  N   UNL     1      47.854   6.504  15.176  0.00  0.00    +0.000 N 
ATOM     20  N   UNL     1      48.566   4.853  16.620  0.00  0.00    +0.000 NA
ATOM     21  C   UNL     1      49.522   4.332  17.424  0.00  0.00    +0.000 A 
ATOM     22  H   UNL     1      47.121   5.812  15.091  0.00  0.00    +0.000 HD
BRANCH  15  24
ATOM     23  N   UNL     1      52.568   3.874  19.128  0.00  0.00    +0.000 NA
ATOM     24  C   UNL     1      51.766   4.311  18.417  0.00  0.00    +0.000 C 
ENDBRANCH  15  24
ENDBRANCH  14  19
ENDBRANCH   1  14
TORSDOF 4
ENDMDL
MODEL 4
REMARK VINA RESULT:    -6.219      3.575      8.082
REMARK INTER + INTRA:          -8.267
REMARK INTER:                  -7.582
REMARK INTRA:                  -0.685
REMARK UNBOUND:                -0.594
REMARK  Name = 
REMARK  4 active torsions:
REMARK  status: ('A' for Active; 'I' for Inactive)
REMARK    1  A    between atoms: C_2  and  C_3
REMARK    2  A    between atoms: N_7  and  C_8
REMARK    3  A    between atoms: C_8  and  C_9
REMARK    4  A    between atoms: C_13  and  C_14
REMARK                            x       y       z     vdW  Elec       q    Type
REMARK                         _______ _______ _______ _____ _____    ______ ____
ROOT
ATOM      1  C   UNL     1      47.830   7.394  13.122  0.00  0.00    +0.000 A 
ATOM      2  C   UNL     1      47.017   8.498  13.375  0.00  0.00    +0.000 A 
ATOM      3  C   UNL     1      45.756   8.528  12.808  0.00  0.00    +0.000 A 
ATOM      4  N   UNL     1      45.251   7.538  12.041  0.00  0.00    +0.000 NA
ATOM      5  C   UNL     1      46.031   6.468  11.769  0.00  0.00    +0.000 A 
ATOM      6  C   UNL     1      47.324   6.373  12.302  0.00  0.00    +0.000 A 
ENDROOT
BRANCH   5   7
ATOM      7  C   UNL     1      45.425   5.395  10.937  0.00  0.00    +0.000 A 
ATOM      8  C   UNL     1      45.750   5.318   9.561  0.00  0.00    +0.000 A 
ATOM      9  C   UNL     1      45.231   4.326   8.722  0.00  0.00    +0.000 A 
ATOM     10  C   UNL     1      44.380   3.360   9.238  0.00  0.00    +0.000 A 
ATOM     11  C   UNL     1      44.038   3.400  10.586  0.00  0.00    +0.000 A 
ATOM     12  C   UNL     1      44.540   4.408  11.428  0.00  0.00    +0.000 A 
ATOM     13 CL   UNL     1      43.946   4.369  13.057  0.00  0.00    +0.000 Cl
ENDBRANCH   5   7
BRANCH   1  14
ATOM     14  C   UNL     1      49.206   7.278  13.742  0.00  0.00    +0.000 C 
BRANCH  14  19
ATOM     15  C   UNL     1      48.868   5.737  18.464  0.00  0.00    +0.000 A 
ATOM     16  C   UNL     1      49.431   5.218  17.324  0.00  0.00    +0.000 A 
ATOM     17  N   UNL     1      49.530   5.898  16.157  0.00  0.00    +0.000 NA
ATOM     18  C   UNL     1      49.061   7.156  16.138  0.00  0.00    +0.000 A 
ATOM     19  N   UNL     1      49.212   7.953  15.021  0.00  0.00    +0.000 N 
ATOM     20  N   UNL     1      48.467   7.735  17.192  0.00  0.00    +0.000 NA
ATOM     21  C   UNL     1      48.386   7.016  18.336  0.00  0.00    +0.000 A 
ATOM     22  H   UNL     1      48.584   8.742  15.115  0.00  0.00    +0.000 HD
BRANCH  15  24
ATOM     23  N   UNL     1      48.750   4.430  20.689  0.00  0.00    +0.000 NA
ATOM     24  C   UNL     1      48.805   5.012  19.690  0.00  0.00    +0.000 C 
ENDBRANCH  15  24
ENDBRANCH  14  19
ENDBRANCH   1  14
TORSDOF 4
ENDMDL
MODEL 5
REMARK VINA RESULT:    -5.855      3.596      6.958
REMARK INTER + INTRA:          -7.817
REMARK INTER:                  -7.397
REMARK INTRA:                  -0.420
REMARK UNBOUND:                -0.594
REMARK  Name = 
REMARK  4 active torsions:
REMARK  status: ('A' for Active; 'I' for Inactive)
REMARK    1  A    between atoms: C_2  and  C_3
REMARK    2  A    between atoms: N_7  and  C_8
REMARK    3  A    between atoms: C_8  and  C_9
REMARK    4  A    between atoms: C_13  and  C_14
REMARK                            x       y       z     vdW  Elec       q    Type
REMARK                         _______ _______ _______ _____ _____    ______ ____
ROOT
ATOM      1  C   UNL     1      46.153   5.101  12.826  0.00  0.00    +0.000 A 
ATOM      2  C   UNL     1      45.081   4.693  12.035  0.00  0.00    +0.000 A 
ATOM      3  C   UNL     1      44.414   5.649  11.290  0.00  0.00    +0.000 A 
ATOM      4  N   UNL     1      44.756   6.955  11.263  0.00  0.00    +0.000 NA
ATOM      5  C   UNL     1      45.781   7.373  12.038  0.00  0.00    +0.000 A 
ATOM      6  C   UNL     1      46.496   6.462  12.826  0.00  0.00    +0.000 A 
ENDROOT
BRANCH   5   7
ATOM      7  C   UNL     1      46.131   8.816  11.960  0.00  0.00    +0.000 A 
ATOM      8  C   UNL     1      45.095   9.781  11.939  0.00  0.00    +0.000 A 
ATOM      9  C   UNL     1      45.351  11.155  11.884  0.00  0.00    +0.000 A 
ATOM     10  C   UNL     1      46.659  11.614  11.867  0.00  0.00    +0.000 A 
ATOM     11  C   UNL     1      47.706  10.698  11.889  0.00  0.00    +0.000 A 
ATOM     12  C   UNL     1      47.453   9.315  11.924  0.00  0.00    +0.000 A 
ATOM     13 CL   UNL     1      48.864   8.308  11.855  0.00  0.00    +0.000 Cl
ENDBRANCH   5   7
BRANCH   1  14
ATOM     14  C   UNL     1      46.952   4.101  13.636  0.00  0.00    +0.000 C 
BRANCH  14  19
ATOM     15  C   UNL     1      48.896   4.534  18.199  0.00  0.00    +0.000 A 
ATOM     16  C   UNL     1      49.150   5.129  16.987  0.00  0.00    +0.000 A 
ATOM     17  N   UNL     1      48.379   4.957  15.888  0.00  0.00    +0.000 NA
ATOM     18  C   UNL     1      47.298   4.172  16.014  0.00  0.00    +0.000 A 
ATOM     19  N   UNL     1      46.404   4.022  14.972  0.00  0.00    +0.000 N 
ATOM     20  N   UNL     1      46.988   3.523  17.146  0.00  0.00    +0.000 NA
ATOM     21  C   UNL     1      47.790   3.721  18.219  0.00  0.00    +0.000 A 
ATOM     22  H   UNL     1      45.825   3.216  15.172  0.00  0.00    +0.000 HD
BRANCH  15  24
ATOM     23  N   UNL     1      50.357   4.941  20.290  0.00  0.00    +0.000 NA
ATOM     24  C   UNL     1      49.705   4.756  19.351  0.00  0.00    +0.000 C 
ENDBRANCH  15  24
ENDBRANCH  14  19
ENDBRANCH   1  14
TORSDOF 4
ENDMDL
MODEL 6
REMARK VINA RESULT:    -5.777      2.069      2.520
REMARK INTER + INTRA:          -7.722
REMARK INTER:                  -7.326
REMARK INTRA:                  -0.396
REMARK UNBOUND:                -0.594
REMARK  Name = 
REMARK  4 active torsions:
REMARK  status: ('A' for Active; 'I' for Inactive)
REMARK    1  A    between atoms: C_2  and  C_3
REMARK    2  A    between atoms: N_7  and  C_8
REMARK    3  A    between atoms: C_8  and  C_9
REMARK    4  A    between atoms: C_13  and  C_14
REMARK                            x       y       z     vdW  Elec       q    Type
REMARK                         _______ _______ _______ _____ _____    ______ ____
ROOT
ATOM      1  C   UNL     1      45.316   4.694  11.987  0.00  0.00    +0.000 A 
ATOM      2  C   UNL     1      45.406   3.342  12.315  0.00  0.00    +0.000 A 
ATOM      3  C   UNL     1      46.306   2.962  13.295  0.00  0.00    +0.000 A 
ATOM      4  N   UNL     1      47.088   3.828  13.973  0.00  0.00    +0.000 NA
ATOM      5  C   UNL     1      47.029   5.141  13.657  0.00  0.00    +0.000 A 
ATOM      6  C   UNL     1      46.147   5.597  12.668  0.00  0.00    +0.000 A 
ENDROOT
BRANCH   5   7
ATOM      7  C   UNL     1      47.896   6.056  14.444  0.00  0.00    +0.000 A 
ATOM      8  C   UNL     1      48.123   5.788  15.816  0.00  0.00    +0.000 A 
ATOM      9  C   UNL     1      48.940   6.596  16.613  0.00  0.00    +0.000 A 
ATOM     10  C   UNL     1      49.577   7.696  16.059  0.00  0.00    +0.000 A 
ATOM     11  C   UNL     1      49.382   7.992  14.713  0.00  0.00    +0.000 A 
ATOM     12  C   UNL     1      48.545   7.195  13.913  0.00  0.00    +0.000 A 
ATOM     13 CL   UNL     1      48.336   7.752  12.283  0.00  0.00    +0.000 Cl
ENDBRANCH   5   7
BRANCH   1  14
ATOM     14  C   UNL     1      44.324   5.183  10.953  0.00  0.00    +0.000 C 
BRANCH  14  19
ATOM     15  C   UNL     1      46.340   3.063   6.924  0.00  0.00    +0.000 A 
ATOM     16  C   UNL     1      45.227   2.808   7.687  0.00  0.00    +0.000 A 
ATOM     17  N   UNL     1      44.786   3.626   8.672  0.00  0.00    +0.000 NA
ATOM     18  C   UNL     1      45.479   4.754   8.889  0.00  0.00    +0.000 A 
ATOM     19  N   UNL     1      45.043   5.691   9.805  0.00  0.00    +0.000 N 
ATOM     20  N   UNL     1      46.596   5.071   8.217  0.00  0.00    +0.000 NA
ATOM     21  C   UNL     1      47.002   4.222   7.244  0.00  0.00    +0.000 A 
ATOM     22  H   UNL     1      45.814   6.318  10.000  0.00  0.00    +0.000 HD
BRANCH  15  24
ATOM     23  N   UNL     1      47.115   1.510   5.011  0.00  0.00    +0.000 NA
ATOM     24  C   UNL     1      46.765   2.202   5.871  0.00  0.00    +0.000 C 
ENDBRANCH  15  24
ENDBRANCH  14  19
ENDBRANCH   1  14
TORSDOF 4
ENDMDL
MODEL 7
REMARK VINA RESULT:    -5.684      4.319      6.770
REMARK INTER + INTRA:          -7.607
REMARK INTER:                  -7.034
REMARK INTRA:                  -0.573
REMARK UNBOUND:                -0.594
REMARK  Name = 
REMARK  4 active torsions:
REMARK  status: ('A' for Active; 'I' for Inactive)
REMARK    1  A    between atoms: C_2  and  C_3
REMARK    2  A    between atoms: N_7  and  C_8
REMARK    3  A    between atoms: C_8  and  C_9
REMARK    4  A    between atoms: C_13  and  C_14
REMARK                            x       y       z     vdW  Elec       q    Type
REMARK                         _______ _______ _______ _____ _____    ______ ____
ROOT
ATOM      1  C   UNL     1      48.449   8.236  15.536  0.00  0.00    +0.000 A 
ATOM      2  C   UNL     1      48.355   9.018  16.686  0.00  0.00    +0.000 A 
ATOM      3  C   UNL     1      48.660   8.437  17.903  0.00  0.00    +0.000 A 
ATOM      4  N   UNL     1      49.070   7.158  18.044  0.00  0.00    +0.000 NA
ATOM      5  C   UNL     1      49.149   6.378  16.944  0.00  0.00    +0.000 A 
ATOM      6  C   UNL     1      48.846   6.897  15.678  0.00  0.00    +0.000 A 
ENDROOT
BRANCH   5   7
ATOM      7  C   UNL     1      49.623   4.983  17.148  0.00  0.00    +0.000 A 
ATOM      8  C   UNL     1      48.703   3.914  17.031  0.00  0.00    +0.000 A 
ATOM      9  C   UNL     1      49.081   2.577  17.193  0.00  0.00    +0.000 A 
ATOM     10  C   UNL     1      50.405   2.261  17.460  0.00  0.00    +0.000 A 
ATOM     11  C   UNL     1      51.341   3.283  17.580  0.00  0.00    +0.000 A 
ATOM     12  C   UNL     1      50.961   4.629  17.439  0.00  0.00    +0.000 A 
ATOM     13 CL   UNL     1      52.227   5.784  17.708  0.00  0.00    +0.000 Cl
ENDBRANCH   5   7
BRANCH   1  14
ATOM     14  C   UNL     1      48.168   8.819  14.168  0.00  0.00    +0.000 C 
BRANCH  14  19
ATOM     15  C   UNL     1      45.164   6.047  11.324  0.00  0.00    +0.000 A 
ATOM     16  C   UNL     1      46.313   5.797  12.035  0.00  0.00    +0.000 A 
ATOM     17  N   UNL     1      46.888   6.691  12.874  0.00  0.00    +0.000 NA
ATOM     18  C   UNL     1      46.278   7.877  13.019  0.00  0.00    +0.000 A 
ATOM     19  N   UNL     1      46.742   8.808  13.928  0.00  0.00    +0.000 N 
ATOM     20  N   UNL     1      45.173   8.223  12.342  0.00  0.00    +0.000 NA
ATOM     21  C   UNL     1      44.634   7.299  11.511  0.00  0.00    +0.000 A 
ATOM     22  H   UNL     1      46.317   9.699  13.704  0.00  0.00    +0.000 HD
BRANCH  15  24
ATOM     23  N   UNL     1      44.073   4.294   9.773  0.00  0.00    +0.000 NA
ATOM     24  C   UNL     1      44.560   5.078  10.472  0.00  0.00    +0.000 C 
ENDBRANCH  15  24
ENDBRANCH  14  19
ENDBRANCH   1  14
TORSDOF 4
ENDMDL
MODEL 8
REMARK VINA RESULT:    -5.539      4.303      6.502
REMARK INTER + INTRA:          -7.428
REMARK INTER:                  -6.815
REMARK INTRA:                  -0.612
REMARK UNBOUND:                -0.594
REMARK  Name = 
REMARK  4 active torsions:
REMARK  status: ('A' for Active; 'I' for Inactive)
REMARK    1  A    between atoms: C_2  and  C_3
REMARK    2  A    between atoms: N_7  and  C_8
REMARK    3  A    between atoms: C_8  and  C_9
REMARK    4  A    between atoms: C_13  and  C_14
REMARK                            x       y       z     vdW  Elec       q    Type
REMARK                         _______ _______ _______ _____ _____    ______ ____
ROOT
ATOM      1  C   UNL     1      48.844   7.470  14.338  0.00  0.00    +0.000 A 
ATOM      2  C   UNL     1      49.002   8.845  14.509  0.00  0.00    +0.000 A 
ATOM      3  C   UNL     1      49.082   9.341  15.797  0.00  0.00    +0.000 A 
ATOM      4  N   UNL     1      49.042   8.569  16.905  0.00  0.00    +0.000 NA
ATOM      5  C   UNL     1      48.871   7.237  16.760  0.00  0.00    +0.000 A 
ATOM      6  C   UNL     1      48.773   6.664  15.485  0.00  0.00    +0.000 A 
ENDROOT
BRANCH   5   7
ATOM      7  C   UNL     1      48.853   6.428  18.007  0.00  0.00    +0.000 A 
ATOM      8  C   UNL     1      47.794   6.601  18.931  0.00  0.00    +0.000 A 
ATOM      9  C   UNL     1      47.703   5.863  20.116  0.00  0.00    +0.000 A 
ATOM     10  C   UNL     1      48.663   4.906  20.409  0.00  0.00    +0.000 A 
ATOM     11  C   UNL     1      49.718   4.703  19.526  0.00  0.00    +0.000 A 
ATOM     12  C   UNL     1      49.825   5.458  18.344  0.00  0.00    +0.000 A 
ATOM     13 CL   UNL     1      51.246   5.147  17.398  0.00  0.00    +0.000 Cl
ENDBRANCH   5   7
BRANCH   1  14
ATOM     14  C   UNL     1      48.789   6.856  12.956  0.00  0.00    +0.000 C 
BRANCH  14  19
ATOM     15  C   UNL     1      44.799   4.092  11.846  0.00  0.00    +0.000 A 
ATOM     16  C   UNL     1      45.728   4.072  12.857  0.00  0.00    +0.000 A 
ATOM     17  N   UNL     1      46.662   5.036  13.039  0.00  0.00    +0.000 NA
ATOM     18  C   UNL     1      46.652   6.069  12.184  0.00  0.00    +0.000 A 
ATOM     19  N   UNL     1      47.504   7.143  12.356  0.00  0.00    +0.000 N 
ATOM     20  N   UNL     1      45.805   6.158  11.147  0.00  0.00    +0.000 NA
ATOM     21  C   UNL     1      44.891   5.170  11.001  0.00  0.00    +0.000 A 
ATOM     22  H   UNL     1      47.520   7.669  11.492  0.00  0.00    +0.000 HD
BRANCH  15  24
ATOM     23  N   UNL     1      42.999   2.259  11.580  0.00  0.00    +0.000 NA
ATOM     24  C   UNL     1      43.805   3.082  11.695  0.00  0.00    +0.000 C 
ENDBRANCH  15  24
ENDBRANCH  14  19
ENDBRANCH   1  14
TORSDOF 4
ENDMDL
MODEL 9
REMARK VINA RESULT:    -5.435      3.938      8.725
REMARK INTER + INTRA:          -7.300
REMARK INTER:                  -6.744
REMARK INTRA:                  -0.556
REMARK UNBOUND:                -0.594
REMARK  Name = 
REMARK  4 active torsions:
REMARK  status: ('A' for Active; 'I' for Inactive)
REMARK    1  A    between atoms: C_2  and  C_3
REMARK    2  A    between atoms: N_7  and  C_8
REMARK    3  A    between atoms: C_8  and  C_9
REMARK    4  A    between atoms: C_13  and  C_14
REMARK                            x       y       z     vdW  Elec       q    Type
REMARK                         _______ _______ _______ _____ _____    ______ ____
ROOT
ATOM      1  C   UNL     1      47.092   7.207  13.030  0.00  0.00    +0.000 A 
ATOM      2  C   UNL     1      46.218   8.292  13.031  0.00  0.00    +0.000 A 
ATOM      3  C   UNL     1      45.112   8.245  12.202  0.00  0.00    +0.000 A 
ATOM      4  N   UNL     1      44.813   7.197  11.406  0.00  0.00    +0.000 NA
ATOM      5  C   UNL     1      45.658   6.143  11.377  0.00  0.00    +0.000 A 
ATOM      6  C   UNL     1      46.804   6.125  12.183  0.00  0.00    +0.000 A 
ENDROOT
BRANCH   5   7
ATOM      7  C   UNL     1      45.276   5.005  10.499  0.00  0.00    +0.000 A 
ATOM      8  C   UNL     1      45.689   5.005   9.145  0.00  0.00    +0.000 A 
ATOM      9  C   UNL     1      45.380   3.960   8.267  0.00  0.00    +0.000 A 
ATOM     10  C   UNL     1      44.660   2.865   8.721  0.00  0.00    +0.000 A 
ATOM     11  C   UNL     1      44.238   2.827  10.046  0.00  0.00    +0.000 A 
ATOM     12  C   UNL     1      44.528   3.884  10.926  0.00  0.00    +0.000 A 
ATOM     13 CL   UNL     1      43.853   3.724  12.517  0.00  0.00    +0.000 Cl
ENDBRANCH   5   7
BRANCH   1  14
ATOM     14  C   UNL     1      48.300   7.175  13.942  0.00  0.00    +0.000 C 
BRANCH  14  19
ATOM     15  C   UNL     1      49.146  10.606  17.449  0.00  0.00    +0.000 A 
ATOM     16  C   UNL     1      49.115   9.232  17.438  0.00  0.00    +0.000 A 
ATOM     17  N   UNL     1      49.007   8.491  16.310  0.00  0.00    +0.000 NA
ATOM     18  C   UNL     1      48.945   9.154  15.145  0.00  0.00    +0.000 A 
ATOM     19  N   UNL     1      48.934   8.475  13.942  0.00  0.00    +0.000 N 
ATOM     20  N   UNL     1      48.936  10.492  15.059  0.00  0.00    +0.000 NA
ATOM     21  C   UNL     1      49.042  11.193  16.213  0.00  0.00    +0.000 A 
ATOM     22  H   UNL     1      48.631   9.121  13.223  0.00  0.00    +0.000 HD
BRANCH  15  24
ATOM     23  N   UNL     1      49.412  11.985  19.617  0.00  0.00    +0.000 NA
ATOM     24  C   UNL     1      49.294  11.362  18.648  0.00  0.00    +0.000 C 
ENDBRANCH  15  24
ENDBRANCH  14  19
ENDBRANCH   1  14
TORSDOF 4
ENDMDL
