MODEL 1
REMARK VINA RESULT:    -8.762      0.000      0.000
REMARK INTER + INTRA:         -15.325
REMARK INTER:                 -13.884
REMARK INTRA:                  -1.441
REMARK UNBOUND:                -1.441
REMARK  Name = 
REMARK  13 active torsions:
REMARK  status: ('A' for Active; 'I' for Inactive)
REMARK    1  A    between atoms: C_1  and  C_2
REMARK    2  A    between atoms: C_2  and  O_3
REMARK    3  A    between atoms: O_3  and  C_4
REMARK    4  A    between atoms: C_6  and  C_7
REMARK    5  A    between atoms: C_11  and  C_12
REMARK    6  A    between atoms: C_12  and  O_13
REMARK    7  A    between atoms: O_13  and  C_14
REMARK    8  A    between atoms: C_17  and  C_18
REMARK    9  A    between atoms: C_18  and  C_19
REMARK   10  A    between atoms: C_18  and  C_20
REMARK   11  A    between atoms: C_20  and  O_21
REMARK   12  A    between atoms: O_21  and  C_22
REMARK   13  A    between atoms: C_25  and  C_26
REMARK                            x       y       z     vdW  Elec       q    Type
REMARK                         _______ _______ _______ _____ _____    ______ ____
ROOT
ATOM      1  C   UNL     1      46.998   3.967  13.917  0.00  0.00    +0.000 A 
ATOM      2  N   UNL     1      47.657   5.088  13.600  0.00  0.00    +0.000 NA
ATOM      3  C   UNL     1      47.004   5.976  12.831  0.00  0.00    +0.000 A 
ATOM      4  C   UNL     1      45.694   5.768  12.440  0.00  0.00    +0.000 A 
ATOM      5  C   UNL     1      45.085   4.584  12.808  0.00  0.00    +0.000 A 
ATOM      6  N   UNL     1      45.743   3.663  13.545  0.00  0.00    +0.000 NA
ENDROOT
BRANCH   3   7
ATOM      7  C   UNL     1      47.755   7.176  12.422  0.00  0.00    +0.000 A 
ATOM      8  C   UNL     1      47.136   8.426  12.268  0.00  0.00    +0.000 A 
ATOM      9  C   UNL     1      47.888   9.515  11.867  0.00  0.00    +0.000 A 
ATOM     10  N   UNL     1      49.204   9.454  11.591  0.00  0.00    +0.000 NA
ATOM     11  C   UNL     1      49.806   8.245  11.720  0.00  0.00    +0.000 A 
ATOM     12  C   UNL     1      49.124   7.105  12.140  0.00  0.00    +0.000 A 
BRANCH  11  13
ATOM     13  C   UNL     1      51.254   8.141  11.302  0.00  0.00    +0.000 C 
BRANCH  13  14
ATOM     14  O   UNL     1      51.436   7.327  10.137  0.00  0.00    +0.000 OA
ATOM     15  C   UNL     1      52.769   6.840  10.012  0.00  0.00    +0.000 C 
ENDBRANCH  13  14
ENDBRANCH  11  13
ENDBRANCH   3   7
BRANCH   5  16
ATOM     16  C   UNL     1      43.659   4.244  12.399  0.00  0.00    +0.000 C 
ATOM     17  C   UNL     1      42.946   5.524  11.942  0.00  0.00    +0.000 C 
BRANCH  16  18
ATOM     18  C   UNL     1      43.515   3.188  11.281  0.00  0.00    +0.000 C 
BRANCH  18  19
ATOM     19  O   UNL     1      43.555   3.803   9.984  0.00  0.00    +0.000 OA
BRANCH  19  20
ATOM     20  C   UNL     1      44.565   3.395   9.151  0.00  0.00    +0.000 A 
ATOM     21  C   UNL     1      45.273   4.222   8.279  0.00  0.00    +0.000 A 
ATOM     22  C   UNL     1      46.273   3.692   7.459  0.00  0.00    +0.000 A 
ATOM     23  C   UNL     1      46.584   2.330   7.507  0.00  0.00    +0.000 A 
ATOM     24  C   UNL     1      45.877   1.494   8.379  0.00  0.00    +0.000 A 
ATOM     25  C   UNL     1      44.872   2.030   9.195  0.00  0.00    +0.000 A 
BRANCH  23  26
ATOM     26  C   UNL     1      47.643   1.833   6.590  0.00  0.00    +0.000 C 
ATOM     27  N   UNL     1      48.701   2.658   6.333  0.00  0.00    +0.000 N 
ATOM     28  O   UNL     1      47.557   0.738   6.048  0.00  0.00    +0.000 OA
ATOM     29  H   UNL     1      48.704   3.639   6.565  0.00  0.00    +0.000 HD
ATOM     30  H   UNL     1      49.346   2.340   5.620  0.00  0.00    +0.000 HD
ENDBRANCH  23  26
ENDBRANCH  19  20
ENDBRANCH  18  19
ENDBRANCH  16  18
ENDBRANCH   5  16
BRANCH   1  31
ATOM     31  O   UNL     1      47.671   3.132  14.779  0.00  0.00    +0.000 OA
BRANCH  31  33
ATOM     32  C   UNL     1      48.677   2.784  16.905  0.00  0.00    +0.000 C 
ATOM     33  C   UNL     1      47.681   3.619  16.117  0.00  0.00    +0.000 C 
ENDBRANCH  31  33
ENDBRANCH   1  31
TORSDOF 10
ENDMDL
MODEL 2
REMARK VINA RESULT:    -8.720      1.463      2.335
REMARK INTER + INTRA:         -15.258
REMARK INTER:                 -13.862
REMARK INTRA:                  -1.396
REMARK UNBOUND:                -1.441
REMARK  Name = 
REMARK  13 active torsions:
REMARK  status: ('A' for Active; 'I' for Inactive)
REMARK    1  A    between atoms: C_1  and  C_2
REMARK    2  A    between atoms: C_2  and  O_3
REMARK    3  A    between atoms: O_3  and  C_4
REMARK    4  A    between atoms: C_6  and  C_7
REMARK    5  A    between atoms: C_11  and  C_12
REMARK    6  A    between atoms: C_12  and  O_13
REMARK    7  A    between atoms: O_13  and  C_14
REMARK    8  A    between atoms: C_17  and  C_18
REMARK    9  A    between atoms: C_18  and  C_19
REMARK   10  A    between atoms: C_18  and  C_20
REMARK   11  A    between atoms: C_20  and  O_21
REMARK   12  A    between atoms: O_21  and  C_22
REMARK   13  A    between atoms: C_25  and  C_26
REMARK                            x       y       z     vdW  Elec       q    Type
REMARK                         _______ _______ _______ _____ _____    ______ ____
ROOT
ATOM      1  C   UNL     1      46.959   4.012  13.913  0.00  0.00    +0.000 A 
ATOM      2  N   UNL     1      47.563   5.161  13.588  0.00  0.00    +0.000 NA
ATOM      3  C   UNL     1      46.865   6.014  12.818  0.00  0.00    +0.000 A 
ATOM      4  C   UNL     1      45.565   5.743  12.434  0.00  0.00    +0.000 A 
ATOM      5  C   UNL     1      45.014   4.533  12.810  0.00  0.00    +0.000 A 
ATOM      6  N   UNL     1      45.718   3.647  13.548  0.00  0.00    +0.000 NA
ENDROOT
BRANCH   3   7
ATOM      7  C   UNL     1      47.556   7.246  12.400  0.00  0.00    +0.000 A 
ATOM      8  C   UNL     1      48.923   7.264  12.083  0.00  0.00    +0.000 A 
ATOM      9  C   UNL     1      49.522   8.453  11.711  0.00  0.00    +0.000 A 
ATOM     10  N   UNL     1      48.872   9.630  11.645  0.00  0.00    +0.000 NA
ATOM     11  C   UNL     1      47.554   9.624  11.967  0.00  0.00    +0.000 A 
ATOM     12  C   UNL     1      46.871   8.466  12.331  0.00  0.00    +0.000 A 
BRANCH  11  13
ATOM     13  C   UNL     1      46.843  10.957  12.008  0.00  0.00    +0.000 C 
BRANCH  13  14
ATOM     14  O   UNL     1      45.830  11.074  11.002  0.00  0.00    +0.000 OA
ATOM     15  C   UNL     1      46.110  12.106  10.061  0.00  0.00    +0.000 C 
ENDBRANCH  13  14
ENDBRANCH  11  13
ENDBRANCH   3   7
BRANCH   5  16
ATOM     16  C   UNL     1      43.604   4.124  12.410  0.00  0.00    +0.000 C 
ATOM     17  C   UNL     1      42.804   5.377  12.025  0.00  0.00    +0.000 C 
BRANCH  16  18
ATOM     18  C   UNL     1      43.503   3.113  11.247  0.00  0.00    +0.000 C 
BRANCH  18  19
ATOM     19  O   UNL     1      43.576   3.780   9.978  0.00  0.00    +0.000 OA
BRANCH  19  20
ATOM     20  C   UNL     1      44.582   3.377   9.138  0.00  0.00    +0.000 A 
ATOM     21  C   UNL     1      45.295   4.211   8.277  0.00  0.00    +0.000 A 
ATOM     22  C   UNL     1      46.291   3.685   7.450  0.00  0.00    +0.000 A 
ATOM     23  C   UNL     1      46.593   2.321   7.478  0.00  0.00    +0.000 A 
ATOM     24  C   UNL     1      45.880   1.478   8.339  0.00  0.00    +0.000 A 
ATOM     25  C   UNL     1      44.880   2.010   9.163  0.00  0.00    +0.000 A 
BRANCH  23  26
ATOM     26  C   UNL     1      47.647   1.829   6.554  0.00  0.00    +0.000 C 
ATOM     27  N   UNL     1      48.755   2.610   6.379  0.00  0.00    +0.000 N 
ATOM     28  O   UNL     1      47.518   0.780   5.935  0.00  0.00    +0.000 OA
ATOM     29  H   UNL     1      48.803   3.572   6.678  0.00  0.00    +0.000 HD
ATOM     30  H   UNL     1      49.401   2.306   5.660  0.00  0.00    +0.000 HD
ENDBRANCH  23  26
ENDBRANCH  19  20
ENDBRANCH  18  19
ENDBRANCH  16  18
ENDBRANCH   5  16
BRANCH   1  31
ATOM     31  O   UNL     1      47.675   3.213  14.776  0.00  0.00    +0.000 OA
BRANCH  31  33
ATOM     32  C   UNL     1      48.457   2.730  16.967  0.00  0.00    +0.000 C 
ATOM     33  C   UNL     1      47.622   3.677  16.121  0.00  0.00    +0.000 C 
ENDBRANCH  31  33
ENDBRANCH   1  31
TORSDOF 10
ENDMDL
MODEL 3
REMARK VINA RESULT:    -7.998      1.928      2.427
REMARK INTER + INTRA:         -14.114
REMARK INTER:                 -12.985
REMARK INTRA:                  -1.130
REMARK UNBOUND:                -1.441
REMARK  Name = 
REMARK  13 active torsions:
REMARK  status: ('A' for Active; 'I' for Inactive)
REMARK    1  A    between atoms: C_1  and  C_2
REMARK    2  A    between atoms: C_2  and  O_3
REMARK    3  A    between atoms: O_3  and  C_4
REMARK    4  A    between atoms: C_6  and  C_7
REMARK    5  A    between atoms: C_11  and  C_12
REMARK    6  A    between atoms: C_12  and  O_13
REMARK    7  A    between atoms: O_13  and  C_14
REMARK    8  A    between atoms: C_17  and  C_18
REMARK    9  A    between atoms: C_18  and  C_19
REMARK   10  A    between atoms: C_18  and  C_20
REMARK   11  A    between atoms: C_20  and  O_21
REMARK   12  A    between atoms: O_21  and  C_22
REMARK   13  A    between atoms: C_25  and  C_26
REMARK                            x       y       z     vdW  Elec       q    Type
REMARK                         _______ _______ _______ _____ _____    ______ ____
ROOT
ATOM      1  C   UNL     1      47.046   3.976  14.063  0.00  0.00    +0.000 A 
ATOM      2  N   UNL     1      47.681   5.148  13.938  0.00  0.00    +0.000 NA
ATOM      3  C   UNL     1      47.068   6.091  13.201  0.00  0.00    +0.000 A 
ATOM      4  C   UNL     1      45.816   5.881  12.653  0.00  0.00    +0.000 A 
ATOM      5  C   UNL     1      45.229   4.643  12.828  0.00  0.00    +0.000 A 
ATOM      6  N   UNL     1      45.850   3.670  13.530  0.00  0.00    +0.000 NA
ENDROOT
BRANCH   3   7
ATOM      7  C   UNL     1      47.799   7.355  13.002  0.00  0.00    +0.000 A 
ATOM      8  C   UNL     1      48.279   7.748  11.744  0.00  0.00    +0.000 A 
ATOM      9  C   UNL     1      48.973   8.938  11.619  0.00  0.00    +0.000 A 
ATOM     10  N   UNL     1      49.240   9.759  12.652  0.00  0.00    +0.000 NA
ATOM     11  C   UNL     1      48.795   9.377  13.875  0.00  0.00    +0.000 A 
ATOM     12  C   UNL     1      48.070   8.205  14.081  0.00  0.00    +0.000 A 
BRANCH  11  13
ATOM     13  C   UNL     1      49.189  10.232  15.057  0.00  0.00    +0.000 C 
BRANCH  13  14
ATOM     14  O   UNL     1      48.466   9.896  16.247  0.00  0.00    +0.000 OA
ATOM     15  C   UNL     1      49.140  10.310  17.431  0.00  0.00    +0.000 C 
ENDBRANCH  13  14
ENDBRANCH  11  13
ENDBRANCH   3   7
BRANCH   5  16
ATOM     16  C   UNL     1      43.869   4.299  12.237  0.00  0.00    +0.000 C 
ATOM     17  C   UNL     1      42.807   5.232  12.836  0.00  0.00    +0.000 C 
BRANCH  16  18
ATOM     18  C   UNL     1      43.767   4.378  10.698  0.00  0.00    +0.000 C 
BRANCH  18  19
ATOM     19  O   UNL     1      43.858   3.073  10.108  0.00  0.00    +0.000 OA
BRANCH  19  20
ATOM     20  C   UNL     1      44.790   2.920   9.115  0.00  0.00    +0.000 A 
ATOM     21  C   UNL     1      45.248   3.938   8.277  0.00  0.00    +0.000 A 
ATOM     22  C   UNL     1      46.191   3.662   7.283  0.00  0.00    +0.000 A 
ATOM     23  C   UNL     1      46.693   2.368   7.117  0.00  0.00    +0.000 A 
ATOM     24  C   UNL     1      46.236   1.343   7.953  0.00  0.00    +0.000 A 
ATOM     25  C   UNL     1      45.288   1.623   8.946  0.00  0.00    +0.000 A 
BRANCH  23  26
ATOM     26  C   UNL     1      47.675   2.145   6.024  0.00  0.00    +0.000 C 
ATOM     27  N   UNL     1      47.901   3.173   5.153  0.00  0.00    +0.000 N 
ATOM     28  O   UNL     1      48.236   1.066   5.878  0.00  0.00    +0.000 OA
ATOM     29  H   UNL     1      47.305   3.984   5.090  0.00  0.00    +0.000 HD
ATOM     30  H   UNL     1      48.486   2.955   4.355  0.00  0.00    +0.000 HD
ENDBRANCH  23  26
ENDBRANCH  19  20
ENDBRANCH  18  19
ENDBRANCH  16  18
ENDBRANCH   5  16
BRANCH   1  31
ATOM     31  O   UNL     1      47.666   3.076  14.899  0.00  0.00    +0.000 OA
BRANCH  31  33
ATOM     32  C   UNL     1      48.745   2.835  17.003  0.00  0.00    +0.000 C 
ATOM     33  C   UNL     1      47.558   3.440  16.271  0.00  0.00    +0.000 C 
ENDBRANCH  31  33
ENDBRANCH   1  31
TORSDOF 10
ENDMDL
MODEL 4
REMARK VINA RESULT:    -7.672      2.197      4.635
REMARK INTER + INTRA:         -13.598
REMARK INTER:                 -12.296
REMARK INTRA:                  -1.302
REMARK UNBOUND:                -1.441
REMARK  Name = 
REMARK  13 active torsions:
REMARK  status: ('A' for Active; 'I' for Inactive)
REMARK    1  A    between atoms: C_1  and  C_2
REMARK    2  A    between atoms: C_2  and  O_3
REMARK    3  A    between atoms: O_3  and  C_4
REMARK    4  A    between atoms: C_6  and  C_7
REMARK    5  A    between atoms: C_11  and  C_12
REMARK    6  A    between atoms: C_12  and  O_13
REMARK    7  A    between atoms: O_13  and  C_14
REMARK    8  A    between atoms: C_17  and  C_18
REMARK    9  A    between atoms: C_18  and  C_19
REMARK   10  A    between atoms: C_18  and  C_20
REMARK   11  A    between atoms: C_20  and  O_21
REMARK   12  A    between atoms: O_21  and  C_22
REMARK   13  A    between atoms: C_25  and  C_26
REMARK                            x       y       z     vdW  Elec       q    Type
REMARK                         _______ _______ _______ _____ _____    ______ ____
ROOT
ATOM      1  C   UNL     1      46.979   6.190  12.481  0.00  0.00    +0.000 A 
ATOM      2  N   UNL     1      47.654   5.819  13.574  0.00  0.00    +0.000 NA
ATOM      3  C   UNL     1      47.037   4.960  14.404  0.00  0.00    +0.000 A 
ATOM      4  C   UNL     1      45.791   4.438  14.108  0.00  0.00    +0.000 A 
ATOM      5  C   UNL     1      45.159   4.873  12.959  0.00  0.00    +0.000 A 
ATOM      6  N   UNL     1      45.749   5.768  12.137  0.00  0.00    +0.000 NA
ENDROOT
BRANCH   3   7
ATOM      7  C   UNL     1      47.750   4.608  15.644  0.00  0.00    +0.000 A 
ATOM      8  C   UNL     1      47.737   3.307  16.169  0.00  0.00    +0.000 A 
ATOM      9  C   UNL     1      48.412   3.038  17.346  0.00  0.00    +0.000 A 
ATOM     10  N   UNL     1      49.086   3.966  18.049  0.00  0.00    +0.000 NA
ATOM     11  C   UNL     1      49.090   5.230  17.558  0.00  0.00    +0.000 A 
ATOM     12  C   UNL     1      48.453   5.579  16.369  0.00  0.00    +0.000 A 
BRANCH  11  13
ATOM     13  C   UNL     1      49.745   6.302  18.398  0.00  0.00    +0.000 C 
BRANCH  13  14
ATOM     14  O   UNL     1      48.867   6.836  19.395  0.00  0.00    +0.000 OA
ATOM     15  C   UNL     1      48.205   8.021  18.963  0.00  0.00    +0.000 C 
ENDBRANCH  13  14
ENDBRANCH  11  13
ENDBRANCH   3   7
BRANCH   5  16
ATOM     16  C   UNL     1      43.773   4.387  12.561  0.00  0.00    +0.000 C 
ATOM     17  C   UNL     1      43.044   5.505  11.803  0.00  0.00    +0.000 C 
BRANCH  16  18
ATOM     18  C   UNL     1      43.733   3.111  11.692  0.00  0.00    +0.000 C 
BRANCH  18  19
ATOM     19  O   UNL     1      43.425   3.429  10.326  0.00  0.00    +0.000 OA
BRANCH  19  20
ATOM     20  C   UNL     1      44.440   3.259   9.420  0.00  0.00    +0.000 A 
ATOM     21  C   UNL     1      45.055   4.283   8.700  0.00  0.00    +0.000 A 
ATOM     22  C   UNL     1      46.072   3.991   7.786  0.00  0.00    +0.000 A 
ATOM     23  C   UNL     1      46.490   2.673   7.586  0.00  0.00    +0.000 A 
ATOM     24  C   UNL     1      45.876   1.640   8.304  0.00  0.00    +0.000 A 
ATOM     25  C   UNL     1      44.855   1.939   9.216  0.00  0.00    +0.000 A 
BRANCH  23  26
ATOM     26  C   UNL     1      47.560   2.435   6.581  0.00  0.00    +0.000 C 
ATOM     27  N   UNL     1      47.447   3.060   5.372  0.00  0.00    +0.000 N 
ATOM     28  O   UNL     1      48.492   1.674   6.807  0.00  0.00    +0.000 OA
ATOM     29  H   UNL     1      46.597   3.502   5.057  0.00  0.00    +0.000 HD
ATOM     30  H   UNL     1      48.126   2.791   4.670  0.00  0.00    +0.000 HD
ENDBRANCH  23  26
ENDBRANCH  19  20
ENDBRANCH  18  19
ENDBRANCH  16  18
ENDBRANCH   5  16
BRANCH   1  31
ATOM     31  O   UNL     1      47.685   6.996  11.617  0.00  0.00    +0.000 OA
BRANCH  31  33
ATOM     32  C   UNL     1      49.216   8.806  11.787  0.00  0.00    +0.000 C 
ATOM     33  C   UNL     1      48.970   7.344  12.122  0.00  0.00    +0.000 C 
ENDBRANCH  31  33
ENDBRANCH   1  31
TORSDOF 10
ENDMDL
MODEL 5
REMARK VINA RESULT:    -7.427      2.383      4.361
REMARK INTER + INTRA:         -13.210
REMARK INTER:                 -12.015
REMARK INTRA:                  -1.195
REMARK UNBOUND:                -1.441
REMARK  Name = 
REMARK  13 active torsions:
REMARK  status: ('A' for Active; 'I' for Inactive)
REMARK    1  A    between atoms: C_1  and  C_2
REMARK    2  A    between atoms: C_2  and  O_3
REMARK    3  A    between atoms: O_3  and  C_4
REMARK    4  A    between atoms: C_6  and  C_7
REMARK    5  A    between atoms: C_11  and  C_12
REMARK    6  A    between atoms: C_12  and  O_13
REMARK    7  A    between atoms: O_13  and  C_14
REMARK    8  A    between atoms: C_17  and  C_18
REMARK    9  A    between atoms: C_18  and  C_19
REMARK   10  A    between atoms: C_18  and  C_20
REMARK   11  A    between atoms: C_20  and  O_21
REMARK   12  A    between atoms: O_21  and  C_22
REMARK   13  A    between atoms: C_25  and  C_26
REMARK                            x       y       z     vdW  Elec       q    Type
REMARK                         _______ _______ _______ _____ _____    ______ ____
ROOT
ATOM      1  C   UNL     1      45.518   7.816  12.117  0.00  0.00    +0.000 A 
ATOM      2  N   UNL     1      46.635   7.751  12.851  0.00  0.00    +0.000 NA
ATOM      3  C   UNL     1      46.840   6.614  13.538  0.00  0.00    +0.000 A 
ATOM      4  C   UNL     1      45.972   5.542  13.440  0.00  0.00    +0.000 A 
ATOM      5  C   UNL     1      44.841   5.690  12.661  0.00  0.00    +0.000 A 
ATOM      6  N   UNL     1      44.599   6.842  11.998  0.00  0.00    +0.000 NA
ENDROOT
BRANCH   3   7
ATOM      7  C   UNL     1      48.032   6.570  14.405  0.00  0.00    +0.000 A 
ATOM      8  C   UNL     1      49.177   7.335  14.137  0.00  0.00    +0.000 A 
ATOM      9  C   UNL     1      50.272   7.242  14.977  0.00  0.00    +0.000 A 
ATOM     10  N   UNL     1      50.322   6.436  16.053  0.00  0.00    +0.000 NA
ATOM     11  C   UNL     1      49.225   5.680  16.309  0.00  0.00    +0.000 A 
ATOM     12  C   UNL     1      48.075   5.731  15.525  0.00  0.00    +0.000 A 
BRANCH  11  13
ATOM     13  C   UNL     1      49.314   4.688  17.445  0.00  0.00    +0.000 C 
BRANCH  13  14
ATOM     14  O   UNL     1      49.564   3.352  16.994  0.00  0.00    +0.000 OA
ATOM     15  C   UNL     1      50.819   2.849  17.440  0.00  0.00    +0.000 C 
ENDBRANCH  13  14
ENDBRANCH  11  13
ENDBRANCH   3   7
BRANCH   5  16
ATOM     16  C   UNL     1      43.806   4.584  12.514  0.00  0.00    +0.000 C 
ATOM     17  C   UNL     1      42.597   5.124  11.737  0.00  0.00    +0.000 C 
BRANCH  16  18
ATOM     18  C   UNL     1      44.294   3.298  11.813  0.00  0.00    +0.000 C 
BRANCH  18  19
ATOM     19  O   UNL     1      43.729   3.183  10.498  0.00  0.00    +0.000 OA
BRANCH  19  20
ATOM     20  C   UNL     1      44.620   3.116   9.459  0.00  0.00    +0.000 A 
ATOM     21  C   UNL     1      45.066   4.205   8.709  0.00  0.00    +0.000 A 
ATOM     22  C   UNL     1      45.965   4.015   7.656  0.00  0.00    +0.000 A 
ATOM     23  C   UNL     1      46.436   2.737   7.344  0.00  0.00    +0.000 A 
ATOM     24  C   UNL     1      45.992   1.640   8.091  0.00  0.00    +0.000 A 
ATOM     25  C   UNL     1      45.088   1.835   9.144  0.00  0.00    +0.000 A 
BRANCH  23  26
ATOM     26  C   UNL     1      47.372   2.609   6.196  0.00  0.00    +0.000 C 
ATOM     27  N   UNL     1      48.707   2.506   6.472  0.00  0.00    +0.000 N 
ATOM     28  O   UNL     1      46.973   2.635   5.039  0.00  0.00    +0.000 OA
ATOM     29  H   UNL     1      49.100   2.711   7.378  0.00  0.00    +0.000 HD
ATOM     30  H   UNL     1      49.327   2.535   5.671  0.00  0.00    +0.000 HD
ENDBRANCH  23  26
ENDBRANCH  19  20
ENDBRANCH  18  19
ENDBRANCH  16  18
ENDBRANCH   5  16
BRANCH   1  31
ATOM     31  O   UNL     1      45.396   8.959  11.360  0.00  0.00    +0.000 OA
BRANCH  31  33
ATOM     32  C   UNL     1      43.535  10.434  11.271  0.00  0.00    +0.000 C 
ATOM     33  C   UNL     1      44.760  10.018  12.068  0.00  0.00    +0.000 C 
ENDBRANCH  31  33
ENDBRANCH   1  31
TORSDOF 10
ENDMDL
MODEL 6
REMARK VINA RESULT:    -6.862      2.911      8.048
REMARK INTER + INTRA:         -12.315
REMARK INTER:                 -10.966
REMARK INTRA:                  -1.349
REMARK UNBOUND:                -1.441
REMARK  Name = 
REMARK  13 active torsions:
REMARK  status: ('A' for Active; 'I' for Inactive)
REMARK    1  A    between atoms: C_1  and  C_2
REMARK    2  A    between atoms: C_2  and  O_3
REMARK    3  A    between atoms: O_3  and  C_4
REMARK    4  A    between atoms: C_6  and  C_7
REMARK    5  A    between atoms: C_11  and  C_12
REMARK    6  A    between atoms: C_12  and  O_13
REMARK    7  A    between atoms: O_13  and  C_14
REMARK    8  A    between atoms: C_17  and  C_18
REMARK    9  A    between atoms: C_18  and  C_19
REMARK   10  A    between atoms: C_18  and  C_20
REMARK   11  A    between atoms: C_20  and  O_21
REMARK   12  A    between atoms: O_21  and  C_22
REMARK   13  A    between atoms: C_25  and  C_26
REMARK                            x       y       z     vdW  Elec       q    Type
REMARK                         _______ _______ _______ _____ _____    ______ ____
ROOT
ATOM      1  C   UNL     1      45.331   9.009  11.867  0.00  0.00    +0.000 A 
ATOM      2  N   UNL     1      44.706   7.842  11.670  0.00  0.00    +0.000 NA
ATOM      3  C   UNL     1      45.482   6.748  11.581  0.00  0.00    +0.000 A 
ATOM      4  C   UNL     1      46.853   6.818  11.747  0.00  0.00    +0.000 A 
ATOM      5  C   UNL     1      47.421   8.061  11.946  0.00  0.00    +0.000 A 
ATOM      6  N   UNL     1      46.659   9.175  11.995  0.00  0.00    +0.000 NA
ENDROOT
BRANCH   3   7
ATOM      7  C   UNL     1      44.800   5.474  11.292  0.00  0.00    +0.000 A 
ATOM      8  C   UNL     1      43.958   4.850  12.226  0.00  0.00    +0.000 A 
ATOM      9  C   UNL     1      43.356   3.647  11.905  0.00  0.00    +0.000 A 
ATOM     10  N   UNL     1      43.539   3.008  10.735  0.00  0.00    +0.000 NA
ATOM     11  C   UNL     1      44.365   3.596   9.833  0.00  0.00    +0.000 A 
ATOM     12  C   UNL     1      44.992   4.817  10.070  0.00  0.00    +0.000 A 
BRANCH  11  13
ATOM     13  C   UNL     1      44.667   2.833   8.565  0.00  0.00    +0.000 C 
BRANCH  13  14
ATOM     14  O   UNL     1      45.338   1.591   8.814  0.00  0.00    +0.000 OA
ATOM     15  C   UNL     1      46.467   1.401   7.968  0.00  0.00    +0.000 C 
ENDBRANCH  13  14
ENDBRANCH  11  13
ENDBRANCH   3   7
BRANCH   5  16
ATOM     16  C   UNL     1      48.923   8.250  12.105  0.00  0.00    +0.000 C 
ATOM     17  C   UNL     1      49.218   9.730  12.392  0.00  0.00    +0.000 C 
BRANCH  16  18
ATOM     18  C   UNL     1      49.592   7.404  13.210  0.00  0.00    +0.000 C 
BRANCH  18  19
ATOM     19  O   UNL     1      49.025   7.695  14.496  0.00  0.00    +0.000 OA
BRANCH  19  20
ATOM     20  C   UNL     1      48.649   6.614  15.251  0.00  0.00    +0.000 A 
ATOM     21  C   UNL     1      47.760   5.618  14.845  0.00  0.00    +0.000 A 
ATOM     22  C   UNL     1      47.435   4.568  15.709  0.00  0.00    +0.000 A 
ATOM     23  C   UNL     1      47.999   4.496  16.985  0.00  0.00    +0.000 A 
ATOM     24  C   UNL     1      48.890   5.493  17.399  0.00  0.00    +0.000 A 
ATOM     25  C   UNL     1      49.210   6.545  16.531  0.00  0.00    +0.000 A 
BRANCH  23  26
ATOM     26  C   UNL     1      47.588   3.365  17.857  0.00  0.00    +0.000 C 
ATOM     27  N   UNL     1      48.351   3.100  18.959  0.00  0.00    +0.000 N 
ATOM     28  O   UNL     1      46.622   2.664  17.582  0.00  0.00    +0.000 OA
ATOM     29  H   UNL     1      49.270   3.491  19.099  0.00  0.00    +0.000 HD
ATOM     30  H   UNL     1      48.114   2.257  19.468  0.00  0.00    +0.000 HD
ENDBRANCH  23  26
ENDBRANCH  19  20
ENDBRANCH  18  19
ENDBRANCH  16  18
ENDBRANCH   5  16
BRANCH   1  31
ATOM     31  O   UNL     1      44.492  10.085  12.042  0.00  0.00    +0.000 OA
BRANCH  31  33
ATOM     32  C   UNL     1      42.507  11.244  11.438  0.00  0.00    +0.000 C 
ATOM     33  C   UNL     1      43.523  10.198  11.007  0.00  0.00    +0.000 C 
ENDBRANCH  31  33
ENDBRANCH   1  31
TORSDOF 10
ENDMDL
MODEL 7
REMARK VINA RESULT:    -6.717      2.779      6.879
REMARK INTER + INTRA:         -12.084
REMARK INTER:                 -10.882
REMARK INTRA:                  -1.202
REMARK UNBOUND:                -1.441
REMARK  Name = 
REMARK  13 active torsions:
REMARK  status: ('A' for Active; 'I' for Inactive)
REMARK    1  A    between atoms: C_1  and  C_2
REMARK    2  A    between atoms: C_2  and  O_3
REMARK    3  A    between atoms: O_3  and  C_4
REMARK    4  A    between atoms: C_6  and  C_7
REMARK    5  A    between atoms: C_11  and  C_12
REMARK    6  A    between atoms: C_12  and  O_13
REMARK    7  A    between atoms: O_13  and  C_14
REMARK    8  A    between atoms: C_17  and  C_18
REMARK    9  A    between atoms: C_18  and  C_19
REMARK   10  A    between atoms: C_18  and  C_20
REMARK   11  A    between atoms: C_20  and  O_21
REMARK   12  A    between atoms: O_21  and  C_22
REMARK   13  A    between atoms: C_25  and  C_26
REMARK                            x       y       z     vdW  Elec       q    Type
REMARK                         _______ _______ _______ _____ _____    ______ ____
ROOT
ATOM      1  C   UNL     1      47.280   4.244  15.262  0.00  0.00    +0.000 A 
ATOM      2  N   UNL     1      46.343   4.010  14.336  0.00  0.00    +0.000 NA
ATOM      3  C   UNL     1      46.165   4.961  13.403  0.00  0.00    +0.000 A 
ATOM      4  C   UNL     1      46.954   6.096  13.367  0.00  0.00    +0.000 A 
ATOM      5  C   UNL     1      47.900   6.262  14.359  0.00  0.00    +0.000 A 
ATOM      6  N   UNL     1      48.063   5.335  15.328  0.00  0.00    +0.000 NA
ENDROOT
BRANCH   3   7
ATOM      7  C   UNL     1      45.083   4.738  12.428  0.00  0.00    +0.000 A 
ATOM      8  C   UNL     1      43.752   5.096  12.695  0.00  0.00    +0.000 A 
ATOM      9  C   UNL     1      42.775   4.848  11.748  0.00  0.00    +0.000 A 
ATOM     10  N   UNL     1      43.016   4.258  10.562  0.00  0.00    +0.000 NA
ATOM     11  C   UNL     1      44.297   3.893  10.304  0.00  0.00    +0.000 A 
ATOM     12  C   UNL     1      45.342   4.127  11.195  0.00  0.00    +0.000 A 
BRANCH  11  13
ATOM     13  C   UNL     1      44.558   3.127   9.028  0.00  0.00    +0.000 C 
BRANCH  13  14
ATOM     14  O   UNL     1      45.373   1.968   9.236  0.00  0.00    +0.000 OA
ATOM     15  C   UNL     1      46.210   1.680   8.120  0.00  0.00    +0.000 C 
ENDBRANCH  13  14
ENDBRANCH  11  13
ENDBRANCH   3   7
BRANCH   5  16
ATOM     16  C   UNL     1      48.796   7.490  14.429  0.00  0.00    +0.000 C 
ATOM     17  C   UNL     1      49.756   7.484  13.230  0.00  0.00    +0.000 C 
BRANCH  16  18
ATOM     18  C   UNL     1      48.068   8.851  14.455  0.00  0.00    +0.000 C 
BRANCH  18  19
ATOM     19  O   UNL     1      48.100   9.478  13.164  0.00  0.00    +0.000 OA
BRANCH  19  20
ATOM     20  C   UNL     1      46.892   9.635  12.536  0.00  0.00    +0.000 A 
ATOM     21  C   UNL     1      45.847   8.711  12.558  0.00  0.00    +0.000 A 
ATOM     22  C   UNL     1      44.661   8.970  11.863  0.00  0.00    +0.000 A 
ATOM     23  C   UNL     1      44.503  10.158  11.145  0.00  0.00    +0.000 A 
ATOM     24  C   UNL     1      45.548  11.088  11.117  0.00  0.00    +0.000 A 
ATOM     25  C   UNL     1      46.735  10.822  11.812  0.00  0.00    +0.000 A 
BRANCH  23  26
ATOM     26  C   UNL     1      43.225  10.354  10.412  0.00  0.00    +0.000 C 
ATOM     27  N   UNL     1      42.061  10.136  11.093  0.00  0.00    +0.000 N 
ATOM     28  O   UNL     1      43.208  10.661   9.226  0.00  0.00    +0.000 OA
ATOM     29  H   UNL     1      42.023   9.665  11.984  0.00  0.00    +0.000 HD
ATOM     30  H   UNL     1      41.213  10.165  10.539  0.00  0.00    +0.000 HD
ENDBRANCH  23  26
ENDBRANCH  19  20
ENDBRANCH  18  19
ENDBRANCH  16  18
ENDBRANCH   5  16
BRANCH   1  31
ATOM     31  O   UNL     1      47.490   3.204  16.139  0.00  0.00    +0.000 OA
BRANCH  31  33
ATOM     32  C   UNL     1      48.469   3.204  18.305  0.00  0.00    +0.000 C 
ATOM     33  C   UNL     1      47.238   3.571  17.491  0.00  0.00    +0.000 C 
ENDBRANCH  31  33
ENDBRANCH   1  31
TORSDOF 10
ENDMDL
MODEL 8
REMARK VINA RESULT:    -6.715      3.021      8.097
REMARK INTER + INTRA:         -12.082
REMARK INTER:                 -10.912
REMARK INTRA:                  -1.171
REMARK UNBOUND:                -1.441
REMARK  Name = 
REMARK  13 active torsions:
REMARK  status: ('A' for Active; 'I' for Inactive)
REMARK    1  A    between atoms: C_1  and  C_2
REMARK    2  A    between atoms: C_2  and  O_3
REMARK    3  A    between atoms: O_3  and  C_4
REMARK    4  A    between atoms: C_6  and  C_7
REMARK    5  A    between atoms: C_11  and  C_12
REMARK    6  A    between atoms: C_12  and  O_13
REMARK    7  A    between atoms: O_13  and  C_14
REMARK    8  A    between atoms: C_17  and  C_18
REMARK    9  A    between atoms: C_18  and  C_19
REMARK   10  A    between atoms: C_18  and  C_20
REMARK   11  A    between atoms: C_20  and  O_21
REMARK   12  A    between atoms: O_21  and  C_22
REMARK   13  A    between atoms: C_25  and  C_26
REMARK                            x       y       z     vdW  Elec       q    Type
REMARK                         _______ _______ _______ _____ _____    ______ ____
ROOT
ATOM      1  C   UNL     1      46.235   8.295  12.984  0.00  0.00    +0.000 A 
ATOM      2  N   UNL     1      45.464   7.326  12.478  0.00  0.00    +0.000 NA
ATOM      3  C   UNL     1      45.856   6.061  12.705  0.00  0.00    +0.000 A 
ATOM      4  C   UNL     1      46.967   5.775  13.477  0.00  0.00    +0.000 A 
ATOM      5  C   UNL     1      47.711   6.833  13.963  0.00  0.00    +0.000 A 
ATOM      6  N   UNL     1      47.353   8.110  13.708  0.00  0.00    +0.000 NA
ENDROOT
BRANCH   3   7
ATOM      7  C   UNL     1      45.048   4.996  12.085  0.00  0.00    +0.000 A 
ATOM      8  C   UNL     1      44.053   4.306  12.795  0.00  0.00    +0.000 A 
ATOM      9  C   UNL     1      43.336   3.304  12.166  0.00  0.00    +0.000 A 
ATOM     10  N   UNL     1      43.542   2.925  10.891  0.00  0.00    +0.000 NA
ATOM     11  C   UNL     1      44.514   3.575  10.204  0.00  0.00    +0.000 A 
ATOM     12  C   UNL     1      45.266   4.609  10.757  0.00  0.00    +0.000 A 
BRANCH  11  13
ATOM     13  C   UNL     1      44.831   3.080   8.812  0.00  0.00    +0.000 C 
BRANCH  13  14
ATOM     14  O   UNL     1      45.370   4.106   7.970  0.00  0.00    +0.000 OA
ATOM     15  C   UNL     1      46.294   3.598   7.012  0.00  0.00    +0.000 C 
ENDBRANCH  13  14
ENDBRANCH  11  13
ENDBRANCH   3   7
BRANCH   5  16
ATOM     16  C   UNL     1      48.969   6.626  14.793  0.00  0.00    +0.000 C 
ATOM     17  C   UNL     1      50.028   7.655  14.371  0.00  0.00    +0.000 C 
BRANCH  16  18
ATOM     18  C   UNL     1      48.787   6.724  16.323  0.00  0.00    +0.000 C 
BRANCH  18  19
ATOM     19  O   UNL     1      48.315   5.482  16.866  0.00  0.00    +0.000 OA
BRANCH  19  20
ATOM     20  C   UNL     1      49.264   4.516  17.083  0.00  0.00    +0.000 A 
ATOM     21  C   UNL     1      50.589   4.756  17.448  0.00  0.00    +0.000 A 
ATOM     22  C   UNL     1      51.476   3.691  17.626  0.00  0.00    +0.000 A 
ATOM     23  C   UNL     1      51.049   2.372  17.448  0.00  0.00    +0.000 A 
ATOM     24  C   UNL     1      49.722   2.124  17.080  0.00  0.00    +0.000 A 
ATOM     25  C   UNL     1      48.837   3.196  16.900  0.00  0.00    +0.000 A 
BRANCH  23  26
ATOM     26  C   UNL     1      52.054   1.292  17.630  0.00  0.00    +0.000 C 
ATOM     27  N   UNL     1      51.629   0.112  18.171  0.00  0.00    +0.000 N 
ATOM     28  O   UNL     1      53.233   1.461  17.346  0.00  0.00    +0.000 OA
ATOM     29  H   UNL     1      50.737   0.006  18.629  0.00  0.00    +0.000 HD
ATOM     30  H   UNL     1      52.354  -0.561  18.388  0.00  0.00    +0.000 HD
ENDBRANCH  23  26
ENDBRANCH  19  20
ENDBRANCH  18  19
ENDBRANCH  16  18
ENDBRANCH   5  16
BRANCH   1  31
ATOM     31  O   UNL     1      45.746   9.569  12.806  0.00  0.00    +0.000 OA
BRANCH  31  33
ATOM     32  C   UNL     1      47.086  11.219  11.743  0.00  0.00    +0.000 C 
ATOM     33  C   UNL     1      46.073  10.106  11.529  0.00  0.00    +0.000 C 
ENDBRANCH  31  33
ENDBRANCH   1  31
TORSDOF 10
ENDMDL
MODEL 9
REMARK VINA RESULT:    -6.710      2.310      3.682
REMARK INTER + INTRA:         -12.073
REMARK INTER:                 -10.983
REMARK INTRA:                  -1.091
REMARK UNBOUND:                -1.441
REMARK  Name = 
REMARK  13 active torsions:
REMARK  status: ('A' for Active; 'I' for Inactive)
REMARK    1  A    between atoms: C_1  and  C_2
REMARK    2  A    between atoms: C_2  and  O_3
REMARK    3  A    between atoms: O_3  and  C_4
REMARK    4  A    between atoms: C_6  and  C_7
REMARK    5  A    between atoms: C_11  and  C_12
REMARK    6  A    between atoms: C_12  and  O_13
REMARK    7  A    between atoms: O_13  and  C_14
REMARK    8  A    between atoms: C_17  and  C_18
REMARK    9  A    between atoms: C_18  and  C_19
REMARK   10  A    between atoms: C_18  and  C_20
REMARK   11  A    between atoms: C_20  and  O_21
REMARK   12  A    between atoms: O_21  and  C_22
REMARK   13  A    between atoms: C_25  and  C_26
REMARK                            x       y       z     vdW  Elec       q    Type
REMARK                         _______ _______ _______ _____ _____    ______ ____
ROOT
ATOM      1  C   UNL     1      45.170   8.609  11.937  0.00  0.00    +0.000 A 
ATOM      2  N   UNL     1      46.415   8.654  12.428  0.00  0.00    +0.000 NA
ATOM      3  C   UNL     1      46.959   7.484  12.802  0.00  0.00    +0.000 A 
ATOM      4  C   UNL     1      46.290   6.287  12.630  0.00  0.00    +0.000 A 
ATOM      5  C   UNL     1      45.008   6.326  12.117  0.00  0.00    +0.000 A 
ATOM      6  N   UNL     1      44.431   7.498  11.776  0.00  0.00    +0.000 NA
ENDROOT
BRANCH   3   7
ATOM      7  C   UNL     1      48.301   7.542  13.411  0.00  0.00    +0.000 A 
ATOM      8  C   UNL     1      48.524   7.210  14.755  0.00  0.00    +0.000 A 
ATOM      9  C   UNL     1      49.803   7.298  15.277  0.00  0.00    +0.000 A 
ATOM     10  N   UNL     1      50.872   7.706  14.569  0.00  0.00    +0.000 NA
ATOM     11  C   UNL     1      50.661   8.045  13.273  0.00  0.00    +0.000 A 
ATOM     12  C   UNL     1      49.409   7.964  12.666  0.00  0.00    +0.000 A 
BRANCH  11  13
ATOM     13  C   UNL     1      51.830   8.613  12.503  0.00  0.00    +0.000 C 
BRANCH  13  14
ATOM     14  O   UNL     1      51.559   8.743  11.102  0.00  0.00    +0.000 OA
ATOM     15  C   UNL     1      52.222   7.753  10.322  0.00  0.00    +0.000 C 
ENDBRANCH  13  14
ENDBRANCH  11  13
ENDBRANCH   3   7
BRANCH   5  16
ATOM     16  C   UNL     1      44.174   5.068  11.920  0.00  0.00    +0.000 C 
ATOM     17  C   UNL     1      43.054   5.036  12.969  0.00  0.00    +0.000 C 
BRANCH  16  18
ATOM     18  C   UNL     1      43.532   4.900  10.526  0.00  0.00    +0.000 C 
BRANCH  18  19
ATOM     19  O   UNL     1      43.575   3.529  10.101  0.00  0.00    +0.000 OA
BRANCH  19  20
ATOM     20  C   UNL     1      44.577   3.197   9.227  0.00  0.00    +0.000 A 
ATOM     21  C   UNL     1      45.267   4.096   8.413  0.00  0.00    +0.000 A 
ATOM     22  C   UNL     1      46.262   3.640   7.543  0.00  0.00    +0.000 A 
ATOM     23  C   UNL     1      46.585   2.282   7.481  0.00  0.00    +0.000 A 
ATOM     24  C   UNL     1      45.896   1.374   8.293  0.00  0.00    +0.000 A 
ATOM     25  C   UNL     1      44.897   1.836   9.161  0.00  0.00    +0.000 A 
BRANCH  23  26
ATOM     26  C   UNL     1      47.636   1.867   6.515  0.00  0.00    +0.000 C 
ATOM     27  N   UNL     1      47.323   0.889   5.615  0.00  0.00    +0.000 N 
ATOM     28  O   UNL     1      48.760   2.354   6.545  0.00  0.00    +0.000 OA
ATOM     29  H   UNL     1      46.506   0.304   5.699  0.00  0.00    +0.000 HD
ATOM     30  H   UNL     1      48.091   0.548   5.048  0.00  0.00    +0.000 HD
ENDBRANCH  23  26
ENDBRANCH  19  20
ENDBRANCH  18  19
ENDBRANCH  16  18
ENDBRANCH   5  16
BRANCH   1  31
ATOM     31  O   UNL     1      44.690   9.816  11.483  0.00  0.00    +0.000 OA
BRANCH  31  33
ATOM     32  C   UNL     1      45.040  12.108  10.960  0.00  0.00    +0.000 C 
ATOM     33  C   UNL     1      45.670  10.847  11.530  0.00  0.00    +0.000 C 
ENDBRANCH  31  33
ENDBRANCH   1  31
TORSDOF 10
ENDMDL
