MODEL 1
REMARK VINA RESULT:    -7.232      0.000      0.000
REMARK INTER + INTRA:         -10.620
REMARK INTER:                  -9.769
REMARK INTRA:                  -0.851
REMARK UNBOUND:                -0.851
REMARK  Name = 
REMARK  7 active torsions:
REMARK  status: ('A' for Active; 'I' for Inactive)
REMARK    1  A    between atoms: C_1  and  O_2
REMARK    2  A    between atoms: O_2  and  C_3
REMARK    3  A    between atoms: C_5  and  C_6
REMARK    4  A    between atoms: C_10  and  N_11
REMARK    5  A    between atoms: N_11  and  C_12
REMARK    6  A    between atoms: C_12  and  C_13
REMARK    7  A    between atoms: C_17  and  C_18
REMARK                            x       y       z     vdW  Elec       q    Type
REMARK                         _______ _______ _______ _____ _____    ______ ____
ROOT
ATOM      1  C   UNL     1      44.415   5.893  11.303  0.00  0.00    +0.000 C 
ATOM      2  C   UNL     1      43.231   5.795  12.250  0.00  0.00    +0.000 C 
ATOM      3  C   UNL     1      43.606   7.131  11.713  0.00  0.00    +0.000 C 
ENDROOT
BRANCH   1   4
ATOM      4  C   UNL     1      45.848   5.979  11.827  0.00  0.00    +0.000 A 
ATOM      5  C   UNL     1      46.790   6.840  11.237  0.00  0.00    +0.000 A 
ATOM      6  C   UNL     1      47.988   7.148  11.880  0.00  0.00    +0.000 A 
ATOM      7  C   UNL     1      48.270   6.590  13.127  0.00  0.00    +0.000 A 
ATOM      8  C   UNL     1      47.386   5.680  13.728  0.00  0.00    +0.000 A 
ATOM      9  C   UNL     1      46.207   5.360  13.034  0.00  0.00    +0.000 A 
BRANCH   8  10
ATOM     10  C   UNL     1      47.611   5.153  15.084  0.00  0.00    +0.000 A 
ATOM     11  C   UNL     1      48.449   5.803  15.999  0.00  0.00    +0.000 A 
ATOM     12  C   UNL     1      48.598   5.314  17.295  0.00  0.00    +0.000 A 
ATOM     13  C   UNL     1      47.893   4.180  17.652  0.00  0.00    +0.000 A 
ATOM     14  N   UNL     1      47.069   3.516  16.817  0.00  0.00    +0.000 NA
ATOM     15  C   UNL     1      46.953   4.016  15.561  0.00  0.00    +0.000 A 
ENDBRANCH   8  10
ENDBRANCH   1   4
BRANCH   1  16
ATOM     16  N   UNL     1      44.262   5.398   9.943  0.00  0.00    +0.000 N 
ATOM     17  H   UNL     1      43.807   5.971   9.243  0.00  0.00    +0.000 HD
BRANCH  16  23
ATOM     18  C   UNL     1      44.680   2.959   9.517  0.00  0.00    +0.000 A 
ATOM     19  C   UNL     1      45.408   2.048   8.735  0.00  0.00    +0.000 A 
ATOM     20  C   UNL     1      46.331   2.504   7.807  0.00  0.00    +0.000 A 
ATOM     21  C   UNL     1      46.498   3.872   7.676  0.00  0.00    +0.000 A 
ATOM     22  N   UNL     1      45.812   4.776   8.400  0.00  0.00    +0.000 NA
ATOM     23  C   UNL     1      44.907   4.334   9.314  0.00  0.00    +0.000 A 
BRANCH  18  25
ATOM     24  C   UNL     1      44.175   2.410  11.787  0.00  0.00    +0.000 C 
ATOM     25  O   UNL     1      43.746   2.550  10.435  0.00  0.00    +0.000 OA
ENDBRANCH  18  25
BRANCH  20  26
ATOM     26  C   UNL     1      47.089   1.612   6.999  0.00  0.00    +0.000 C 
ATOM     27  N   UNL     1      47.719   0.891   6.345  0.00  0.00    +0.000 NA
ENDBRANCH  20  26
ENDBRANCH  16  23
ENDBRANCH   1  16
TORSDOF 6
ENDMDL
MODEL 2
REMARK VINA RESULT:    -7.080      2.141      3.467
REMARK INTER + INTRA:         -10.414
REMARK INTER:                  -9.682
REMARK INTRA:                  -0.733
REMARK UNBOUND:                -0.851
REMARK  Name = 
REMARK  7 active torsions:
REMARK  status: ('A' for Active; 'I' for Inactive)
REMARK    1  A    between atoms: C_1  and  O_2
REMARK    2  A    between atoms: O_2  and  C_3
REMARK    3  A    between atoms: C_5  and  C_6
REMARK    4  A    between atoms: C_10  and  N_11
REMARK    5  A    between atoms: N_11  and  C_12
REMARK    6  A    between atoms: C_12  and  C_13
REMARK    7  A    between atoms: C_17  and  C_18
REMARK                            x       y       z     vdW  Elec       q    Type
REMARK                         _______ _______ _______ _____ _____    ______ ____
ROOT
ATOM      1  C   UNL     1      43.719   5.782  11.321  0.00  0.00    +0.000 C 
ATOM      2  C   UNL     1      42.347   5.492  11.903  0.00  0.00    +0.000 C 
ATOM      3  C   UNL     1      42.714   6.904  11.613  0.00  0.00    +0.000 C 
ENDROOT
BRANCH   1   4
ATOM      4  C   UNL     1      44.952   5.907  12.215  0.00  0.00    +0.000 A 
ATOM      5  C   UNL     1      45.311   4.886  13.112  0.00  0.00    +0.000 A 
ATOM      6  C   UNL     1      46.574   4.853  13.701  0.00  0.00    +0.000 A 
ATOM      7  C   UNL     1      47.502   5.852  13.408  0.00  0.00    +0.000 A 
ATOM      8  C   UNL     1      47.170   6.923  12.565  0.00  0.00    +0.000 A 
ATOM      9  C   UNL     1      45.874   6.947  12.020  0.00  0.00    +0.000 A 
BRANCH   8  10
ATOM     10  C   UNL     1      48.159   7.936  12.161  0.00  0.00    +0.000 A 
ATOM     11  C   UNL     1      49.482   7.593  11.851  0.00  0.00    +0.000 A 
ATOM     12  C   UNL     1      50.381   8.564  11.415  0.00  0.00    +0.000 A 
ATOM     13  C   UNL     1      49.932   9.866  11.292  0.00  0.00    +0.000 A 
ATOM     14  N   UNL     1      48.671  10.252  11.571  0.00  0.00    +0.000 NA
ATOM     15  C   UNL     1      47.824   9.283  11.998  0.00  0.00    +0.000 A 
ENDBRANCH   8  10
ENDBRANCH   1   4
BRANCH   1  16
ATOM     16  N   UNL     1      43.973   5.438   9.929  0.00  0.00    +0.000 N 
ATOM     17  H   UNL     1      43.857   6.137   9.205  0.00  0.00    +0.000 HD
BRANCH  16  23
ATOM     18  C   UNL     1      44.412   2.980   9.670  0.00  0.00    +0.000 A 
ATOM     19  C   UNL     1      45.184   2.026   8.986  0.00  0.00    +0.000 A 
ATOM     20  C   UNL     1      46.160   2.430   8.089  0.00  0.00    +0.000 A 
ATOM     21  C   UNL     1      46.337   3.789   7.890  0.00  0.00    +0.000 A 
ATOM     22  N   UNL     1      45.610   4.731   8.519  0.00  0.00    +0.000 NA
ATOM     23  C   UNL     1      44.652   4.341   9.402  0.00  0.00    +0.000 A 
BRANCH  18  25
ATOM     24  C   UNL     1      43.832   2.171  11.842  0.00  0.00    +0.000 C 
ATOM     25  O   UNL     1      43.425   2.622  10.553  0.00  0.00    +0.000 OA
ENDBRANCH  18  25
BRANCH  20  26
ATOM     26  C   UNL     1      46.963   1.494   7.381  0.00  0.00    +0.000 C 
ATOM     27  N   UNL     1      47.606   0.722   6.801  0.00  0.00    +0.000 NA
ENDBRANCH  20  26
ENDBRANCH  16  23
ENDBRANCH   1  16
TORSDOF 6
ENDMDL
MODEL 3
REMARK VINA RESULT:    -6.266      3.882      5.996
REMARK INTER + INTRA:          -9.315
REMARK INTER:                  -8.208
REMARK INTRA:                  -1.107
REMARK UNBOUND:                -0.851
REMARK  Name = 
REMARK  7 active torsions:
REMARK  status: ('A' for Active; 'I' for Inactive)
REMARK    1  A    between atoms: C_1  and  O_2
REMARK    2  A    between atoms: O_2  and  C_3
REMARK    3  A    between atoms: C_5  and  C_6
REMARK    4  A    between atoms: C_10  and  N_11
REMARK    5  A    between atoms: N_11  and  C_12
REMARK    6  A    between atoms: C_12  and  C_13
REMARK    7  A    between atoms: C_17  and  C_18
REMARK                            x       y       z     vdW  Elec       q    Type
REMARK                         _______ _______ _______ _____ _____    ______ ____
ROOT
ATOM      1  C   UNL     1      48.987   7.613  15.317  0.00  0.00    +0.000 C 
ATOM      2  C   UNL     1      48.551   9.068  15.285  0.00  0.00    +0.000 C 
ATOM      3  C   UNL     1      49.991   8.750  15.081  0.00  0.00    +0.000 C 
ENDROOT
BRANCH   1   4
ATOM      4  C   UNL     1      49.273   6.896  16.636  0.00  0.00    +0.000 A 
ATOM      5  C   UNL     1      48.555   7.204  17.804  0.00  0.00    +0.000 A 
ATOM      6  C   UNL     1      48.593   6.366  18.918  0.00  0.00    +0.000 A 
ATOM      7  C   UNL     1      49.363   5.203  18.884  0.00  0.00    +0.000 A 
ATOM      8  C   UNL     1      50.143   4.884  17.761  0.00  0.00    +0.000 A 
ATOM      9  C   UNL     1      50.113   5.773  16.672  0.00  0.00    +0.000 A 
BRANCH   8  10
ATOM     10  C   UNL     1      50.886   3.617  17.660  0.00  0.00    +0.000 A 
ATOM     11  C   UNL     1      52.209   3.500  18.107  0.00  0.00    +0.000 A 
ATOM     12  C   UNL     1      52.868   2.274  18.053  0.00  0.00    +0.000 A 
ATOM     13  C   UNL     1      52.182   1.182  17.556  0.00  0.00    +0.000 A 
ATOM     14  N   UNL     1      50.907   1.234  17.119  0.00  0.00    +0.000 NA
ATOM     15  C   UNL     1      50.298   2.445  17.180  0.00  0.00    +0.000 A 
ENDBRANCH   8  10
ENDBRANCH   1   4
BRANCH   1  16
ATOM     16  N   UNL     1      48.646   6.759  14.188  0.00  0.00    +0.000 N 
ATOM     17  H   UNL     1      49.372   6.240  13.708  0.00  0.00    +0.000 HD
BRANCH  16  23
ATOM     18  C   UNL     1      46.833   5.025  14.103  0.00  0.00    +0.000 A 
ATOM     19  C   UNL     1      45.533   4.758  13.644  0.00  0.00    +0.000 A 
ATOM     20  C   UNL     1      44.847   5.702  12.895  0.00  0.00    +0.000 A 
ATOM     21  C   UNL     1      45.482   6.903  12.629  0.00  0.00    +0.000 A 
ATOM     22  N   UNL     1      46.722   7.199  13.059  0.00  0.00    +0.000 NA
ATOM     23  C   UNL     1      47.400   6.276  13.793  0.00  0.00    +0.000 A 
BRANCH  18  25
ATOM     24  C   UNL     1      47.067   3.869  16.180  0.00  0.00    +0.000 C 
ATOM     25  O   UNL     1      47.538   4.124  14.860  0.00  0.00    +0.000 OA
ENDBRANCH  18  25
BRANCH  20  26
ATOM     26  C   UNL     1      43.531   5.467  12.411  0.00  0.00    +0.000 C 
ATOM     27  N   UNL     1      42.452   5.281  12.027  0.00  0.00    +0.000 NA
ENDBRANCH  20  26
ENDBRANCH  16  23
ENDBRANCH   1  16
TORSDOF 6
ENDMDL
MODEL 4
REMARK VINA RESULT:    -6.075      2.541      7.453
REMARK INTER + INTRA:          -9.057
REMARK INTER:                  -8.940
REMARK INTRA:                  -0.116
REMARK UNBOUND:                -0.851
REMARK  Name = 
REMARK  7 active torsions:
REMARK  status: ('A' for Active; 'I' for Inactive)
REMARK    1  A    between atoms: C_1  and  O_2
REMARK    2  A    between atoms: O_2  and  C_3
REMARK    3  A    between atoms: C_5  and  C_6
REMARK    4  A    between atoms: C_10  and  N_11
REMARK    5  A    between atoms: N_11  and  C_12
REMARK    6  A    between atoms: C_12  and  C_13
REMARK    7  A    between atoms: C_17  and  C_18
REMARK                            x       y       z     vdW  Elec       q    Type
REMARK                         _______ _______ _______ _____ _____    ______ ____
ROOT
ATOM      1  C   UNL     1      46.472   7.347  12.339  0.00  0.00    +0.000 C 
ATOM      2  C   UNL     1      46.470   8.797  11.887  0.00  0.00    +0.000 C 
ATOM      3  C   UNL     1      45.781   8.446  13.158  0.00  0.00    +0.000 C 
ENDROOT
BRANCH   1   4
ATOM      4  C   UNL     1      45.452   6.344  11.802  0.00  0.00    +0.000 A 
ATOM      5  C   UNL     1      44.071   6.551  11.961  0.00  0.00    +0.000 A 
ATOM      6  C   UNL     1      43.141   5.816  11.227  0.00  0.00    +0.000 A 
ATOM      7  C   UNL     1      43.580   4.850  10.322  0.00  0.00    +0.000 A 
ATOM      8  C   UNL     1      44.946   4.567  10.171  0.00  0.00    +0.000 A 
ATOM      9  C   UNL     1      45.854   5.298  10.957  0.00  0.00    +0.000 A 
BRANCH   8  10
ATOM     10  C   UNL     1      45.442   3.624   9.155  0.00  0.00    +0.000 A 
ATOM     11  C   UNL     1      46.066   4.066   7.981  0.00  0.00    +0.000 A 
ATOM     12  C   UNL     1      46.578   3.150   7.064  0.00  0.00    +0.000 A 
ATOM     13  C   UNL     1      46.460   1.802   7.347  0.00  0.00    +0.000 A 
ATOM     14  N   UNL     1      45.875   1.321   8.463  0.00  0.00    +0.000 NA
ATOM     15  C   UNL     1      45.382   2.240   9.330  0.00  0.00    +0.000 A 
ENDBRANCH   8  10
ENDBRANCH   1   4
BRANCH   1  16
ATOM     16  N   UNL     1      47.708   6.782  12.862  0.00  0.00    +0.000 N 
ATOM     17  H   UNL     1      48.579   6.919  12.363  0.00  0.00    +0.000 HD
BRANCH  16  23
ATOM     18  C   UNL     1      48.736   6.927  15.148  0.00  0.00    +0.000 A 
ATOM     19  C   UNL     1      48.848   6.280  16.389  0.00  0.00    +0.000 A 
ATOM     20  C   UNL     1      48.244   5.049  16.594  0.00  0.00    +0.000 A 
ATOM     21  C   UNL     1      47.530   4.494  15.545  0.00  0.00    +0.000 A 
ATOM     22  N   UNL     1      47.392   5.088  14.345  0.00  0.00    +0.000 NA
ATOM     23  C   UNL     1      47.984   6.295  14.138  0.00  0.00    +0.000 A 
BRANCH  18  25
ATOM     24  C   UNL     1      48.623   9.298  15.415  0.00  0.00    +0.000 C 
ATOM     25  O   UNL     1      49.304   8.152  14.910  0.00  0.00    +0.000 OA
ENDBRANCH  18  25
BRANCH  20  26
ATOM     26  C   UNL     1      48.337   4.362  17.836  0.00  0.00    +0.000 C 
ATOM     27  N   UNL     1      48.399   3.802  18.849  0.00  0.00    +0.000 NA
ENDBRANCH  20  26
ENDBRANCH  16  23
ENDBRANCH   1  16
TORSDOF 6
ENDMDL
MODEL 5
REMARK VINA RESULT:    -6.042      3.171      8.067
REMARK INTER + INTRA:          -9.012
REMARK INTER:                  -8.244
REMARK INTRA:                  -0.768
REMARK UNBOUND:                -0.851
REMARK  Name = 
REMARK  7 active torsions:
REMARK  status: ('A' for Active; 'I' for Inactive)
REMARK    1  A    between atoms: C_1  and  O_2
REMARK    2  A    between atoms: O_2  and  C_3
REMARK    3  A    between atoms: C_5  and  C_6
REMARK    4  A    between atoms: C_10  and  N_11
REMARK    5  A    between atoms: N_11  and  C_12
REMARK    6  A    between atoms: C_12  and  C_13
REMARK    7  A    between atoms: C_17  and  C_18
REMARK                            x       y       z     vdW  Elec       q    Type
REMARK                         _______ _______ _______ _____ _____    ______ ____
ROOT
ATOM      1  C   UNL     1      49.291   7.669  12.698  0.00  0.00    +0.000 C 
ATOM      2  C   UNL     1      50.089   7.702  11.406  0.00  0.00    +0.000 C 
ATOM      3  C   UNL     1      49.699   8.992  12.035  0.00  0.00    +0.000 C 
ENDROOT
BRANCH   1   4
ATOM      4  C   UNL     1      47.773   7.501  12.691  0.00  0.00    +0.000 A 
ATOM      5  C   UNL     1      46.920   8.545  13.088  0.00  0.00    +0.000 A 
ATOM      6  C   UNL     1      45.556   8.512  12.805  0.00  0.00    +0.000 A 
ATOM      7  C   UNL     1      45.016   7.422  12.122  0.00  0.00    +0.000 A 
ATOM      8  C   UNL     1      45.816   6.329  11.757  0.00  0.00    +0.000 A 
ATOM      9  C   UNL     1      47.180   6.377  12.094  0.00  0.00    +0.000 A 
BRANCH   8  10
ATOM     10  C   UNL     1      45.294   5.213  10.951  0.00  0.00    +0.000 A 
ATOM     11  C   UNL     1      45.499   5.142   9.567  0.00  0.00    +0.000 A 
ATOM     12  C   UNL     1      45.045   4.045   8.839  0.00  0.00    +0.000 A 
ATOM     13  C   UNL     1      44.396   3.031   9.518  0.00  0.00    +0.000 A 
ATOM     14  N   UNL     1      44.175   3.042  10.848  0.00  0.00    +0.000 NA
ATOM     15  C   UNL     1      44.626   4.128  11.524  0.00  0.00    +0.000 A 
ENDBRANCH   8  10
ENDBRANCH   1   4
BRANCH   1  16
ATOM     16  N   UNL     1      49.970   7.284  13.926  0.00  0.00    +0.000 N 
ATOM     17  H   UNL     1      50.981   7.234  13.952  0.00  0.00    +0.000 HD
BRANCH  16  23
ATOM     18  C   UNL     1      49.206   8.327  16.078  0.00  0.00    +0.000 A 
ATOM     19  C   UNL     1      48.657   8.058  17.343  0.00  0.00    +0.000 A 
ATOM     20  C   UNL     1      48.410   6.751  17.735  0.00  0.00    +0.000 A 
ATOM     21  C   UNL     1      48.712   5.738  16.841  0.00  0.00    +0.000 A 
ATOM     22  N   UNL     1      49.229   5.957  15.617  0.00  0.00    +0.000 NA
ATOM     23  C   UNL     1      49.476   7.237  15.229  0.00  0.00    +0.000 A 
BRANCH  18  25
ATOM     24  C   UNL     1      50.658  10.223  16.083  0.00  0.00    +0.000 C 
ATOM     25  O   UNL     1      49.450   9.606  15.647  0.00  0.00    +0.000 OA
ENDBRANCH  18  25
BRANCH  20  26
ATOM     26  C   UNL     1      47.858   6.439  19.007  0.00  0.00    +0.000 C 
ATOM     27  N   UNL     1      47.418   6.194  20.052  0.00  0.00    +0.000 NA
ENDBRANCH  20  26
ENDBRANCH  16  23
ENDBRANCH   1  16
TORSDOF 6
ENDMDL
MODEL 6
REMARK VINA RESULT:    -5.927      3.121      8.038
REMARK INTER + INTRA:          -8.857
REMARK INTER:                  -8.255
REMARK INTRA:                  -0.603
REMARK UNBOUND:                -0.851
REMARK  Name = 
REMARK  7 active torsions:
REMARK  status: ('A' for Active; 'I' for Inactive)
REMARK    1  A    between atoms: C_1  and  O_2
REMARK    2  A    between atoms: O_2  and  C_3
REMARK    3  A    between atoms: C_5  and  C_6
REMARK    4  A    between atoms: C_10  and  N_11
REMARK    5  A    between atoms: N_11  and  C_12
REMARK    6  A    between atoms: C_12  and  C_13
REMARK    7  A    between atoms: C_17  and  C_18
REMARK                            x       y       z     vdW  Elec       q    Type
REMARK                         _______ _______ _______ _____ _____    ______ ____
ROOT
ATOM      1  C   UNL     1      49.165   7.639  12.693  0.00  0.00    +0.000 C 
ATOM      2  C   UNL     1      50.047   7.659  11.456  0.00  0.00    +0.000 C 
ATOM      3  C   UNL     1      49.610   8.956  12.041  0.00  0.00    +0.000 C 
ENDROOT
BRANCH   1   4
ATOM      4  C   UNL     1      47.651   7.462  12.588  0.00  0.00    +0.000 A 
ATOM      5  C   UNL     1      46.769   8.497  12.945  0.00  0.00    +0.000 A 
ATOM      6  C   UNL     1      45.425   8.460  12.575  0.00  0.00    +0.000 A 
ATOM      7  C   UNL     1      44.936   7.377  11.846  0.00  0.00    +0.000 A 
ATOM      8  C   UNL     1      45.765   6.293  11.517  0.00  0.00    +0.000 A 
ATOM      9  C   UNL     1      47.105   6.344  11.940  0.00  0.00    +0.000 A 
BRANCH   8  10
ATOM     10  C   UNL     1      45.301   5.185  10.665  0.00  0.00    +0.000 A 
ATOM     11  C   UNL     1      45.603   5.129   9.298  0.00  0.00    +0.000 A 
ATOM     12  C   UNL     1      45.202   4.040   8.528  0.00  0.00    +0.000 A 
ATOM     13  C   UNL     1      44.508   3.018   9.149  0.00  0.00    +0.000 A 
ATOM     14  N   UNL     1      44.195   3.015  10.461  0.00  0.00    +0.000 NA
ATOM     15  C   UNL     1      44.596   4.094  11.179  0.00  0.00    +0.000 A 
ENDBRANCH   8  10
ENDBRANCH   1   4
BRANCH   1  16
ATOM     16  N   UNL     1      49.763   7.273  13.968  0.00  0.00    +0.000 N 
ATOM     17  H   UNL     1      50.742   7.016  14.014  0.00  0.00    +0.000 HD
BRANCH  16  23
ATOM     18  C   UNL     1      48.810   6.520  16.165  0.00  0.00    +0.000 A 
ATOM     19  C   UNL     1      48.422   6.949  17.446  0.00  0.00    +0.000 A 
ATOM     20  C   UNL     1      48.495   8.291  17.786  0.00  0.00    +0.000 A 
ATOM     21  C   UNL     1      48.966   9.177  16.833  0.00  0.00    +0.000 A 
ATOM     22  N   UNL     1      49.356   8.803  15.600  0.00  0.00    +0.000 NA
ATOM     23  C   UNL     1      49.285   7.488  15.260  0.00  0.00    +0.000 A 
BRANCH  18  25
ATOM     24  C   UNL     1      47.887   4.345  16.517  0.00  0.00    +0.000 C 
ATOM     25  O   UNL     1      48.769   5.200  15.795  0.00  0.00    +0.000 OA
ENDBRANCH  18  25
BRANCH  20  26
ATOM     26  C   UNL     1      48.108   8.762  19.070  0.00  0.00    +0.000 C 
ATOM     27  N   UNL     1      47.779   9.144  20.115  0.00  0.00    +0.000 NA
ENDBRANCH  20  26
ENDBRANCH  16  23
ENDBRANCH   1  16
TORSDOF 6
ENDMDL
MODEL 7
REMARK VINA RESULT:    -5.908      3.519      7.304
REMARK INTER + INTRA:          -8.831
REMARK INTER:                  -7.892
REMARK INTRA:                  -0.939
REMARK UNBOUND:                -0.851
REMARK  Name = 
REMARK  7 active torsions:
REMARK  status: ('A' for Active; 'I' for Inactive)
REMARK    1  A    between atoms: C_1  and  O_2
REMARK    2  A    between atoms: O_2  and  C_3
REMARK    3  A    between atoms: C_5  and  C_6
REMARK    4  A    between atoms: C_10  and  N_11
REMARK    5  A    between atoms: N_11  and  C_12
REMARK    6  A    between atoms: C_12  and  C_13
REMARK    7  A    between atoms: C_17  and  C_18
REMARK                            x       y       z     vdW  Elec       q    Type
REMARK                         _______ _______ _______ _____ _____    ______ ____
ROOT
ATOM      1  C   UNL     1      45.951   5.179  13.060  0.00  0.00    +0.000 C 
ATOM      2  C   UNL     1      44.549   4.660  13.330  0.00  0.00    +0.000 C 
ATOM      3  C   UNL     1      45.186   4.346  12.022  0.00  0.00    +0.000 C 
ENDROOT
BRANCH   1   4
ATOM      4  C   UNL     1      46.189   6.600  12.551  0.00  0.00    +0.000 A 
ATOM      5  C   UNL     1      45.243   7.619  12.760  0.00  0.00    +0.000 A 
ATOM      6  C   UNL     1      45.573   8.960  12.574  0.00  0.00    +0.000 A 
ATOM      7  C   UNL     1      46.860   9.307  12.163  0.00  0.00    +0.000 A 
ATOM      8  C   UNL     1      47.821   8.322  11.885  0.00  0.00    +0.000 A 
ATOM      9  C   UNL     1      47.442   6.978  12.044  0.00  0.00    +0.000 A 
BRANCH   8  10
ATOM     10  C   UNL     1      49.213   8.662  11.545  0.00  0.00    +0.000 A 
ATOM     11  C   UNL     1      50.189   7.674  11.360  0.00  0.00    +0.000 A 
ATOM     12  C   UNL     1      51.484   8.021  10.982  0.00  0.00    +0.000 A 
ATOM     13  C   UNL     1      51.774   9.359  10.788  0.00  0.00    +0.000 A 
ATOM     14  N   UNL     1      50.874  10.351  10.946  0.00  0.00    +0.000 NA
ATOM     15  C   UNL     1      49.625   9.978  11.320  0.00  0.00    +0.000 A 
ENDBRANCH   8  10
ENDBRANCH   1   4
BRANCH   1  16
ATOM     16  N   UNL     1      47.071   4.552  13.747  0.00  0.00    +0.000 N 
ATOM     17  H   UNL     1      47.806   4.103  13.214  0.00  0.00    +0.000 HD
BRANCH  16  23
ATOM     18  C   UNL     1      48.329   5.705  15.588  0.00  0.00    +0.000 A 
ATOM     19  C   UNL     1      48.584   5.701  16.970  0.00  0.00    +0.000 A 
ATOM     20  C   UNL     1      48.031   4.723  17.781  0.00  0.00    +0.000 A 
ATOM     21  C   UNL     1      47.223   3.769  17.187  0.00  0.00    +0.000 A 
ATOM     22  N   UNL     1      46.947   3.745  15.869  0.00  0.00    +0.000 NA
ATOM     23  C   UNL     1      47.489   4.701  15.069  0.00  0.00    +0.000 A 
BRANCH  18  25
ATOM     24  C   UNL     1      50.146   7.161  15.053  0.00  0.00    +0.000 C 
ATOM     25  O   UNL     1      48.844   6.664  14.754  0.00  0.00    +0.000 OA
ENDBRANCH  18  25
BRANCH  20  26
ATOM     26  C   UNL     1      48.269   4.685  19.182  0.00  0.00    +0.000 C 
ATOM     27  N   UNL     1      48.465   4.669  20.325  0.00  0.00    +0.000 NA
ENDBRANCH  20  26
ENDBRANCH  16  23
ENDBRANCH   1  16
TORSDOF 6
ENDMDL
MODEL 8
REMARK VINA RESULT:    -5.506      3.660      7.769
REMARK INTER + INTRA:          -8.289
REMARK INTER:                  -7.327
REMARK INTRA:                  -0.962
REMARK UNBOUND:                -0.851
REMARK  Name = 
REMARK  7 active torsions:
REMARK  status: ('A' for Active; 'I' for Inactive)
REMARK    1  A    between atoms: C_1  and  O_2
REMARK    2  A    between atoms: O_2  and  C_3
REMARK    3  A    between atoms: C_5  and  C_6
REMARK    4  A    between atoms: C_10  and  N_11
REMARK    5  A    between atoms: N_11  and  C_12
REMARK    6  A    between atoms: C_12  and  C_13
REMARK    7  A    between atoms: C_17  and  C_18
REMARK                            x       y       z     vdW  Elec       q    Type
REMARK                         _______ _______ _______ _____ _____    ______ ____
ROOT
ATOM      1  C   UNL     1      48.736   8.161  16.243  0.00  0.00    +0.000 C 
ATOM      2  C   UNL     1      49.565   9.308  16.793  0.00  0.00    +0.000 C 
ATOM      3  C   UNL     1      48.097   9.498  16.643  0.00  0.00    +0.000 C 
ENDROOT
BRANCH   1   4
ATOM      4  C   UNL     1      48.605   7.923  14.739  0.00  0.00    +0.000 A 
ATOM      5  C   UNL     1      49.628   8.298  13.849  0.00  0.00    +0.000 A 
ATOM      6  C   UNL     1      49.655   7.822  12.539  0.00  0.00    +0.000 A 
ATOM      7  C   UNL     1      48.649   6.966  12.091  0.00  0.00    +0.000 A 
ATOM      8  C   UNL     1      47.576   6.612  12.924  0.00  0.00    +0.000 A 
ATOM      9  C   UNL     1      47.559   7.142  14.226  0.00  0.00    +0.000 A 
BRANCH   8  10
ATOM     10  C   UNL     1      46.556   5.634  12.511  0.00  0.00    +0.000 A 
ATOM     11  C   UNL     1      45.858   5.763  11.303  0.00  0.00    +0.000 A 
ATOM     12  C   UNL     1      44.940   4.792  10.909  0.00  0.00    +0.000 A 
ATOM     13  C   UNL     1      44.743   3.701  11.736  0.00  0.00    +0.000 A 
ATOM     14  N   UNL     1      45.390   3.523  12.906  0.00  0.00    +0.000 NA
ATOM     15  C   UNL     1      46.272   4.490  13.261  0.00  0.00    +0.000 A 
ENDBRANCH   8  10
ENDBRANCH   1   4
BRANCH   1  16
ATOM     16  N   UNL     1      48.492   7.006  17.095  0.00  0.00    +0.000 N 
ATOM     17  H   UNL     1      47.582   6.873  17.519  0.00  0.00    +0.000 HD
BRANCH  16  23
ATOM     18  C   UNL     1      50.512   5.690  17.795  0.00  0.00    +0.000 A 
ATOM     19  C   UNL     1      51.060   4.399  17.870  0.00  0.00    +0.000 A 
ATOM     20  C   UNL     1      50.358   3.311  17.376  0.00  0.00    +0.000 A 
ATOM     21  C   UNL     1      49.111   3.541  16.822  0.00  0.00    +0.000 A 
ATOM     22  N   UNL     1      48.548   4.761  16.740  0.00  0.00    +0.000 NA
ATOM     23  C   UNL     1      49.233   5.833  17.222  0.00  0.00    +0.000 A 
BRANCH  18  25
ATOM     24  C   UNL     1      50.994   7.090  19.669  0.00  0.00    +0.000 C 
ATOM     25  O   UNL     1      51.166   6.791  18.287  0.00  0.00    +0.000 OA
ENDBRANCH  18  25
BRANCH  20  26
ATOM     26  C   UNL     1      50.882   1.990  17.432  0.00  0.00    +0.000 C 
ATOM     27  N   UNL     1      51.296   0.908  17.478  0.00  0.00    +0.000 NA
ENDBRANCH  20  26
ENDBRANCH  16  23
ENDBRANCH   1  16
TORSDOF 6
ENDMDL
MODEL 9
REMARK VINA RESULT:    -5.301      3.114      7.575
REMARK INTER + INTRA:          -8.011
REMARK INTER:                  -7.408
REMARK INTRA:                  -0.603
REMARK UNBOUND:                -0.851
REMARK  Name = 
REMARK  7 active torsions:
REMARK  status: ('A' for Active; 'I' for Inactive)
REMARK    1  A    between atoms: C_1  and  O_2
REMARK    2  A    between atoms: O_2  and  C_3
REMARK    3  A    between atoms: C_5  and  C_6
REMARK    4  A    between atoms: C_10  and  N_11
REMARK    5  A    between atoms: N_11  and  C_12
REMARK    6  A    between atoms: C_12  and  C_13
REMARK    7  A    between atoms: C_17  and  C_18
REMARK                            x       y       z     vdW  Elec       q    Type
REMARK                         _______ _______ _______ _____ _____    ______ ____
ROOT
ATOM      1  C   UNL     1      48.832   8.165  15.848  0.00  0.00    +0.000 C 
ATOM      2  C   UNL     1      49.831   9.171  16.394  0.00  0.00    +0.000 C 
ATOM      3  C   UNL     1      48.392   9.549  16.345  0.00  0.00    +0.000 C 
ENDROOT
BRANCH   1   4
ATOM      4  C   UNL     1      48.588   8.021  14.347  0.00  0.00    +0.000 A 
ATOM      5  C   UNL     1      49.515   8.503  13.407  0.00  0.00    +0.000 A 
ATOM      6  C   UNL     1      49.454   8.117  12.069  0.00  0.00    +0.000 A 
ATOM      7  C   UNL     1      48.453   7.244  11.644  0.00  0.00    +0.000 A 
ATOM      8  C   UNL     1      47.470   6.783  12.533  0.00  0.00    +0.000 A 
ATOM      9  C   UNL     1      47.537   7.225  13.866  0.00  0.00    +0.000 A 
BRANCH   8  10
ATOM     10  C   UNL     1      46.462   5.787  12.136  0.00  0.00    +0.000 A 
ATOM     11  C   UNL     1      46.179   4.667  12.928  0.00  0.00    +0.000 A 
ATOM     12  C   UNL     1      45.178   3.771  12.557  0.00  0.00    +0.000 A 
ATOM     13  C   UNL     1      44.473   4.021  11.395  0.00  0.00    +0.000 A 
ATOM     14  N   UNL     1      44.698   5.085  10.597  0.00  0.00    +0.000 NA
ATOM     15  C   UNL     1      45.682   5.932  10.985  0.00  0.00    +0.000 A 
ENDBRANCH   8  10
ENDBRANCH   1   4
BRANCH   1  16
ATOM     16  N   UNL     1      48.492   7.008  16.664  0.00  0.00    +0.000 N 
ATOM     17  H   UNL     1      47.521   6.796  16.863  0.00  0.00    +0.000 HD
BRANCH  16  23
ATOM     18  C   UNL     1      48.857   4.585  17.207  0.00  0.00    +0.000 A 
ATOM     19  C   UNL     1      49.832   3.619  17.506  0.00  0.00    +0.000 A 
ATOM     20  C   UNL     1      51.165   3.982  17.621  0.00  0.00    +0.000 A 
ATOM     21  C   UNL     1      51.494   5.312  17.423  0.00  0.00    +0.000 A 
ATOM     22  N   UNL     1      50.590   6.264  17.125  0.00  0.00    +0.000 NA
ATOM     23  C   UNL     1      49.281   5.914  17.014  0.00  0.00    +0.000 A 
BRANCH  18  25
ATOM     24  C   UNL     1      47.120   2.975  17.518  0.00  0.00    +0.000 C 
ATOM     25  O   UNL     1      47.531   4.264  17.070  0.00  0.00    +0.000 OA
ENDBRANCH  18  25
BRANCH  20  26
ATOM     26  C   UNL     1      52.179   3.033  17.925  0.00  0.00    +0.000 C 
ATOM     27  N   UNL     1      53.001   2.257  18.186  0.00  0.00    +0.000 NA
ENDBRANCH  20  26
ENDBRANCH  16  23
ENDBRANCH   1  16
TORSDOF 6
ENDMDL
