MODEL 1
REMARK VINA RESULT:    -8.422      0.000      0.000
REMARK INTER + INTRA:         -12.458
REMARK INTER:                 -11.622
REMARK INTRA:                  -0.836
REMARK UNBOUND:                -0.836
REMARK  Name = 
REMARK  7 active torsions:
REMARK  status: ('A' for Active; 'I' for Inactive)
REMARK    1  A    between atoms: C_2  and  C_20
REMARK    2  A    between atoms: N_3  and  C_4
REMARK    3  A    between atoms: C_4  and  C_5
REMARK    4  A    between atoms: C_8  and  C_9
REMARK    5  A    between atoms: C_9  and  O_10
REMARK    6  A    between atoms: C_9  and  C_11
REMARK    7  A    between atoms: C_11  and  C_12
REMARK                            x       y       z     vdW  Elec       q    Type
REMARK                         _______ _______ _______ _____ _____    ______ ____
ROOT
ATOM      1  C   UNL     1      46.727   8.007  13.223  0.00  0.00    +0.000 C 
ENDROOT
BRANCH   1   2
ATOM      2  C   UNL     1      46.087   6.843  12.514  0.00  0.00    +0.000 A 
ATOM      3  C   UNL     1      46.326   6.614  11.164  0.00  0.00    +0.000 A 
ATOM      4  N   UNL     1      45.775   5.578  10.481  0.00  0.00    +0.000 NA
ATOM      5  C   UNL     1      44.962   4.758  11.197  0.00  0.00    +0.000 A 
ATOM      6  C   UNL     1      44.694   5.014  12.539  0.00  0.00    +0.000 A 
ATOM      7  N   UNL     1      45.250   6.042  13.224  0.00  0.00    +0.000 NA
BRANCH   5   8
ATOM      8  C   UNL     1      44.269   3.609  10.491  0.00  0.00    +0.000 C 
BRANCH   8   9
ATOM      9  O   UNL     1      42.919   3.552  10.963  0.00  0.00    +0.000 OA
ATOM     10  H   UNL     1      42.935   3.009  11.771  0.00  0.00    +0.000 HD
ENDBRANCH   8   9
BRANCH   8  11
ATOM     11  C   UNL     1      44.293   3.758   8.956  0.00  0.00    +0.000 C 
BRANCH  11  12
ATOM     12  C   UNL     1      45.369   2.929   8.300  0.00  0.00    +0.000 A 
ATOM     13  C   UNL     1      46.216   3.473   7.326  0.00  0.00    +0.000 A 
ATOM     14  C   UNL     1      47.188   2.677   6.734  0.00  0.00    +0.000 A 
ATOM     15  C   UNL     1      47.289   1.355   7.131  0.00  0.00    +0.000 A 
ATOM     16  N   UNL     1      46.487   0.791   8.061  0.00  0.00    +0.000 NA
ATOM     17  C   UNL     1      45.548   1.588   8.620  0.00  0.00    +0.000 A 
ENDBRANCH  11  12
ENDBRANCH   8  11
ENDBRANCH   5   8
ENDBRANCH   1   2
BRANCH   1  20
ATOM     18  O   UNL     1      49.047   6.434  13.441  0.00  0.00    +0.000 OA
ATOM     19  C   UNL     1      48.488   6.803  14.469  0.00  0.00    +0.000 C 
ATOM     20  N   UNL     1      47.385   7.613  14.446  0.00  0.00    +0.000 N 
ATOM     21  H   UNL     1      46.924   7.875  15.308  0.00  0.00    +0.000 HD
BRANCH  19  22
ATOM     22  C   UNL     1      48.988   6.442  15.799  0.00  0.00    +0.000 A 
ATOM     23  C   UNL     1      49.964   7.218  16.411  0.00  0.00    +0.000 A 
ATOM     24  S   UNL     1      50.413   6.644  17.955  0.00  0.00    +0.000 S 
ATOM     25  C   UNL     1      49.341   5.325  17.841  0.00  0.00    +0.000 A 
ATOM     26  N   UNL     1      49.241   4.413  18.846  0.00  0.00    +0.000 NA
ATOM     27  C   UNL     1      48.410   3.453  18.615  0.00  0.00    +0.000 A 
ATOM     28  N   UNL     1      47.667   3.322  17.470  0.00  0.00    +0.000 N 
ATOM     29  C   UNL     1      47.713   4.232  16.443  0.00  0.00    +0.000 A 
ATOM     30  O   UNL     1      46.990   4.113  15.459  0.00  0.00    +0.000 OA
ATOM     31  C   UNL     1      48.642   5.328  16.649  0.00  0.00    +0.000 A 
ATOM     32  H   UNL     1      47.019   2.555  17.359  0.00  0.00    +0.000 HD
ENDBRANCH  19  22
ENDBRANCH   1  20
TORSDOF 7
ENDMDL
MODEL 2
REMARK VINA RESULT:    -8.021      1.991      2.429
REMARK INTER + INTRA:         -11.905
REMARK INTER:                 -11.030
REMARK INTRA:                  -0.875
REMARK UNBOUND:                -0.836
REMARK  Name = 
REMARK  7 active torsions:
REMARK  status: ('A' for Active; 'I' for Inactive)
REMARK    1  A    between atoms: C_2  and  C_20
REMARK    2  A    between atoms: N_3  and  C_4
REMARK    3  A    between atoms: C_4  and  C_5
REMARK    4  A    between atoms: C_8  and  C_9
REMARK    5  A    between atoms: C_9  and  O_10
REMARK    6  A    between atoms: C_9  and  C_11
REMARK    7  A    between atoms: C_11  and  C_12
REMARK                            x       y       z     vdW  Elec       q    Type
REMARK                         _______ _______ _______ _____ _____    ______ ____
ROOT
ATOM      1  C   UNL     1      47.673   6.978  13.592  0.00  0.00    +0.000 C 
ENDROOT
BRANCH   1   2
ATOM      2  C   UNL     1      46.766   6.069  12.807  0.00  0.00    +0.000 A 
ATOM      3  C   UNL     1      46.395   4.827  13.309  0.00  0.00    +0.000 A 
ATOM      4  N   UNL     1      45.578   3.973  12.640  0.00  0.00    +0.000 NA
ATOM      5  C   UNL     1      45.131   4.401  11.430  0.00  0.00    +0.000 A 
ATOM      6  C   UNL     1      45.537   5.628  10.913  0.00  0.00    +0.000 A 
ATOM      7  N   UNL     1      46.344   6.485  11.584  0.00  0.00    +0.000 NA
BRANCH   5   8
ATOM      8  C   UNL     1      44.257   3.480  10.601  0.00  0.00    +0.000 C 
BRANCH   8   9
ATOM      9  O   UNL     1      42.908   3.624  11.057  0.00  0.00    +0.000 OA
ATOM     10  H   UNL     1      42.963   3.970  11.966  0.00  0.00    +0.000 HD
ENDBRANCH   8   9
BRANCH   8  11
ATOM     11  C   UNL     1      44.346   3.783   9.091  0.00  0.00    +0.000 C 
BRANCH  11  12
ATOM     12  C   UNL     1      45.402   2.967   8.388  0.00  0.00    +0.000 A 
ATOM     13  C   UNL     1      46.251   3.541   7.432  0.00  0.00    +0.000 A 
ATOM     14  C   UNL     1      47.204   2.758   6.795  0.00  0.00    +0.000 A 
ATOM     15  C   UNL     1      47.285   1.417   7.130  0.00  0.00    +0.000 A 
ATOM     16  N   UNL     1      46.482   0.824   8.039  0.00  0.00    +0.000 NA
ATOM     17  C   UNL     1      45.561   1.610   8.644  0.00  0.00    +0.000 A 
ENDBRANCH  11  12
ENDBRANCH   8  11
ENDBRANCH   5   8
ENDBRANCH   1   2
BRANCH   1  20
ATOM     18  O   UNL     1      49.994   6.668  15.150  0.00  0.00    +0.000 OA
ATOM     19  C   UNL     1      48.903   6.448  15.669  0.00  0.00    +0.000 C 
ATOM     20  N   UNL     1      47.727   6.627  14.992  0.00  0.00    +0.000 N 
ATOM     21  H   UNL     1      46.843   6.406  15.433  0.00  0.00    +0.000 HD
BRANCH  19  22
ATOM     22  C   UNL     1      48.778   6.023  17.066  0.00  0.00    +0.000 A 
ATOM     23  C   UNL     1      49.058   4.711  17.424  0.00  0.00    +0.000 A 
ATOM     24  S   UNL     1      48.863   4.410  19.093  0.00  0.00    +0.000 S 
ATOM     25  C   UNL     1      48.370   6.013  19.385  0.00  0.00    +0.000 A 
ATOM     26  N   UNL     1      48.032   6.427  20.636  0.00  0.00    +0.000 NA
ATOM     27  C   UNL     1      47.652   7.658  20.707  0.00  0.00    +0.000 A 
ATOM     28  N   UNL     1      47.580   8.516  19.640  0.00  0.00    +0.000 N 
ATOM     29  C   UNL     1      47.938   8.152  18.366  0.00  0.00    +0.000 A 
ATOM     30  O   UNL     1      47.917   8.964  17.446  0.00  0.00    +0.000 OA
ATOM     31  C   UNL     1      48.364   6.771  18.229  0.00  0.00    +0.000 A 
ATOM     32  H   UNL     1      47.292   9.476  19.766  0.00  0.00    +0.000 HD
ENDBRANCH  19  22
ENDBRANCH   1  20
TORSDOF 7
ENDMDL
MODEL 3
REMARK VINA RESULT:    -7.985      1.553      1.793
REMARK INTER + INTRA:         -11.856
REMARK INTER:                 -10.963
REMARK INTRA:                  -0.893
REMARK UNBOUND:                -0.836
REMARK  Name = 
REMARK  7 active torsions:
REMARK  status: ('A' for Active; 'I' for Inactive)
REMARK    1  A    between atoms: C_2  and  C_20
REMARK    2  A    between atoms: N_3  and  C_4
REMARK    3  A    between atoms: C_4  and  C_5
REMARK    4  A    between atoms: C_8  and  C_9
REMARK    5  A    between atoms: C_9  and  O_10
REMARK    6  A    between atoms: C_9  and  C_11
REMARK    7  A    between atoms: C_11  and  C_12
REMARK                            x       y       z     vdW  Elec       q    Type
REMARK                         _______ _______ _______ _____ _____    ______ ____
ROOT
ATOM      1  C   UNL     1      48.108   6.532  13.607  0.00  0.00    +0.000 C 
ENDROOT
BRANCH   1   2
ATOM      2  C   UNL     1      47.051   5.699  12.934  0.00  0.00    +0.000 A 
ATOM      3  C   UNL     1      46.724   4.437  13.416  0.00  0.00    +0.000 A 
ATOM      4  N   UNL     1      45.776   3.650  12.845  0.00  0.00    +0.000 NA
ATOM      5  C   UNL     1      45.149   4.167  11.756  0.00  0.00    +0.000 A 
ATOM      6  C   UNL     1      45.507   5.413  11.252  0.00  0.00    +0.000 A 
ATOM      7  N   UNL     1      46.446   6.204  11.826  0.00  0.00    +0.000 NA
BRANCH   5   8
ATOM      8  C   UNL     1      44.117   3.325  11.033  0.00  0.00    +0.000 C 
BRANCH   8   9
ATOM      9  O   UNL     1      42.847   3.554  11.654  0.00  0.00    +0.000 OA
ATOM     10  H   UNL     1      42.660   4.504  11.550  0.00  0.00    +0.000 HD
ENDBRANCH   8   9
BRANCH   8  11
ATOM     11  C   UNL     1      44.041   3.648   9.527  0.00  0.00    +0.000 C 
BRANCH  11  12
ATOM     12  C   UNL     1      45.132   2.983   8.726  0.00  0.00    +0.000 A 
ATOM     13  C   UNL     1      45.927   3.712   7.831  0.00  0.00    +0.000 A 
ATOM     14  C   UNL     1      46.916   3.066   7.101  0.00  0.00    +0.000 A 
ATOM     15  C   UNL     1      47.085   1.704   7.283  0.00  0.00    +0.000 A 
ATOM     16  N   UNL     1      46.337   0.964   8.130  0.00  0.00    +0.000 NA
ATOM     17  C   UNL     1      45.380   1.619   8.827  0.00  0.00    +0.000 A 
ENDBRANCH  11  12
ENDBRANCH   8  11
ENDBRANCH   5   8
ENDBRANCH   1   2
BRANCH   1  20
ATOM     18  O   UNL     1      49.838   7.770  15.446  0.00  0.00    +0.000 OA
ATOM     19  C   UNL     1      48.879   7.135  15.876  0.00  0.00    +0.000 C 
ATOM     20  N   UNL     1      47.964   6.549  15.044  0.00  0.00    +0.000 N 
ATOM     21  H   UNL     1      47.203   6.002  15.424  0.00  0.00    +0.000 HD
BRANCH  19  22
ATOM     22  C   UNL     1      48.618   6.998  17.312  0.00  0.00    +0.000 A 
ATOM     23  C   UNL     1      48.277   8.112  18.067  0.00  0.00    +0.000 A 
ATOM     24  S   UNL     1      48.004   7.754  19.714  0.00  0.00    +0.000 S 
ATOM     25  C   UNL     1      48.362   6.106  19.476  0.00  0.00    +0.000 A 
ATOM     26  N   UNL     1      48.328   5.224  20.511  0.00  0.00    +0.000 NA
ATOM     27  C   UNL     1      48.646   4.014  20.191  0.00  0.00    +0.000 A 
ATOM     28  N   UNL     1      48.995   3.605  18.930  0.00  0.00    +0.000 N 
ATOM     29  C   UNL     1      49.015   4.453  17.850  0.00  0.00    +0.000 A 
ATOM     30  O   UNL     1      49.274   4.039  16.724  0.00  0.00    +0.000 OA
ATOM     31  C   UNL     1      48.674   5.830  18.157  0.00  0.00    +0.000 A 
ATOM     32  H   UNL     1      49.215   2.638  18.742  0.00  0.00    +0.000 HD
ENDBRANCH  19  22
ENDBRANCH   1  20
TORSDOF 7
ENDMDL
MODEL 4
REMARK VINA RESULT:    -7.898      1.996      2.390
REMARK INTER + INTRA:         -11.735
REMARK INTER:                 -10.931
REMARK INTRA:                  -0.804
REMARK UNBOUND:                -0.836
REMARK  Name = 
REMARK  7 active torsions:
REMARK  status: ('A' for Active; 'I' for Inactive)
REMARK    1  A    between atoms: C_2  and  C_20
REMARK    2  A    between atoms: N_3  and  C_4
REMARK    3  A    between atoms: C_4  and  C_5
REMARK    4  A    between atoms: C_8  and  C_9
REMARK    5  A    between atoms: C_9  and  O_10
REMARK    6  A    between atoms: C_9  and  C_11
REMARK    7  A    between atoms: C_11  and  C_12
REMARK                            x       y       z     vdW  Elec       q    Type
REMARK                         _______ _______ _______ _____ _____    ______ ____
ROOT
ATOM      1  C   UNL     1      48.407   6.832  14.040  0.00  0.00    +0.000 C 
ENDROOT
BRANCH   1   2
ATOM      2  C   UNL     1      47.412   5.856  13.473  0.00  0.00    +0.000 A 
ATOM      3  C   UNL     1      46.430   6.276  12.582  0.00  0.00    +0.000 A 
ATOM      4  N   UNL     1      45.512   5.434  12.042  0.00  0.00    +0.000 NA
ATOM      5  C   UNL     1      45.602   4.133  12.421  0.00  0.00    +0.000 A 
ATOM      6  C   UNL     1      46.560   3.723  13.343  0.00  0.00    +0.000 A 
ATOM      7  N   UNL     1      47.483   4.560  13.877  0.00  0.00    +0.000 NA
BRANCH   5   8
ATOM      8  C   UNL     1      44.579   3.143  11.901  0.00  0.00    +0.000 C 
BRANCH   8   9
ATOM      9  O   UNL     1      43.543   3.022  12.882  0.00  0.00    +0.000 OA
ATOM     10  H   UNL     1      43.865   3.485  13.676  0.00  0.00    +0.000 HD
ENDBRANCH   8   9
BRANCH   8  11
ATOM     11  C   UNL     1      43.982   3.568  10.543  0.00  0.00    +0.000 C 
BRANCH  11  12
ATOM     12  C   UNL     1      44.911   3.307   9.384  0.00  0.00    +0.000 A 
ATOM     13  C   UNL     1      45.350   2.011   9.079  0.00  0.00    +0.000 A 
ATOM     14  C   UNL     1      46.215   1.809   8.011  0.00  0.00    +0.000 A 
ATOM     15  C   UNL     1      46.621   2.908   7.274  0.00  0.00    +0.000 A 
ATOM     16  N   UNL     1      46.227   4.173   7.540  0.00  0.00    +0.000 NA
ATOM     17  C   UNL     1      45.386   4.342   8.586  0.00  0.00    +0.000 A 
ENDBRANCH  11  12
ENDBRANCH   8  11
ENDBRANCH   5   8
ENDBRANCH   1   2
BRANCH   1  20
ATOM     18  O   UNL     1      50.244   6.183  16.068  0.00  0.00    +0.000 OA
ATOM     19  C   UNL     1      49.155   6.650  16.388  0.00  0.00    +0.000 C 
ATOM     20  N   UNL     1      48.229   7.039  15.458  0.00  0.00    +0.000 N 
ATOM     21  H   UNL     1      47.326   7.389  15.750  0.00  0.00    +0.000 HD
BRANCH  19  22
ATOM     22  C   UNL     1      48.784   6.870  17.789  0.00  0.00    +0.000 A 
ATOM     23  C   UNL     1      48.511   8.153  18.245  0.00  0.00    +0.000 A 
ATOM     24  S   UNL     1      48.093   8.207  19.900  0.00  0.00    +0.000 S 
ATOM     25  C   UNL     1      48.294   6.524  20.066  0.00  0.00    +0.000 A 
ATOM     26  N   UNL     1      48.099   5.909  21.264  0.00  0.00    +0.000 NA
ATOM     27  C   UNL     1      48.311   4.636  21.251  0.00  0.00    +0.000 A 
ATOM     28  N   UNL     1      48.700   3.920  20.147  0.00  0.00    +0.000 N 
ATOM     29  C   UNL     1      48.880   4.492  18.913  0.00  0.00    +0.000 A 
ATOM     30  O   UNL     1      49.170   3.810  17.935  0.00  0.00    +0.000 OA
ATOM     31  C   UNL     1      48.663   5.927  18.875  0.00  0.00    +0.000 A 
ATOM     32  H   UNL     1      48.831   2.920  20.200  0.00  0.00    +0.000 HD
ENDBRANCH  19  22
ENDBRANCH   1  20
TORSDOF 7
ENDMDL
MODEL 5
REMARK VINA RESULT:    -7.882      2.059      3.543
REMARK INTER + INTRA:         -11.714
REMARK INTER:                 -10.791
REMARK INTRA:                  -0.923
REMARK UNBOUND:                -0.836
REMARK  Name = 
REMARK  7 active torsions:
REMARK  status: ('A' for Active; 'I' for Inactive)
REMARK    1  A    between atoms: C_2  and  C_20
REMARK    2  A    between atoms: N_3  and  C_4
REMARK    3  A    between atoms: C_4  and  C_5
REMARK    4  A    between atoms: C_8  and  C_9
REMARK    5  A    between atoms: C_9  and  O_10
REMARK    6  A    between atoms: C_9  and  C_11
REMARK    7  A    between atoms: C_11  and  C_12
REMARK                            x       y       z     vdW  Elec       q    Type
REMARK                         _______ _______ _______ _____ _____    ______ ____
ROOT
ATOM      1  C   UNL     1      47.295   4.487  14.939  0.00  0.00    +0.000 C 
ENDROOT
BRANCH   1   2
ATOM      2  C   UNL     1      46.510   4.421  13.657  0.00  0.00    +0.000 A 
ATOM      3  C   UNL     1      46.288   5.564  12.898  0.00  0.00    +0.000 A 
ATOM      4  N   UNL     1      45.589   5.555  11.734  0.00  0.00    +0.000 NA
ATOM      5  C   UNL     1      45.107   4.348  11.338  0.00  0.00    +0.000 A 
ATOM      6  C   UNL     1      45.297   3.213  12.121  0.00  0.00    +0.000 A 
ATOM      7  N   UNL     1      46.002   3.218  13.278  0.00  0.00    +0.000 NA
BRANCH   5   8
ATOM      8  C   UNL     1      44.271   4.267  10.076  0.00  0.00    +0.000 C 
BRANCH   8   9
ATOM      9  O   UNL     1      43.197   5.206  10.198  0.00  0.00    +0.000 OA
ATOM     10  H   UNL     1      43.371   5.906   9.543  0.00  0.00    +0.000 HD
ENDBRANCH   8   9
BRANCH   8  11
ATOM     11  C   UNL     1      45.093   4.558   8.803  0.00  0.00    +0.000 C 
BRANCH  11  12
ATOM     12  C   UNL     1      45.802   3.339   8.269  0.00  0.00    +0.000 A 
ATOM     13  C   UNL     1      46.784   3.444   7.275  0.00  0.00    +0.000 A 
ATOM     14  C   UNL     1      47.409   2.299   6.797  0.00  0.00    +0.000 A 
ATOM     15  C   UNL     1      47.035   1.075   7.325  0.00  0.00    +0.000 A 
ATOM     16  N   UNL     1      46.088   0.930   8.278  0.00  0.00    +0.000 NA
ATOM     17  C   UNL     1      45.495   2.062   8.724  0.00  0.00    +0.000 A 
ENDBRANCH  11  12
ENDBRANCH   8  11
ENDBRANCH   5   8
ENDBRANCH   1   2
BRANCH   1  20
ATOM     18  O   UNL     1      49.489   5.310  16.494  0.00  0.00    +0.000 OA
ATOM     19  C   UNL     1      48.683   6.156  16.119  0.00  0.00    +0.000 C 
ATOM     20  N   UNL     1      47.620   5.843  15.317  0.00  0.00    +0.000 N 
ATOM     21  H   UNL     1      46.951   6.554  15.052  0.00  0.00    +0.000 HD
BRANCH  19  22
ATOM     22  C   UNL     1      48.827   7.574  16.465  0.00  0.00    +0.000 A 
ATOM     23  C   UNL     1      48.832   7.970  17.795  0.00  0.00    +0.000 A 
ATOM     24  S   UNL     1      49.017   9.655  17.998  0.00  0.00    +0.000 S 
ATOM     25  C   UNL     1      49.065   9.911  16.315  0.00  0.00    +0.000 A 
ATOM     26  N   UNL     1      49.195  11.164  15.799  0.00  0.00    +0.000 NA
ATOM     27  C   UNL     1      49.191  11.213  14.509  0.00  0.00    +0.000 A 
ATOM     28  N   UNL     1      49.068  10.123  13.686  0.00  0.00    +0.000 N 
ATOM     29  C   UNL     1      48.963   8.839  14.161  0.00  0.00    +0.000 A 
ATOM     30  O   UNL     1      48.915   7.882  13.394  0.00  0.00    +0.000 OA
ATOM     31  C   UNL     1      48.953   8.729  15.608  0.00  0.00    +0.000 A 
ATOM     32  H   UNL     1      49.090  10.228  12.682  0.00  0.00    +0.000 HD
ENDBRANCH  19  22
ENDBRANCH   1  20
TORSDOF 7
ENDMDL
MODEL 6
REMARK VINA RESULT:    -7.876      2.264      2.711
REMARK INTER + INTRA:         -11.705
REMARK INTER:                 -10.840
REMARK INTRA:                  -0.865
REMARK UNBOUND:                -0.836
REMARK  Name = 
REMARK  7 active torsions:
REMARK  status: ('A' for Active; 'I' for Inactive)
REMARK    1  A    between atoms: C_2  and  C_20
REMARK    2  A    between atoms: N_3  and  C_4
REMARK    3  A    between atoms: C_4  and  C_5
REMARK    4  A    between atoms: C_8  and  C_9
REMARK    5  A    between atoms: C_9  and  O_10
REMARK    6  A    between atoms: C_9  and  C_11
REMARK    7  A    between atoms: C_11  and  C_12
REMARK                            x       y       z     vdW  Elec       q    Type
REMARK                         _______ _______ _______ _____ _____    ______ ____
ROOT
ATOM      1  C   UNL     1      47.921   6.629  14.789  0.00  0.00    +0.000 C 
ENDROOT
BRANCH   1   2
ATOM      2  C   UNL     1      47.093   5.650  14.001  0.00  0.00    +0.000 A 
ATOM      3  C   UNL     1      46.010   6.081  13.243  0.00  0.00    +0.000 A 
ATOM      4  N   UNL     1      45.235   5.238  12.514  0.00  0.00    +0.000 NA
ATOM      5  C   UNL     1      45.577   3.924  12.561  0.00  0.00    +0.000 A 
ATOM      6  C   UNL     1      46.637   3.490  13.352  0.00  0.00    +0.000 A 
ATOM      7  N   UNL     1      47.417   4.332  14.073  0.00  0.00    +0.000 NA
BRANCH   5   8
ATOM      8  C   UNL     1      44.726   2.915  11.814  0.00  0.00    +0.000 C 
BRANCH   8   9
ATOM      9  O   UNL     1      43.682   2.483  12.693  0.00  0.00    +0.000 OA
ATOM     10  H   UNL     1      42.948   2.193  12.122  0.00  0.00    +0.000 HD
ENDBRANCH   8   9
BRANCH   8  11
ATOM     11  C   UNL     1      44.128   3.492  10.515  0.00  0.00    +0.000 C 
BRANCH  11  12
ATOM     12  C   UNL     1      45.042   3.337   9.326  0.00  0.00    +0.000 A 
ATOM     13  C   UNL     1      45.500   2.077   8.918  0.00  0.00    +0.000 A 
ATOM     14  C   UNL     1      46.350   1.972   7.824  0.00  0.00    +0.000 A 
ATOM     15  C   UNL     1      46.722   3.131   7.166  0.00  0.00    +0.000 A 
ATOM     16  N   UNL     1      46.310   4.364   7.531  0.00  0.00    +0.000 NA
ATOM     17  C   UNL     1      45.483   4.438   8.600  0.00  0.00    +0.000 A 
ENDBRANCH  11  12
ENDBRANCH   8  11
ENDBRANCH   5   8
ENDBRANCH   1   2
BRANCH   1  20
ATOM     18  O   UNL     1      47.885   5.531  17.378  0.00  0.00    +0.000 OA
ATOM     19  C   UNL     1      48.941   5.527  16.751  0.00  0.00    +0.000 C 
ATOM     20  N   UNL     1      49.027   5.995  15.468  0.00  0.00    +0.000 N 
ATOM     21  H   UNL     1      49.916   6.012  14.987  0.00  0.00    +0.000 HD
BRANCH  19  22
ATOM     22  C   UNL     1      50.178   4.977  17.315  0.00  0.00    +0.000 A 
ATOM     23  C   UNL     1      51.120   5.822  17.886  0.00  0.00    +0.000 A 
ATOM     24  S   UNL     1      52.487   4.998  18.493  0.00  0.00    +0.000 S 
ATOM     25  C   UNL     1      51.877   3.491  17.984  0.00  0.00    +0.000 A 
ATOM     26  N   UNL     1      52.580   2.344  18.188  0.00  0.00    +0.000 NA
ATOM     27  C   UNL     1      52.012   1.281  17.729  0.00  0.00    +0.000 A 
ATOM     28  N   UNL     1      50.802   1.258  17.083  0.00  0.00    +0.000 N 
ATOM     29  C   UNL     1      50.044   2.384  16.880  0.00  0.00    +0.000 A 
ATOM     30  O   UNL     1      48.939   2.318  16.352  0.00  0.00    +0.000 OA
ATOM     31  C   UNL     1      50.644   3.612  17.370  0.00  0.00    +0.000 A 
ATOM     32  H   UNL     1      50.402   0.387  16.764  0.00  0.00    +0.000 HD
ENDBRANCH  19  22
ENDBRANCH   1  20
TORSDOF 7
ENDMDL
MODEL 7
REMARK VINA RESULT:    -7.771      2.441      3.138
REMARK INTER + INTRA:         -11.559
REMARK INTER:                 -10.864
REMARK INTRA:                  -0.695
REMARK UNBOUND:                -0.836
REMARK  Name = 
REMARK  7 active torsions:
REMARK  status: ('A' for Active; 'I' for Inactive)
REMARK    1  A    between atoms: C_2  and  C_20
REMARK    2  A    between atoms: N_3  and  C_4
REMARK    3  A    between atoms: C_4  and  C_5
REMARK    4  A    between atoms: C_8  and  C_9
REMARK    5  A    between atoms: C_9  and  O_10
REMARK    6  A    between atoms: C_9  and  C_11
REMARK    7  A    between atoms: C_11  and  C_12
REMARK                            x       y       z     vdW  Elec       q    Type
REMARK                         _______ _______ _______ _____ _____    ______ ____
ROOT
ATOM      1  C   UNL     1      47.139   4.579  14.912  0.00  0.00    +0.000 C 
ENDROOT
BRANCH   1   2
ATOM      2  C   UNL     1      46.423   4.481  13.591  0.00  0.00    +0.000 A 
ATOM      3  C   UNL     1      46.328   5.584  12.750  0.00  0.00    +0.000 A 
ATOM      4  N   UNL     1      45.695   5.546  11.549  0.00  0.00    +0.000 NA
ATOM      5  C   UNL     1      45.149   4.352  11.201  0.00  0.00    +0.000 A 
ATOM      6  C   UNL     1      45.212   3.261  12.063  0.00  0.00    +0.000 A 
ATOM      7  N   UNL     1      45.851   3.295  13.258  0.00  0.00    +0.000 NA
BRANCH   5   8
ATOM      8  C   UNL     1      44.381   4.245   9.899  0.00  0.00    +0.000 C 
BRANCH   8   9
ATOM      9  O   UNL     1      43.301   5.183   9.946  0.00  0.00    +0.000 OA
ATOM     10  H   UNL     1      43.665   6.034   9.644  0.00  0.00    +0.000 HD
ENDBRANCH   8   9
BRANCH   8  11
ATOM     11  C   UNL     1      45.268   4.513   8.666  0.00  0.00    +0.000 C 
BRANCH  11  12
ATOM     12  C   UNL     1      45.938   3.269   8.140  0.00  0.00    +0.000 A 
ATOM     13  C   UNL     1      46.886   3.331   7.110  0.00  0.00    +0.000 A 
ATOM     14  C   UNL     1      47.474   2.163   6.642  0.00  0.00    +0.000 A 
ATOM     15  C   UNL     1      47.099   0.960   7.215  0.00  0.00    +0.000 A 
ATOM     16  N   UNL     1      46.184   0.857   8.204  0.00  0.00    +0.000 NA
ATOM     17  C   UNL     1      45.626   2.010   8.640  0.00  0.00    +0.000 A 
ENDBRANCH  11  12
ENDBRANCH   8  11
ENDBRANCH   5   8
ENDBRANCH   1   2
BRANCH   1  20
ATOM     18  O   UNL     1      49.307   5.238  16.577  0.00  0.00    +0.000 OA
ATOM     19  C   UNL     1      48.690   6.146  16.026  0.00  0.00    +0.000 C 
ATOM     20  N   UNL     1      47.659   5.903  15.161  0.00  0.00    +0.000 N 
ATOM     21  H   UNL     1      47.145   6.671  14.747  0.00  0.00    +0.000 HD
BRANCH  19  22
ATOM     22  C   UNL     1      49.046   7.555  16.217  0.00  0.00    +0.000 A 
ATOM     23  C   UNL     1      49.818   8.214  15.270  0.00  0.00    +0.000 A 
ATOM     24  S   UNL     1      50.121   9.848  15.663  0.00  0.00    +0.000 S 
ATOM     25  C   UNL     1      49.258   9.717  17.125  0.00  0.00    +0.000 A 
ATOM     26  N   UNL     1      49.142  10.778  17.969  0.00  0.00    +0.000 NA
ATOM     27  C   UNL     1      48.483  10.530  19.051  0.00  0.00    +0.000 A 
ATOM     28  N   UNL     1      47.929   9.316  19.367  0.00  0.00    +0.000 N 
ATOM     29  C   UNL     1      47.996   8.227  18.535  0.00  0.00    +0.000 A 
ATOM     30  O   UNL     1      47.437   7.173  18.824  0.00  0.00    +0.000 OA
ATOM     31  C   UNL     1      48.736   8.450  17.306  0.00  0.00    +0.000 A 
ATOM     32  H   UNL     1      47.409   9.193  20.224  0.00  0.00    +0.000 HD
ENDBRANCH  19  22
ENDBRANCH   1  20
TORSDOF 7
ENDMDL
MODEL 8
REMARK VINA RESULT:    -7.577      3.235      5.592
REMARK INTER + INTRA:         -11.292
REMARK INTER:                 -10.376
REMARK INTRA:                  -0.916
REMARK UNBOUND:                -0.836
REMARK  Name = 
REMARK  7 active torsions:
REMARK  status: ('A' for Active; 'I' for Inactive)
REMARK    1  A    between atoms: C_2  and  C_20
REMARK    2  A    between atoms: N_3  and  C_4
REMARK    3  A    between atoms: C_4  and  C_5
REMARK    4  A    between atoms: C_8  and  C_9
REMARK    5  A    between atoms: C_9  and  O_10
REMARK    6  A    between atoms: C_9  and  C_11
REMARK    7  A    between atoms: C_11  and  C_12
REMARK                            x       y       z     vdW  Elec       q    Type
REMARK                         _______ _______ _______ _____ _____    ______ ____
ROOT
ATOM      1  C   UNL     1      44.406   4.277  10.141  0.00  0.00    +0.000 C 
ENDROOT
BRANCH   1   2
ATOM      2  C   UNL     1      45.219   3.703   9.012  0.00  0.00    +0.000 A 
ATOM      3  C   UNL     1      45.405   2.330   8.895  0.00  0.00    +0.000 A 
ATOM      4  N   UNL     1      46.127   1.764   7.894  0.00  0.00    +0.000 NA
ATOM      5  C   UNL     1      46.670   2.622   6.992  0.00  0.00    +0.000 A 
ATOM      6  C   UNL     1      46.516   3.998   7.135  0.00  0.00    +0.000 A 
ATOM      7  N   UNL     1      45.788   4.564   8.128  0.00  0.00    +0.000 NA
BRANCH   5   8
ATOM      8  C   UNL     1      47.534   2.068   5.876  0.00  0.00    +0.000 C 
BRANCH   8   9
ATOM      9  O   UNL     1      48.892   2.429   6.149  0.00  0.00    +0.000 OA
ATOM     10  H   UNL     1      49.358   2.404   5.294  0.00  0.00    +0.000 HD
ENDBRANCH   8   9
BRANCH   8  11
ATOM     11  C   UNL     1      47.405   0.538   5.735  0.00  0.00    +0.000 C 
BRANCH  11  12
ATOM     12  C   UNL     1      46.813   0.116   4.413  0.00  0.00    +0.000 A 
ATOM     13  C   UNL     1      46.242   1.050   3.539  0.00  0.00    +0.000 A 
ATOM     14  C   UNL     1      45.695   0.624   2.335  0.00  0.00    +0.000 A 
ATOM     15  C   UNL     1      45.732  -0.727   2.036  0.00  0.00    +0.000 A 
ATOM     16  N   UNL     1      46.266  -1.659   2.854  0.00  0.00    +0.000 NA
ATOM     17  C   UNL     1      46.790  -1.218   4.020  0.00  0.00    +0.000 A 
ENDBRANCH  11  12
ENDBRANCH   8  11
ENDBRANCH   5   8
ENDBRANCH   1   2
BRANCH   1  20
ATOM     18  O   UNL     1      43.182   6.159  11.834  0.00  0.00    +0.000 OA
ATOM     19  C   UNL     1      44.358   6.326  11.521  0.00  0.00    +0.000 C 
ATOM     20  N   UNL     1      45.037   5.428  10.745  0.00  0.00    +0.000 N 
ATOM     21  H   UNL     1      45.995   5.607  10.473  0.00  0.00    +0.000 HD
BRANCH  19  22
ATOM     22  C   UNL     1      45.133   7.476  11.996  0.00  0.00    +0.000 A 
ATOM     23  C   UNL     1      44.848   8.751  11.526  0.00  0.00    +0.000 A 
ATOM     24  S   UNL     1      45.850   9.959  12.198  0.00  0.00    +0.000 S 
ATOM     25  C   UNL     1      46.716   8.813  13.114  0.00  0.00    +0.000 A 
ATOM     26  N   UNL     1      47.745   9.191  13.919  0.00  0.00    +0.000 NA
ATOM     27  C   UNL     1      48.327   8.217  14.534  0.00  0.00    +0.000 A 
ATOM     28  N   UNL     1      47.973   6.897  14.419  0.00  0.00    +0.000 N 
ATOM     29  C   UNL     1      46.924   6.472  13.642  0.00  0.00    +0.000 A 
ATOM     30  O   UNL     1      46.599   5.290  13.610  0.00  0.00    +0.000 OA
ATOM     31  C   UNL     1      46.240   7.529  12.920  0.00  0.00    +0.000 A 
ATOM     32  H   UNL     1      48.459   6.184  14.943  0.00  0.00    +0.000 HD
ENDBRANCH  19  22
ENDBRANCH   1  20
TORSDOF 7
ENDMDL
MODEL 9
REMARK VINA RESULT:    -7.370      2.989      5.053
REMARK INTER + INTRA:         -11.006
REMARK INTER:                 -10.076
REMARK INTRA:                  -0.931
REMARK UNBOUND:                -0.836
REMARK  Name = 
REMARK  7 active torsions:
REMARK  status: ('A' for Active; 'I' for Inactive)
REMARK    1  A    between atoms: C_2  and  C_20
REMARK    2  A    between atoms: N_3  and  C_4
REMARK    3  A    between atoms: C_4  and  C_5
REMARK    4  A    between atoms: C_8  and  C_9
REMARK    5  A    between atoms: C_9  and  O_10
REMARK    6  A    between atoms: C_9  and  C_11
REMARK    7  A    between atoms: C_11  and  C_12
REMARK                            x       y       z     vdW  Elec       q    Type
REMARK                         _______ _______ _______ _____ _____    ______ ____
ROOT
ATOM      1  C   UNL     1      47.783   6.102  14.196  0.00  0.00    +0.000 C 
ENDROOT
BRANCH   1   2
ATOM      2  C   UNL     1      46.809   5.348  13.332  0.00  0.00    +0.000 A 
ATOM      3  C   UNL     1      46.574   3.993  13.539  0.00  0.00    +0.000 A 
ATOM      4  N   UNL     1      45.704   3.270  12.788  0.00  0.00    +0.000 NA
ATOM      5  C   UNL     1      45.061   3.950  11.803  0.00  0.00    +0.000 A 
ATOM      6  C   UNL     1      45.329   5.296  11.572  0.00  0.00    +0.000 A 
ATOM      7  N   UNL     1      46.190   6.021  12.327  0.00  0.00    +0.000 NA
BRANCH   5   8
ATOM      8  C   UNL     1      44.114   3.198  10.889  0.00  0.00    +0.000 C 
BRANCH   8   9
ATOM      9  O   UNL     1      42.788   3.349  11.407  0.00  0.00    +0.000 OA
ATOM     10  H   UNL     1      42.882   3.777  12.277  0.00  0.00    +0.000 HD
ENDBRANCH   8   9
BRANCH   8  11
ATOM     11  C   UNL     1      44.177   3.698   9.431  0.00  0.00    +0.000 C 
BRANCH  11  12
ATOM     12  C   UNL     1      45.251   3.017   8.620  0.00  0.00    +0.000 A 
ATOM     13  C   UNL     1      46.020   3.724   7.687  0.00  0.00    +0.000 A 
ATOM     14  C   UNL     1      46.992   3.062   6.949  0.00  0.00    +0.000 A 
ATOM     15  C   UNL     1      47.172   1.706   7.163  0.00  0.00    +0.000 A 
ATOM     16  N   UNL     1      46.448   0.986   8.047  0.00  0.00    +0.000 NA
ATOM     17  C   UNL     1      45.506   1.656   8.751  0.00  0.00    +0.000 A 
ENDBRANCH  11  12
ENDBRANCH   8  11
ENDBRANCH   5   8
ENDBRANCH   1   2
BRANCH   1  20
ATOM     18  O   UNL     1      48.054   8.681  15.284  0.00  0.00    +0.000 OA
ATOM     19  C   UNL     1      48.382   8.498  14.115  0.00  0.00    +0.000 C 
ATOM     20  N   UNL     1      48.329   7.262  13.531  0.00  0.00    +0.000 N 
ATOM     21  H   UNL     1      48.571   7.146  12.555  0.00  0.00    +0.000 HD
BRANCH  19  22
ATOM     22  C   UNL     1      48.899   9.581  13.274  0.00  0.00    +0.000 A 
ATOM     23  C   UNL     1      50.239   9.937  13.341  0.00  0.00    +0.000 A 
ATOM     24  S   UNL     1      50.654  11.212  12.284  0.00  0.00    +0.000 S 
ATOM     25  C   UNL     1      49.050  11.350  11.727  0.00  0.00    +0.000 A 
ATOM     26  N   UNL     1      48.707  12.284  10.799  0.00  0.00    +0.000 NA
ATOM     27  C   UNL     1      47.455  12.293  10.488  0.00  0.00    +0.000 A 
ATOM     28  N   UNL     1      46.511  11.452  11.021  0.00  0.00    +0.000 N 
ATOM     29  C   UNL     1      46.815  10.476  11.937  0.00  0.00    +0.000 A 
ATOM     30  O   UNL     1      45.956   9.703  12.348  0.00  0.00    +0.000 OA
ATOM     31  C   UNL     1      48.212  10.430  12.329  0.00  0.00    +0.000 A 
ATOM     32  H   UNL     1      45.549  11.498  10.721  0.00  0.00    +0.000 HD
ENDBRANCH  19  22
ENDBRANCH   1  20
TORSDOF 7
ENDMDL
