MODEL 1
REMARK VINA RESULT:    -7.662      0.000      0.000
REMARK INTER + INTRA:         -10.041
REMARK INTER:                  -9.454
REMARK INTRA:                  -0.587
REMARK UNBOUND:                -0.587
REMARK  Name = 
REMARK  4 active torsions:
REMARK  status: ('A' for Active; 'I' for Inactive)
REMARK    1  A    between atoms: C_2  and  C_3
REMARK    2  A    between atoms: C_7  and  N_8
REMARK    3  A    between atoms: N_8  and  C_9
REMARK    4  A    between atoms: C_9  and  C_10
REMARK                            x       y       z     vdW  Elec       q    Type
REMARK                         _______ _______ _______ _____ _____    ______ ____
ROOT
ATOM      1  C   UNL     1      43.967   4.989  11.127  0.00  0.00    +0.000 A 
ATOM      2  C   UNL     1      43.189   4.024  11.740  0.00  0.00    +0.000 A 
ATOM      3  N   UNL     1      43.142   2.753  11.307  0.00  0.00    +0.000 NA
ATOM      4  N   UNL     1      43.903   2.377  10.225  0.00  0.00    +0.000 NA
ATOM      5  C   UNL     1      44.696   3.262   9.582  0.00  0.00    +0.000 A 
ATOM      6  N   UNL     1      45.545   2.861   8.547  0.00  0.00    +0.000 N 
ATOM      7  C   UNL     1      45.755   1.415   8.428  0.00  0.00    +0.000 C 
ATOM      8  C   UNL     1      47.087   1.205   7.704  0.00  0.00    +0.000 C 
ATOM      9  C   UNL     1      47.106   1.914   6.349  0.00  0.00    +0.000 C 
ATOM     10  C   UNL     1      46.680   3.381   6.468  0.00  0.00    +0.000 C 
ATOM     11  C   UNL     1      45.374   3.532   7.255  0.00  0.00    +0.000 C 
ATOM     12  C   UNL     1      44.740   4.579  10.035  0.00  0.00    +0.000 A 
ENDROOT
BRANCH   1  13
ATOM     13  C   UNL     1      43.969   6.412  11.606  0.00  0.00    +0.000 C 
BRANCH  13  14
ATOM     14  N   UNL     1      44.700   6.557  12.856  0.00  0.00    +0.000 N 
ATOM     15  H   UNL     1      44.226   7.122  13.559  0.00  0.00    +0.000 HD
BRANCH  14  20
ATOM     16  C   UNL     1      48.129   7.911  12.237  0.00  0.00    +0.000 A 
ATOM     17  C   UNL     1      48.859   6.846  12.735  0.00  0.00    +0.000 A 
ATOM     18  N   UNL     1      48.291   5.742  13.265  0.00  0.00    +0.000 NA
ATOM     19  C   UNL     1      46.933   5.711  13.295  0.00  0.00    +0.000 A 
ATOM     20  C   UNL     1      46.086   6.736  12.851  0.00  0.00    +0.000 A 
ATOM     21  C   UNL     1      46.732   7.842  12.287  0.00  0.00    +0.000 A 
BRANCH  16  23
ATOM     22  N   UNL     1      49.341   9.973  11.245  0.00  0.00    +0.000 NA
ATOM     23  C   UNL     1      48.792   9.049  11.686  0.00  0.00    +0.000 C 
ENDBRANCH  16  23
ENDBRANCH  14  20
ENDBRANCH  13  14
ENDBRANCH   1  13
TORSDOF 4
ENDMDL
MODEL 2
REMARK VINA RESULT:    -7.503      1.868      3.145
REMARK INTER + INTRA:          -9.844
REMARK INTER:                  -9.367
REMARK INTRA:                  -0.477
REMARK UNBOUND:                -0.587
REMARK  Name = 
REMARK  4 active torsions:
REMARK  status: ('A' for Active; 'I' for Inactive)
REMARK    1  A    between atoms: C_2  and  C_3
REMARK    2  A    between atoms: C_7  and  N_8
REMARK    3  A    between atoms: N_8  and  C_9
REMARK    4  A    between atoms: C_9  and  C_10
REMARK                            x       y       z     vdW  Elec       q    Type
REMARK                         _______ _______ _______ _____ _____    ______ ____
ROOT
ATOM      1  C   UNL     1      44.402   4.577  11.826  0.00  0.00    +0.000 A 
ATOM      2  C   UNL     1      43.402   3.710  12.225  0.00  0.00    +0.000 A 
ATOM      3  N   UNL     1      43.097   2.596  11.538  0.00  0.00    +0.000 NA
ATOM      4  N   UNL     1      43.807   2.284  10.402  0.00  0.00    +0.000 NA
ATOM      5  C   UNL     1      44.805   3.079   9.957  0.00  0.00    +0.000 A 
ATOM      6  N   UNL     1      45.593   2.713   8.862  0.00  0.00    +0.000 N 
ATOM      7  C   UNL     1      45.485   1.312   8.447  0.00  0.00    +0.000 C 
ATOM      8  C   UNL     1      46.770   0.957   7.696  0.00  0.00    +0.000 C 
ATOM      9  C   UNL     1      47.010   1.902   6.517  0.00  0.00    +0.000 C 
ATOM     10  C   UNL     1      46.912   3.372   6.937  0.00  0.00    +0.000 C 
ATOM     11  C   UNL     1      45.636   3.652   7.737  0.00  0.00    +0.000 C 
ATOM     12  C   UNL     1      45.117   4.232  10.673  0.00  0.00    +0.000 A 
ENDROOT
BRANCH   1  13
ATOM     13  C   UNL     1      44.695   5.837  12.588  0.00  0.00    +0.000 C 
BRANCH  13  14
ATOM     14  N   UNL     1      46.115   6.159  12.569  0.00  0.00    +0.000 N 
ATOM     15  H   UNL     1      46.572   5.996  11.674  0.00  0.00    +0.000 HD
BRANCH  14  20
ATOM     16  C   UNL     1      47.432   4.693  15.745  0.00  0.00    +0.000 A 
ATOM     17  C   UNL     1      48.540   5.508  15.898  0.00  0.00    +0.000 A 
ATOM     18  N   UNL     1      48.873   6.478  15.021  0.00  0.00    +0.000 NA
ATOM     19  C   UNL     1      48.057   6.632  13.946  0.00  0.00    +0.000 A 
ATOM     20  C   UNL     1      46.926   5.854  13.665  0.00  0.00    +0.000 A 
ATOM     21  C   UNL     1      46.616   4.882  14.624  0.00  0.00    +0.000 A 
BRANCH  16  23
ATOM     22  N   UNL     1      46.879   2.871  17.499  0.00  0.00    +0.000 NA
ATOM     23  C   UNL     1      47.133   3.686  16.713  0.00  0.00    +0.000 C 
ENDBRANCH  16  23
ENDBRANCH  14  20
ENDBRANCH  13  14
ENDBRANCH   1  13
TORSDOF 4
ENDMDL
MODEL 3
REMARK VINA RESULT:    -7.360      1.328      1.823
REMARK INTER + INTRA:          -9.669
REMARK INTER:                  -9.108
REMARK INTRA:                  -0.561
REMARK UNBOUND:                -0.587
REMARK  Name = 
REMARK  4 active torsions:
REMARK  status: ('A' for Active; 'I' for Inactive)
REMARK    1  A    between atoms: C_2  and  C_3
REMARK    2  A    between atoms: C_7  and  N_8
REMARK    3  A    between atoms: N_8  and  C_9
REMARK    4  A    between atoms: C_9  and  C_10
REMARK                            x       y       z     vdW  Elec       q    Type
REMARK                         _______ _______ _______ _____ _____    ______ ____
ROOT
ATOM      1  C   UNL     1      44.389   4.464  12.288  0.00  0.00    +0.000 A 
ATOM      2  C   UNL     1      43.390   3.560  12.595  0.00  0.00    +0.000 A 
ATOM      3  N   UNL     1      43.068   2.537  11.785  0.00  0.00    +0.000 NA
ATOM      4  N   UNL     1      43.760   2.360  10.610  0.00  0.00    +0.000 NA
ATOM      5  C   UNL     1      44.757   3.198  10.248  0.00  0.00    +0.000 A 
ATOM      6  N   UNL     1      45.526   2.963   9.105  0.00  0.00    +0.000 N 
ATOM      7  C   UNL     1      45.403   1.621   8.527  0.00  0.00    +0.000 C 
ATOM      8  C   UNL     1      46.675   1.353   7.720  0.00  0.00    +0.000 C 
ATOM      9  C   UNL     1      46.904   2.431   6.659  0.00  0.00    +0.000 C 
ATOM     10  C   UNL     1      46.821   3.841   7.253  0.00  0.00    +0.000 C 
ATOM     11  C   UNL     1      45.558   4.029   8.100  0.00  0.00    +0.000 C 
ATOM     12  C   UNL     1      45.085   4.256  11.092  0.00  0.00    +0.000 A 
ENDROOT
BRANCH   1  13
ATOM     13  C   UNL     1      44.700   5.622  13.191  0.00  0.00    +0.000 C 
BRANCH  13  14
ATOM     14  N   UNL     1      44.445   6.898  12.536  0.00  0.00    +0.000 N 
ATOM     15  H   UNL     1      43.761   6.856  11.783  0.00  0.00    +0.000 HD
BRANCH  14  20
ATOM     16  C   UNL     1      47.841   8.348  11.954  0.00  0.00    +0.000 A 
ATOM     17  C   UNL     1      47.493   9.688  11.974  0.00  0.00    +0.000 A 
ATOM     18  N   UNL     1      46.228  10.123  12.150  0.00  0.00    +0.000 NA
ATOM     19  C   UNL     1      45.274   9.168  12.309  0.00  0.00    +0.000 A 
ATOM     20  C   UNL     1      45.494   7.785  12.277  0.00  0.00    +0.000 A 
ATOM     21  C   UNL     1      46.829   7.396  12.121  0.00  0.00    +0.000 A 
BRANCH  16  23
ATOM     22  N   UNL     1      50.304   7.624  11.619  0.00  0.00    +0.000 NA
ATOM     23  C   UNL     1      49.201   7.955  11.768  0.00  0.00    +0.000 C 
ENDBRANCH  16  23
ENDBRANCH  14  20
ENDBRANCH  13  14
ENDBRANCH   1  13
TORSDOF 4
ENDMDL
MODEL 4
REMARK VINA RESULT:    -6.829      2.992      4.217
REMARK INTER + INTRA:          -9.013
REMARK INTER:                  -8.676
REMARK INTRA:                  -0.337
REMARK UNBOUND:                -0.587
REMARK  Name = 
REMARK  4 active torsions:
REMARK  status: ('A' for Active; 'I' for Inactive)
REMARK    1  A    between atoms: C_2  and  C_3
REMARK    2  A    between atoms: C_7  and  N_8
REMARK    3  A    between atoms: N_8  and  C_9
REMARK    4  A    between atoms: C_9  and  C_10
REMARK                            x       y       z     vdW  Elec       q    Type
REMARK                         _______ _______ _______ _____ _____    ______ ____
ROOT
ATOM      1  C   UNL     1      44.390   5.510  11.434  0.00  0.00    +0.000 A 
ATOM      2  C   UNL     1      43.345   4.767  11.951  0.00  0.00    +0.000 A 
ATOM      3  N   UNL     1      42.994   3.571  11.450  0.00  0.00    +0.000 NA
ATOM      4  N   UNL     1      43.700   3.045  10.394  0.00  0.00    +0.000 NA
ATOM      5  C   UNL     1      44.741   3.709   9.843  0.00  0.00    +0.000 A 
ATOM      6  N   UNL     1      45.521   3.133   8.837  0.00  0.00    +0.000 N 
ATOM      7  C   UNL     1      45.350   1.689   8.654  0.00  0.00    +0.000 C 
ATOM      8  C   UNL     1      46.625   1.157   7.995  0.00  0.00    +0.000 C 
ATOM      9  C   UNL     1      46.923   1.885   6.683  0.00  0.00    +0.000 C 
ATOM     10  C   UNL     1      46.891   3.406   6.855  0.00  0.00    +0.000 C 
ATOM     11  C   UNL     1      45.621   3.872   7.575  0.00  0.00    +0.000 C 
ATOM     12  C   UNL     1      45.100   4.949  10.367  0.00  0.00    +0.000 A 
ENDROOT
BRANCH   1  13
ATOM     13  C   UNL     1      44.735   6.863  11.986  0.00  0.00    +0.000 C 
BRANCH  13  14
ATOM     14  N   UNL     1      44.735   7.883  10.947  0.00  0.00    +0.000 N 
ATOM     15  H   UNL     1      45.627   8.000  10.470  0.00  0.00    +0.000 HD
BRANCH  14  20
ATOM     16  C   UNL     1      42.156  10.586  10.832  0.00  0.00    +0.000 A 
ATOM     17  C   UNL     1      42.904  11.602  11.402  0.00  0.00    +0.000 A 
ATOM     18  N   UNL     1      44.175  11.439  11.825  0.00  0.00    +0.000 NA
ATOM     19  C   UNL     1      44.714  10.201  11.668  0.00  0.00    +0.000 A 
ATOM     20  C   UNL     1      44.051   9.087  11.135  0.00  0.00    +0.000 A 
ATOM     21  C   UNL     1      42.746   9.325  10.689  0.00  0.00    +0.000 A 
BRANCH  16  23
ATOM     22  N   UNL     1      39.722  11.016  10.060  0.00  0.00    +0.000 NA
ATOM     23  C   UNL     1      40.816  10.827  10.401  0.00  0.00    +0.000 C 
ENDBRANCH  16  23
ENDBRANCH  14  20
ENDBRANCH  13  14
ENDBRANCH   1  13
TORSDOF 4
ENDMDL
MODEL 5
REMARK VINA RESULT:    -6.808      1.472      6.565
REMARK INTER + INTRA:          -8.987
REMARK INTER:                  -8.437
REMARK INTRA:                  -0.550
REMARK UNBOUND:                -0.587
REMARK  Name = 
REMARK  4 active torsions:
REMARK  status: ('A' for Active; 'I' for Inactive)
REMARK    1  A    between atoms: C_2  and  C_3
REMARK    2  A    between atoms: C_7  and  N_8
REMARK    3  A    between atoms: N_8  and  C_9
REMARK    4  A    between atoms: C_9  and  C_10
REMARK                            x       y       z     vdW  Elec       q    Type
REMARK                         _______ _______ _______ _____ _____    ______ ____
ROOT
ATOM      1  C   UNL     1      45.468   5.765  12.917  0.00  0.00    +0.000 A 
ATOM      2  C   UNL     1      45.899   4.657  13.623  0.00  0.00    +0.000 A 
ATOM      3  N   UNL     1      47.168   4.518  14.041  0.00  0.00    +0.000 NA
ATOM      4  N   UNL     1      48.081   5.512  13.780  0.00  0.00    +0.000 NA
ATOM      5  C   UNL     1      47.730   6.629  13.104  0.00  0.00    +0.000 A 
ATOM      6  N   UNL     1      48.629   7.684  12.923  0.00  0.00    +0.000 N 
ATOM      7  C   UNL     1      49.828   7.642  13.767  0.00  0.00    +0.000 C 
ATOM      8  C   UNL     1      50.356   9.074  13.881  0.00  0.00    +0.000 C 
ATOM      9  C   UNL     1      50.627   9.683  12.504  0.00  0.00    +0.000 C 
ATOM     10  C   UNL     1      49.425   9.529  11.567  0.00  0.00    +0.000 C 
ATOM     11  C   UNL     1      48.904   8.088  11.542  0.00  0.00    +0.000 C 
ATOM     12  C   UNL     1      46.413   6.768  12.672  0.00  0.00    +0.000 A 
ENDROOT
BRANCH   1  13
ATOM     13  C   UNL     1      44.054   5.877  12.425  0.00  0.00    +0.000 C 
BRANCH  13  14
ATOM     14  N   UNL     1      43.984   5.813  10.972  0.00  0.00    +0.000 N 
ATOM     15  H   UNL     1      43.181   6.290  10.566  0.00  0.00    +0.000 HD
BRANCH  14  20
ATOM     16  C   UNL     1      45.301   3.394   8.444  0.00  0.00    +0.000 A 
ATOM     17  C   UNL     1      44.741   2.239   8.961  0.00  0.00    +0.000 A 
ATOM     18  N   UNL     1      43.985   2.217  10.079  0.00  0.00    +0.000 NA
ATOM     19  C   UNL     1      43.788   3.408  10.702  0.00  0.00    +0.000 A 
ATOM     20  C   UNL     1      44.324   4.638  10.296  0.00  0.00    +0.000 A 
ATOM     21  C   UNL     1      45.075   4.601   9.116  0.00  0.00    +0.000 A 
BRANCH  16  23
ATOM     22  N   UNL     1      46.730   3.300   6.287  0.00  0.00    +0.000 NA
ATOM     23  C   UNL     1      46.087   3.349   7.253  0.00  0.00    +0.000 C 
ENDBRANCH  16  23
ENDBRANCH  14  20
ENDBRANCH  13  14
ENDBRANCH   1  13
TORSDOF 4
ENDMDL
MODEL 6
REMARK VINA RESULT:    -6.505      1.512      2.298
REMARK INTER + INTRA:          -8.614
REMARK INTER:                  -8.169
REMARK INTRA:                  -0.445
REMARK UNBOUND:                -0.587
REMARK  Name = 
REMARK  4 active torsions:
REMARK  status: ('A' for Active; 'I' for Inactive)
REMARK    1  A    between atoms: C_2  and  C_3
REMARK    2  A    between atoms: C_7  and  N_8
REMARK    3  A    between atoms: N_8  and  C_9
REMARK    4  A    between atoms: C_9  and  C_10
REMARK                            x       y       z     vdW  Elec       q    Type
REMARK                         _______ _______ _______ _____ _____    ______ ____
ROOT
ATOM      1  C   UNL     1      44.630   4.729  11.771  0.00  0.00    +0.000 A 
ATOM      2  C   UNL     1      43.499   4.023  12.137  0.00  0.00    +0.000 A 
ATOM      3  N   UNL     1      43.067   2.949  11.454  0.00  0.00    +0.000 NA
ATOM      4  N   UNL     1      43.773   2.514  10.358  0.00  0.00    +0.000 NA
ATOM      5  C   UNL     1      44.894   3.147   9.947  0.00  0.00    +0.000 A 
ATOM      6  N   UNL     1      45.668   2.649   8.895  0.00  0.00    +0.000 N 
ATOM      7  C   UNL     1      45.377   1.269   8.497  0.00  0.00    +0.000 C 
ATOM      8  C   UNL     1      46.629   0.717   7.811  0.00  0.00    +0.000 C 
ATOM      9  C   UNL     1      47.053   1.592   6.630  0.00  0.00    +0.000 C 
ATOM     10  C   UNL     1      47.150   3.070   7.023  0.00  0.00    +0.000 C 
ATOM     11  C   UNL     1      45.894   3.547   7.759  0.00  0.00    +0.000 C 
ATOM     12  C   UNL     1      45.337   4.260  10.658  0.00  0.00    +0.000 A 
ENDROOT
BRANCH   1  13
ATOM     13  C   UNL     1      45.068   5.950  12.527  0.00  0.00    +0.000 C 
BRANCH  13  14
ATOM     14  N   UNL     1      46.202   6.601  11.885  0.00  0.00    +0.000 N 
ATOM     15  H   UNL     1      46.381   6.294  10.931  0.00  0.00    +0.000 HD
BRANCH  14  20
ATOM     16  C   UNL     1      48.742   6.830  14.618  0.00  0.00    +0.000 A 
ATOM     17  C   UNL     1      49.661   7.638  13.971  0.00  0.00    +0.000 A 
ATOM     18  N   UNL     1      49.496   8.085  12.708  0.00  0.00    +0.000 NA
ATOM     19  C   UNL     1      48.359   7.699  12.072  0.00  0.00    +0.000 A 
ATOM     20  C   UNL     1      47.370   6.862  12.606  0.00  0.00    +0.000 A 
ATOM     21  C   UNL     1      47.584   6.455  13.928  0.00  0.00    +0.000 A 
BRANCH  16  23
ATOM     22  N   UNL     1      49.172   6.053  17.050  0.00  0.00    +0.000 NA
ATOM     23  C   UNL     1      48.976   6.396  15.958  0.00  0.00    +0.000 C 
ENDBRANCH  16  23
ENDBRANCH  14  20
ENDBRANCH  13  14
ENDBRANCH   1  13
TORSDOF 4
ENDMDL
MODEL 7
REMARK VINA RESULT:    -6.163      3.456      6.352
REMARK INTER + INTRA:          -8.191
REMARK INTER:                  -7.750
REMARK INTRA:                  -0.441
REMARK UNBOUND:                -0.587
REMARK  Name = 
REMARK  4 active torsions:
REMARK  status: ('A' for Active; 'I' for Inactive)
REMARK    1  A    between atoms: C_2  and  C_3
REMARK    2  A    between atoms: C_7  and  N_8
REMARK    3  A    between atoms: N_8  and  C_9
REMARK    4  A    between atoms: C_9  and  C_10
REMARK                            x       y       z     vdW  Elec       q    Type
REMARK                         _______ _______ _______ _____ _____    ______ ____
ROOT
ATOM      1  C   UNL     1      48.493   6.868  13.954  0.00  0.00    +0.000 A 
ATOM      2  C   UNL     1      49.001   7.626  12.915  0.00  0.00    +0.000 A 
ATOM      3  N   UNL     1      48.431   7.656  11.699  0.00  0.00    +0.000 NA
ATOM      4  N   UNL     1      47.290   6.924  11.467  0.00  0.00    +0.000 NA
ATOM      5  C   UNL     1      46.730   6.168  12.437  0.00  0.00    +0.000 A 
ATOM      6  N   UNL     1      45.518   5.503  12.234  0.00  0.00    +0.000 N 
ATOM      7  C   UNL     1      44.755   5.929  11.057  0.00  0.00    +0.000 C 
ATOM      8  C   UNL     1      43.289   5.571  11.309  0.00  0.00    +0.000 C 
ATOM      9  C   UNL     1      43.119   4.082  11.612  0.00  0.00    +0.000 C 
ATOM     10  C   UNL     1      44.079   3.611  12.709  0.00  0.00    +0.000 C 
ATOM     11  C   UNL     1      45.520   4.051  12.432  0.00  0.00    +0.000 C 
ATOM     12  C   UNL     1      47.326   6.141  13.696  0.00  0.00    +0.000 A 
ENDROOT
BRANCH   1  13
ATOM     13  C   UNL     1      49.174   6.820  15.292  0.00  0.00    +0.000 C 
BRANCH  13  14
ATOM     14  N   UNL     1      48.256   6.414  16.347  0.00  0.00    +0.000 N 
ATOM     15  H   UNL     1      48.157   7.089  17.103  0.00  0.00    +0.000 HD
BRANCH  14  20
ATOM     16  C   UNL     1      49.210   2.897  17.182  0.00  0.00    +0.000 A 
ATOM     17  C   UNL     1      47.950   2.415  17.491  0.00  0.00    +0.000 A 
ATOM     18  N   UNL     1      46.836   3.176  17.454  0.00  0.00    +0.000 NA
ATOM     19  C   UNL     1      46.999   4.476  17.092  0.00  0.00    +0.000 A 
ATOM     20  C   UNL     1      48.222   5.088  16.786  0.00  0.00    +0.000 A 
ATOM     21  C   UNL     1      49.336   4.242  16.814  0.00  0.00    +0.000 A 
BRANCH  16  23
ATOM     22  N   UNL     1      51.268   1.329  17.276  0.00  0.00    +0.000 NA
ATOM     23  C   UNL     1      50.348   2.038  17.236  0.00  0.00    +0.000 C 
ENDBRANCH  16  23
ENDBRANCH  14  20
ENDBRANCH  13  14
ENDBRANCH   1  13
TORSDOF 4
ENDMDL
MODEL 8
REMARK VINA RESULT:    -6.046      1.560      6.614
REMARK INTER + INTRA:          -8.047
REMARK INTER:                  -8.428
REMARK INTRA:                   0.381
REMARK UNBOUND:                -0.587
REMARK  Name = 
REMARK  4 active torsions:
REMARK  status: ('A' for Active; 'I' for Inactive)
REMARK    1  A    between atoms: C_2  and  C_3
REMARK    2  A    between atoms: C_7  and  N_8
REMARK    3  A    between atoms: N_8  and  C_9
REMARK    4  A    between atoms: C_9  and  C_10
REMARK                            x       y       z     vdW  Elec       q    Type
REMARK                         _______ _______ _______ _____ _____    ______ ____
ROOT
ATOM      1  C   UNL     1      44.050   4.393  11.083  0.00  0.00    +0.000 A 
ATOM      2  C   UNL     1      42.980   5.264  10.989  0.00  0.00    +0.000 A 
ATOM      3  N   UNL     1      43.074   6.561  11.331  0.00  0.00    +0.000 NA
ATOM      4  N   UNL     1      44.275   7.059  11.777  0.00  0.00    +0.000 NA
ATOM      5  C   UNL     1      45.367   6.269  11.886  0.00  0.00    +0.000 A 
ATOM      6  N   UNL     1      46.612   6.794  12.244  0.00  0.00    +0.000 N 
ATOM      7  C   UNL     1      46.724   8.254  12.176  0.00  0.00    +0.000 C 
ATOM      8  C   UNL     1      48.208   8.591  12.011  0.00  0.00    +0.000 C 
ATOM      9  C   UNL     1      49.049   7.989  13.137  0.00  0.00    +0.000 C 
ATOM     10  C   UNL     1      48.760   6.497  13.328  0.00  0.00    +0.000 C 
ATOM     11  C   UNL     1      47.257   6.215  13.426  0.00  0.00    +0.000 C 
ATOM     12  C   UNL     1      45.264   4.927  11.530  0.00  0.00    +0.000 A 
ENDROOT
BRANCH   1  13
ATOM     13  C   UNL     1      43.907   2.940  10.734  0.00  0.00    +0.000 C 
BRANCH  13  14
ATOM     14  N   UNL     1      45.160   2.379  10.248  0.00  0.00    +0.000 N 
ATOM     15  H   UNL     1      45.906   2.349  10.940  0.00  0.00    +0.000 HD
BRANCH  14  20
ATOM     16  C   UNL     1      46.725   2.122   6.863  0.00  0.00    +0.000 A 
ATOM     17  C   UNL     1      46.659   3.459   6.509  0.00  0.00    +0.000 A 
ATOM     18  N   UNL     1      46.124   4.410   7.303  0.00  0.00    +0.000 NA
ATOM     19  C   UNL     1      45.635   3.997   8.501  0.00  0.00    +0.000 A 
ATOM     20  C   UNL     1      45.616   2.673   8.960  0.00  0.00    +0.000 A 
ATOM     21  C   UNL     1      46.209   1.736   8.105  0.00  0.00    +0.000 A 
BRANCH  16  23
ATOM     22  N   UNL     1      47.782   0.396   5.248  0.00  0.00    +0.000 NA
ATOM     23  C   UNL     1      47.308   1.166   5.978  0.00  0.00    +0.000 C 
ENDBRANCH  16  23
ENDBRANCH  14  20
ENDBRANCH  13  14
ENDBRANCH   1  13
TORSDOF 4
ENDMDL
MODEL 9
REMARK VINA RESULT:    -5.929      4.517      9.001
REMARK INTER + INTRA:          -7.902
REMARK INTER:                  -7.575
REMARK INTRA:                  -0.327
REMARK UNBOUND:                -0.587
REMARK  Name = 
REMARK  4 active torsions:
REMARK  status: ('A' for Active; 'I' for Inactive)
REMARK    1  A    between atoms: C_2  and  C_3
REMARK    2  A    between atoms: C_7  and  N_8
REMARK    3  A    between atoms: N_8  and  C_9
REMARK    4  A    between atoms: C_9  and  C_10
REMARK                            x       y       z     vdW  Elec       q    Type
REMARK                         _______ _______ _______ _____ _____    ______ ____
ROOT
ATOM      1  C   UNL     1      47.719   3.644  16.031  0.00  0.00    +0.000 A 
ATOM      2  C   UNL     1      48.519   2.622  16.508  0.00  0.00    +0.000 A 
ATOM      3  N   UNL     1      49.123   2.679  17.708  0.00  0.00    +0.000 NA
ATOM      4  N   UNL     1      48.936   3.781  18.509  0.00  0.00    +0.000 NA
ATOM      5  C   UNL     1      48.159   4.814  18.114  0.00  0.00    +0.000 A 
ATOM      6  N   UNL     1      47.888   5.888  18.966  0.00  0.00    +0.000 N 
ATOM      7  C   UNL     1      48.217   5.672  20.378  0.00  0.00    +0.000 C 
ATOM      8  C   UNL     1      47.352   6.630  21.200  0.00  0.00    +0.000 C 
ATOM      9  C   UNL     1      47.554   8.082  20.765  0.00  0.00    +0.000 C 
ATOM     10  C   UNL     1      47.409   8.248  19.249  0.00  0.00    +0.000 C 
ATOM     11  C   UNL     1      48.250   7.223  18.481  0.00  0.00    +0.000 C 
ATOM     12  C   UNL     1      47.536   4.749  16.870  0.00  0.00    +0.000 A 
ENDROOT
BRANCH   1  13
ATOM     13  C   UNL     1      47.090   3.573  14.670  0.00  0.00    +0.000 C 
BRANCH  13  14
ATOM     14  N   UNL     1      46.150   4.664  14.456  0.00  0.00    +0.000 N 
ATOM     15  H   UNL     1      45.630   4.943  15.286  0.00  0.00    +0.000 HD
BRANCH  14  20
ATOM     16  C   UNL     1      44.666   3.899  11.111  0.00  0.00    +0.000 A 
ATOM     17  C   UNL     1      43.983   5.088  10.917  0.00  0.00    +0.000 A 
ATOM     18  N   UNL     1      43.976   6.093  11.818  0.00  0.00    +0.000 NA
ATOM     19  C   UNL     1      44.684   5.891  12.960  0.00  0.00    +0.000 A 
ATOM     20  C   UNL     1      45.389   4.725  13.285  0.00  0.00    +0.000 A 
ATOM     21  C   UNL     1      45.383   3.730  12.301  0.00  0.00    +0.000 A 
BRANCH  16  23
ATOM     22  N   UNL     1      44.605   2.038   9.312  0.00  0.00    +0.000 NA
ATOM     23  C   UNL     1      44.637   2.877  10.115  0.00  0.00    +0.000 C 
ENDBRANCH  16  23
ENDBRANCH  14  20
ENDBRANCH  13  14
ENDBRANCH   1  13
TORSDOF 4
ENDMDL
