MODEL 1
REMARK VINA RESULT:    -8.244      0.000      0.000
REMARK INTER + INTRA:         -12.142
REMARK INTER:                 -11.136
REMARK INTRA:                  -1.006
REMARK UNBOUND:                -1.006
REMARK  Name = 
REMARK  6 active torsions:
REMARK  status: ('A' for Active; 'I' for Inactive)
REMARK    1  A    between atoms: C_2  and  C_25
REMARK    2  A    between atoms: N_3  and  C_4
REMARK    3  A    between atoms: C_4  and  C_5
REMARK    4  A    between atoms: C_8  and  C_9
REMARK    5  A    between atoms: C_9  and  N_10
REMARK    6  A    between atoms: C_11  and  C_13
REMARK                            x       y       z     vdW  Elec       q    Type
REMARK                         _______ _______ _______ _____ _____    ______ ____
ROOT
ATOM      1  C   UNL     1      45.376   4.019  12.194  0.00  0.00    +0.000 A 
ATOM      2  N   UNL     1      45.444   5.344  11.953  0.00  0.00    +0.000 NA
ATOM      3  C   UNL     1      46.228   6.071  12.772  0.00  0.00    +0.000 A 
ATOM      4  C   UNL     1      46.978   5.536  13.802  0.00  0.00    +0.000 A 
ATOM      5  C   UNL     1      46.854   4.170  13.947  0.00  0.00    +0.000 A 
ATOM      6  N   UNL     1      46.076   3.393  13.161  0.00  0.00    +0.000 NA
ENDROOT
BRANCH   1   7
ATOM      7  C   UNL     1      44.486   3.188  11.290  0.00  0.00    +0.000 C 
BRANCH   7  10
ATOM      8  O   UNL     1      44.611   4.335   8.755  0.00  0.00    +0.000 OA
ATOM      9  C   UNL     1      45.187   3.269   8.940  0.00  0.00    +0.000 C 
ATOM     10  N   UNL     1      45.181   2.608  10.149  0.00  0.00    +0.000 N 
ATOM     11  H   UNL     1      45.827   1.852  10.326  0.00  0.00    +0.000 HD
BRANCH   9  12
ATOM     12  C   UNL     1      45.958   2.643   7.843  0.00  0.00    +0.000 A 
ATOM     13  C   UNL     1      46.275   3.311   6.658  0.00  0.00    +0.000 A 
ATOM     14  C   UNL     1      47.019   2.652   5.680  0.00  0.00    +0.000 A 
ATOM     15  C   UNL     1      47.425   1.348   5.925  0.00  0.00    +0.000 A 
ATOM     16  N   UNL     1      47.147   0.679   7.064  0.00  0.00    +0.000 NA
ATOM     17  C   UNL     1      46.429   1.346   8.005  0.00  0.00    +0.000 A 
ENDBRANCH   9  12
ENDBRANCH   7  10
ENDBRANCH   1   7
BRANCH   4  18
ATOM     18  C   UNL     1      47.857   6.377  14.663  0.00  0.00    +0.000 C 
BRANCH  18  19
ATOM     19  N   UNL     1      48.815   5.611  15.423  0.00  0.00    +0.000 N 
ATOM     20  C   UNL     1      49.109   5.971  16.720  0.00  0.00    +0.000 C 
ATOM     21  O   UNL     1      48.566   6.937  17.250  0.00  0.00    +0.000 OA
ATOM     22  H   UNL     1      49.071   4.683  15.095  0.00  0.00    +0.000 HD
BRANCH  20  23
ATOM     23  C   UNL     1      50.157   5.210  17.415  0.00  0.00    +0.000 A 
ATOM     24  C   UNL     1      51.142   5.878  18.129  0.00  0.00    +0.000 A 
ATOM     25  S   UNL     1      52.434   4.870  18.613  0.00  0.00    +0.000 S 
ATOM     26  C   UNL     1      51.685   3.503  17.932  0.00  0.00    +0.000 A 
ATOM     27  N   UNL     1      52.312   2.297  17.891  0.00  0.00    +0.000 NA
ATOM     28  C   UNL     1      51.599   1.344  17.387  0.00  0.00    +0.000 A 
ATOM     29  N   UNL     1      50.299   1.477  16.968  0.00  0.00    +0.000 N 
ATOM     30  C   UNL     1      49.619   2.668  17.024  0.00  0.00    +0.000 A 
ATOM     31  O   UNL     1      48.427   2.749  16.745  0.00  0.00    +0.000 OA
ATOM     32  C   UNL     1      50.417   3.793  17.460  0.00  0.00    +0.000 A 
ATOM     33  H   UNL     1      49.773   0.673  16.660  0.00  0.00    +0.000 HD
ENDBRANCH  20  23
ENDBRANCH  18  19
ENDBRANCH   4  18
TORSDOF 6
ENDMDL
MODEL 2
REMARK VINA RESULT:    -8.087      1.972      2.156
REMARK INTER + INTRA:         -11.930
REMARK INTER:                 -11.226
REMARK INTRA:                  -0.703
REMARK UNBOUND:                -1.006
REMARK  Name = 
REMARK  6 active torsions:
REMARK  status: ('A' for Active; 'I' for Inactive)
REMARK    1  A    between atoms: C_2  and  C_25
REMARK    2  A    between atoms: N_3  and  C_4
REMARK    3  A    between atoms: C_4  and  C_5
REMARK    4  A    between atoms: C_8  and  C_9
REMARK    5  A    between atoms: C_9  and  N_10
REMARK    6  A    between atoms: C_11  and  C_13
REMARK                            x       y       z     vdW  Elec       q    Type
REMARK                         _______ _______ _______ _____ _____    ______ ____
ROOT
ATOM      1  C   UNL     1      44.721   5.255  11.217  0.00  0.00    +0.000 A 
ATOM      2  N   UNL     1      44.522   6.583  11.095  0.00  0.00    +0.000 NA
ATOM      3  C   UNL     1      45.355   7.388  11.782  0.00  0.00    +0.000 A 
ATOM      4  C   UNL     1      46.402   6.934  12.560  0.00  0.00    +0.000 A 
ATOM      5  C   UNL     1      46.532   5.561  12.597  0.00  0.00    +0.000 A 
ATOM      6  N   UNL     1      45.719   4.706  11.937  0.00  0.00    +0.000 NA
ENDROOT
BRANCH   1   7
ATOM      7  C   UNL     1      43.782   4.334  10.461  0.00  0.00    +0.000 C 
BRANCH   7  10
ATOM      8  O   UNL     1      45.467   4.998   8.345  0.00  0.00    +0.000 OA
ATOM      9  C   UNL     1      45.282   3.812   8.591  0.00  0.00    +0.000 C 
ATOM     10  N   UNL     1      44.461   3.371   9.605  0.00  0.00    +0.000 N 
ATOM     11  H   UNL     1      44.493   2.409   9.913  0.00  0.00    +0.000 HD
BRANCH   9  12
ATOM     12  C   UNL     1      45.979   2.774   7.799  0.00  0.00    +0.000 A 
ATOM     13  C   UNL     1      46.550   3.025   6.550  0.00  0.00    +0.000 A 
ATOM     14  C   UNL     1      47.201   1.992   5.876  0.00  0.00    +0.000 A 
ATOM     15  C   UNL     1      47.263   0.745   6.479  0.00  0.00    +0.000 A 
ATOM     16  N   UNL     1      46.734   0.472   7.691  0.00  0.00    +0.000 NA
ATOM     17  C   UNL     1      46.113   1.497   8.331  0.00  0.00    +0.000 A 
ENDBRANCH   9  12
ENDBRANCH   7  10
ENDBRANCH   1   7
BRANCH   4  18
ATOM     18  C   UNL     1      47.319   7.865  13.277  0.00  0.00    +0.000 C 
BRANCH  18  19
ATOM     19  N   UNL     1      47.560   7.487  14.649  0.00  0.00    +0.000 N 
ATOM     20  C   UNL     1      48.796   7.009  15.024  0.00  0.00    +0.000 C 
ATOM     21  O   UNL     1      49.708   6.897  14.209  0.00  0.00    +0.000 OA
ATOM     22  H   UNL     1      46.913   7.809  15.366  0.00  0.00    +0.000 HD
BRANCH  20  23
ATOM     23  C   UNL     1      48.956   6.556  16.413  0.00  0.00    +0.000 A 
ATOM     24  C   UNL     1      49.696   7.314  17.310  0.00  0.00    +0.000 A 
ATOM     25  S   UNL     1      50.029   6.501  18.776  0.00  0.00    +0.000 S 
ATOM     26  C   UNL     1      49.146   5.136  18.275  0.00  0.00    +0.000 A 
ATOM     27  N   UNL     1      49.113   3.999  19.020  0.00  0.00    +0.000 NA
ATOM     28  C   UNL     1      48.363   3.067  18.534  0.00  0.00    +0.000 A 
ATOM     29  N   UNL     1      47.604   3.186  17.397  0.00  0.00    +0.000 N 
ATOM     30  C   UNL     1      47.583   4.327  16.634  0.00  0.00    +0.000 A 
ATOM     31  O   UNL     1      46.821   4.457  15.682  0.00  0.00    +0.000 OA
ATOM     32  C   UNL     1      48.506   5.353  17.067  0.00  0.00    +0.000 A 
ATOM     33  H   UNL     1      46.976   2.446  17.117  0.00  0.00    +0.000 HD
ENDBRANCH  20  23
ENDBRANCH  18  19
ENDBRANCH   4  18
TORSDOF 6
ENDMDL
MODEL 3
REMARK VINA RESULT:    -7.654      2.318      3.477
REMARK INTER + INTRA:         -11.344
REMARK INTER:                 -10.531
REMARK INTRA:                  -0.813
REMARK UNBOUND:                -1.006
REMARK  Name = 
REMARK  6 active torsions:
REMARK  status: ('A' for Active; 'I' for Inactive)
REMARK    1  A    between atoms: C_2  and  C_25
REMARK    2  A    between atoms: N_3  and  C_4
REMARK    3  A    between atoms: C_4  and  C_5
REMARK    4  A    between atoms: C_8  and  C_9
REMARK    5  A    between atoms: C_9  and  N_10
REMARK    6  A    between atoms: C_11  and  C_13
REMARK                            x       y       z     vdW  Elec       q    Type
REMARK                         _______ _______ _______ _____ _____    ______ ____
ROOT
ATOM      1  C   UNL     1      45.603   4.270  12.197  0.00  0.00    +0.000 A 
ATOM      2  N   UNL     1      46.066   3.835  13.387  0.00  0.00    +0.000 NA
ATOM      3  C   UNL     1      46.886   4.666  14.060  0.00  0.00    +0.000 A 
ATOM      4  C   UNL     1      47.240   5.926  13.621  0.00  0.00    +0.000 A 
ATOM      5  C   UNL     1      46.694   6.281  12.405  0.00  0.00    +0.000 A 
ATOM      6  N   UNL     1      45.874   5.485  11.683  0.00  0.00    +0.000 NA
ENDROOT
BRANCH   1   7
ATOM      7  C   UNL     1      44.690   3.341  11.420  0.00  0.00    +0.000 C 
BRANCH   7  10
ATOM      8  O   UNL     1      44.518   4.259   8.796  0.00  0.00    +0.000 OA
ATOM      9  C   UNL     1      45.185   3.255   9.018  0.00  0.00    +0.000 C 
ATOM     10  N   UNL     1      45.329   2.708  10.275  0.00  0.00    +0.000 N 
ATOM     11  H   UNL     1      46.042   2.016  10.457  0.00  0.00    +0.000 HD
BRANCH   9  12
ATOM     12  C   UNL     1      45.907   2.585   7.914  0.00  0.00    +0.000 A 
ATOM     13  C   UNL     1      46.227   3.225   6.715  0.00  0.00    +0.000 A 
ATOM     14  C   UNL     1      46.923   2.525   5.730  0.00  0.00    +0.000 A 
ATOM     15  C   UNL     1      47.279   1.209   5.983  0.00  0.00    +0.000 A 
ATOM     16  N   UNL     1      46.998   0.564   7.136  0.00  0.00    +0.000 NA
ATOM     17  C   UNL     1      46.328   1.271   8.082  0.00  0.00    +0.000 A 
ENDBRANCH   9  12
ENDBRANCH   7  10
ENDBRANCH   1   7
BRANCH   4  18
ATOM     18  C   UNL     1      48.126   6.823  14.416  0.00  0.00    +0.000 C 
BRANCH  18  19
ATOM     19  N   UNL     1      48.053   6.586  15.838  0.00  0.00    +0.000 N 
ATOM     20  C   UNL     1      49.197   6.290  16.545  0.00  0.00    +0.000 C 
ATOM     21  O   UNL     1      50.290   6.226  15.987  0.00  0.00    +0.000 OA
ATOM     22  H   UNL     1      47.220   6.882  16.342  0.00  0.00    +0.000 HD
BRANCH  20  23
ATOM     23  C   UNL     1      49.051   5.969  17.971  0.00  0.00    +0.000 A 
ATOM     24  C   UNL     1      49.312   4.684  18.425  0.00  0.00    +0.000 A 
ATOM     25  S   UNL     1      48.805   4.413  20.034  0.00  0.00    +0.000 S 
ATOM     26  C   UNL     1      48.276   6.022  20.188  0.00  0.00    +0.000 A 
ATOM     27  N   UNL     1      47.621   6.451  21.300  0.00  0.00    +0.000 NA
ATOM     28  C   UNL     1      47.324   7.708  21.291  0.00  0.00    +0.000 A 
ATOM     29  N   UNL     1      47.667   8.586  20.294  0.00  0.00    +0.000 N 
ATOM     30  C   UNL     1      48.357   8.202  19.171  0.00  0.00    +0.000 A 
ATOM     31  O   UNL     1      48.749   9.014  18.340  0.00  0.00    +0.000 OA
ATOM     32  C   UNL     1      48.599   6.778  19.075  0.00  0.00    +0.000 A 
ATOM     33  H   UNL     1      47.476   9.572  20.388  0.00  0.00    +0.000 HD
ENDBRANCH  20  23
ENDBRANCH  18  19
ENDBRANCH   4  18
TORSDOF 6
ENDMDL
MODEL 4
REMARK VINA RESULT:    -7.533      2.764      3.851
REMARK INTER + INTRA:         -11.181
REMARK INTER:                 -10.430
REMARK INTRA:                  -0.751
REMARK UNBOUND:                -1.006
REMARK  Name = 
REMARK  6 active torsions:
REMARK  status: ('A' for Active; 'I' for Inactive)
REMARK    1  A    between atoms: C_2  and  C_25
REMARK    2  A    between atoms: N_3  and  C_4
REMARK    3  A    between atoms: C_4  and  C_5
REMARK    4  A    between atoms: C_8  and  C_9
REMARK    5  A    between atoms: C_9  and  N_10
REMARK    6  A    between atoms: C_11  and  C_13
REMARK                            x       y       z     vdW  Elec       q    Type
REMARK                         _______ _______ _______ _____ _____    ______ ____
ROOT
ATOM      1  C   UNL     1      44.881   4.333  11.450  0.00  0.00    +0.000 A 
ATOM      2  N   UNL     1      45.420   3.210  11.968  0.00  0.00    +0.000 NA
ATOM      3  C   UNL     1      46.155   3.350  13.087  0.00  0.00    +0.000 A 
ATOM      4  C   UNL     1      46.353   4.553  13.737  0.00  0.00    +0.000 A 
ATOM      5  C   UNL     1      45.740   5.633  13.138  0.00  0.00    +0.000 A 
ATOM      6  N   UNL     1      44.999   5.553  12.010  0.00  0.00    +0.000 NA
ENDROOT
BRANCH   1   7
ATOM      7  C   UNL     1      44.061   4.195  10.181  0.00  0.00    +0.000 C 
BRANCH   7  10
ATOM      8  O   UNL     1      45.950   5.048   8.320  0.00  0.00    +0.000 OA
ATOM      9  C   UNL     1      45.609   3.870   8.305  0.00  0.00    +0.000 C 
ATOM     10  N   UNL     1      44.676   3.345   9.171  0.00  0.00    +0.000 N 
ATOM     11  H   UNL     1      44.571   2.345   9.271  0.00  0.00    +0.000 HD
BRANCH   9  12
ATOM     12  C   UNL     1      46.228   2.932   7.342  0.00  0.00    +0.000 A 
ATOM     13  C   UNL     1      46.531   3.283   6.025  0.00  0.00    +0.000 A 
ATOM     14  C   UNL     1      47.127   2.342   5.186  0.00  0.00    +0.000 A 
ATOM     15  C   UNL     1      47.403   1.083   5.698  0.00  0.00    +0.000 A 
ATOM     16  N   UNL     1      47.136   0.716   6.970  0.00  0.00    +0.000 NA
ATOM     17  C   UNL     1      46.564   1.653   7.768  0.00  0.00    +0.000 A 
ENDBRANCH   9  12
ENDBRANCH   7  10
ENDBRANCH   1   7
BRANCH   4  18
ATOM     18  C   UNL     1      47.149   4.654  14.993  0.00  0.00    +0.000 C 
BRANCH  18  19
ATOM     19  N   UNL     1      47.624   5.990  15.265  0.00  0.00    +0.000 N 
ATOM     20  C   UNL     1      48.700   6.180  16.102  0.00  0.00    +0.000 C 
ATOM     21  O   UNL     1      49.274   5.228  16.627  0.00  0.00    +0.000 OA
ATOM     22  H   UNL     1      47.331   6.747  14.651  0.00  0.00    +0.000 HD
BRANCH  20  23
ATOM     23  C   UNL     1      49.083   7.564  16.413  0.00  0.00    +0.000 A 
ATOM     24  C   UNL     1      49.754   8.329  15.469  0.00  0.00    +0.000 A 
ATOM     25  S   UNL     1      50.381   9.790  16.096  0.00  0.00    +0.000 S 
ATOM     26  C   UNL     1      49.723   9.468  17.631  0.00  0.00    +0.000 A 
ATOM     27  N   UNL     1      49.978  10.275  18.696  0.00  0.00    +0.000 NA
ATOM     28  C   UNL     1      49.371   9.929  19.782  0.00  0.00    +0.000 A 
ATOM     29  N   UNL     1      48.492   8.881  19.888  0.00  0.00    +0.000 N 
ATOM     30  C   UNL     1      48.180   8.063  18.830  0.00  0.00    +0.000 A 
ATOM     31  O   UNL     1      47.315   7.197  18.911  0.00  0.00    +0.000 OA
ATOM     32  C   UNL     1      48.934   8.331  17.624  0.00  0.00    +0.000 A 
ATOM     33  H   UNL     1      47.989   8.715  20.747  0.00  0.00    +0.000 HD
ENDBRANCH  20  23
ENDBRANCH  18  19
ENDBRANCH   4  18
TORSDOF 6
ENDMDL
MODEL 5
REMARK VINA RESULT:    -7.373      2.824      9.179
REMARK INTER + INTRA:         -10.965
REMARK INTER:                 -10.101
REMARK INTRA:                  -0.864
REMARK UNBOUND:                -1.006
REMARK  Name = 
REMARK  6 active torsions:
REMARK  status: ('A' for Active; 'I' for Inactive)
REMARK    1  A    between atoms: C_2  and  C_25
REMARK    2  A    between atoms: N_3  and  C_4
REMARK    3  A    between atoms: C_4  and  C_5
REMARK    4  A    between atoms: C_8  and  C_9
REMARK    5  A    between atoms: C_9  and  N_10
REMARK    6  A    between atoms: C_11  and  C_13
REMARK                            x       y       z     vdW  Elec       q    Type
REMARK                         _______ _______ _______ _____ _____    ______ ____
ROOT
ATOM      1  C   UNL     1      49.421   7.016  15.673  0.00  0.00    +0.000 A 
ATOM      2  N   UNL     1      48.504   6.106  15.288  0.00  0.00    +0.000 NA
ATOM      3  C   UNL     1      47.924   6.299  14.088  0.00  0.00    +0.000 A 
ATOM      4  C   UNL     1      48.238   7.338  13.234  0.00  0.00    +0.000 A 
ATOM      5  C   UNL     1      49.204   8.197  13.714  0.00  0.00    +0.000 A 
ATOM      6  N   UNL     1      49.812   8.059  14.914  0.00  0.00    +0.000 NA
ENDROOT
BRANCH   1   7
ATOM      7  C   UNL     1      50.074   6.822  17.028  0.00  0.00    +0.000 C 
BRANCH   7  10
ATOM      8  O   UNL     1      49.241   4.426  18.177  0.00  0.00    +0.000 OA
ATOM      9  C   UNL     1      50.371   4.482  17.705  0.00  0.00    +0.000 C 
ATOM     10  N   UNL     1      50.889   5.619  17.124  0.00  0.00    +0.000 N 
ATOM     11  H   UNL     1      51.730   5.575  16.566  0.00  0.00    +0.000 HD
BRANCH   9  12
ATOM     12  C   UNL     1      51.240   3.285  17.718  0.00  0.00    +0.000 A 
ATOM     13  C   UNL     1      52.580   3.321  18.108  0.00  0.00    +0.000 A 
ATOM     14  C   UNL     1      53.325   2.143  18.105  0.00  0.00    +0.000 A 
ATOM     15  C   UNL     1      52.701   0.967  17.716  0.00  0.00    +0.000 A 
ATOM     16  N   UNL     1      51.404   0.895  17.345  0.00  0.00    +0.000 NA
ATOM     17  C   UNL     1      50.698   2.055  17.366  0.00  0.00    +0.000 A 
ENDBRANCH   9  12
ENDBRANCH   7  10
ENDBRANCH   1   7
BRANCH   4  18
ATOM     18  C   UNL     1      47.592   7.493  11.900  0.00  0.00    +0.000 C 
BRANCH  18  19
ATOM     19  N   UNL     1      46.853   6.325  11.483  0.00  0.00    +0.000 N 
ATOM     20  C   UNL     1      45.476   6.343  11.496  0.00  0.00    +0.000 C 
ATOM     21  O   UNL     1      44.856   7.340  11.855  0.00  0.00    +0.000 OA
ATOM     22  H   UNL     1      47.336   5.603  10.953  0.00  0.00    +0.000 HD
BRANCH  20  23
ATOM     23  C   UNL     1      44.777   5.097  11.148  0.00  0.00    +0.000 A 
ATOM     24  C   UNL     1      43.807   4.584  11.998  0.00  0.00    +0.000 A 
ATOM     25  S   UNL     1      43.321   2.996  11.596  0.00  0.00    +0.000 S 
ATOM     26  C   UNL     1      44.351   2.972  10.243  0.00  0.00    +0.000 A 
ATOM     27  N   UNL     1      44.516   1.848   9.495  0.00  0.00    +0.000 NA
ATOM     28  C   UNL     1      45.292   1.997   8.474  0.00  0.00    +0.000 A 
ATOM     29  N   UNL     1      45.877   3.181   8.102  0.00  0.00    +0.000 N 
ATOM     30  C   UNL     1      45.710   4.346   8.809  0.00  0.00    +0.000 A 
ATOM     31  O   UNL     1      46.152   5.418   8.408  0.00  0.00    +0.000 OA
ATOM     32  C   UNL     1      44.954   4.200  10.034  0.00  0.00    +0.000 A 
ATOM     33  H   UNL     1      46.407   3.248   7.246  0.00  0.00    +0.000 HD
ENDBRANCH  20  23
ENDBRANCH  18  19
ENDBRANCH   4  18
TORSDOF 6
ENDMDL
MODEL 6
REMARK VINA RESULT:    -7.220      3.458      8.897
REMARK INTER + INTRA:         -10.758
REMARK INTER:                  -9.997
REMARK INTRA:                  -0.761
REMARK UNBOUND:                -1.006
REMARK  Name = 
REMARK  6 active torsions:
REMARK  status: ('A' for Active; 'I' for Inactive)
REMARK    1  A    between atoms: C_2  and  C_25
REMARK    2  A    between atoms: N_3  and  C_4
REMARK    3  A    between atoms: C_4  and  C_5
REMARK    4  A    between atoms: C_8  and  C_9
REMARK    5  A    between atoms: C_9  and  N_10
REMARK    6  A    between atoms: C_11  and  C_13
REMARK                            x       y       z     vdW  Elec       q    Type
REMARK                         _______ _______ _______ _____ _____    ______ ____
ROOT
ATOM      1  C   UNL     1      49.253   7.156  16.263  0.00  0.00    +0.000 A 
ATOM      2  N   UNL     1      48.829   6.178  15.436  0.00  0.00    +0.000 NA
ATOM      3  C   UNL     1      48.407   6.558  14.215  0.00  0.00    +0.000 A 
ATOM      4  C   UNL     1      48.419   7.863  13.762  0.00  0.00    +0.000 A 
ATOM      5  C   UNL     1      48.894   8.779  14.677  0.00  0.00    +0.000 A 
ATOM      6  N   UNL     1      49.321   8.457  15.919  0.00  0.00    +0.000 NA
ENDROOT
BRANCH   1   7
ATOM      7  C   UNL     1      49.719   6.748  17.648  0.00  0.00    +0.000 C 
BRANCH   7  10
ATOM      8  O   UNL     1      48.952   4.107  18.090  0.00  0.00    +0.000 OA
ATOM      9  C   UNL     1      50.136   4.340  17.874  0.00  0.00    +0.000 C 
ATOM     10  N   UNL     1      50.626   5.609  17.654  0.00  0.00    +0.000 N 
ATOM     11  H   UNL     1      51.554   5.745  17.277  0.00  0.00    +0.000 HD
BRANCH   9  12
ATOM     12  C   UNL     1      51.112   3.229  17.812  0.00  0.00    +0.000 A 
ATOM     13  C   UNL     1      52.426   3.343  18.271  0.00  0.00    +0.000 A 
ATOM     14  C   UNL     1      53.276   2.242  18.189  0.00  0.00    +0.000 A 
ATOM     15  C   UNL     1      52.780   1.062  17.655  0.00  0.00    +0.000 A 
ATOM     16  N   UNL     1      51.512   0.914  17.216  0.00  0.00    +0.000 NA
ATOM     17  C   UNL     1      50.701   1.999  17.315  0.00  0.00    +0.000 A 
ENDBRANCH   9  12
ENDBRANCH   7  10
ENDBRANCH   1   7
BRANCH   4  18
ATOM     18  C   UNL     1      47.972   8.230  12.389  0.00  0.00    +0.000 C 
BRANCH  18  19
ATOM     19  N   UNL     1      47.463   7.111  11.633  0.00  0.00    +0.000 N 
ATOM     20  C   UNL     1      46.114   6.835  11.637  0.00  0.00    +0.000 C 
ATOM     21  O   UNL     1      45.325   7.529  12.273  0.00  0.00    +0.000 OA
ATOM     22  H   UNL     1      48.053   6.696  10.915  0.00  0.00    +0.000 HD
BRANCH  20  23
ATOM     23  C   UNL     1      45.665   5.631  10.924  0.00  0.00    +0.000 A 
ATOM     24  C   UNL     1      45.810   5.545   9.546  0.00  0.00    +0.000 A 
ATOM     25  S   UNL     1      44.971   4.227   8.854  0.00  0.00    +0.000 S 
ATOM     26  C   UNL     1      44.439   3.703  10.381  0.00  0.00    +0.000 A 
ATOM     27  N   UNL     1      43.568   2.666  10.512  0.00  0.00    +0.000 NA
ATOM     28  C   UNL     1      43.293   2.354  11.735  0.00  0.00    +0.000 A 
ATOM     29  N   UNL     1      43.850   2.950  12.839  0.00  0.00    +0.000 N 
ATOM     30  C   UNL     1      44.757   3.976  12.751  0.00  0.00    +0.000 A 
ATOM     31  O   UNL     1      45.325   4.427  13.740  0.00  0.00    +0.000 OA
ATOM     32  C   UNL     1      44.999   4.447  11.404  0.00  0.00    +0.000 A 
ATOM     33  H   UNL     1      43.653   2.602  13.766  0.00  0.00    +0.000 HD
ENDBRANCH  20  23
ENDBRANCH  18  19
ENDBRANCH   4  18
TORSDOF 6
ENDMDL
MODEL 7
REMARK VINA RESULT:    -7.190      3.388      3.969
REMARK INTER + INTRA:         -10.717
REMARK INTER:                  -9.995
REMARK INTRA:                  -0.722
REMARK UNBOUND:                -1.006
REMARK  Name = 
REMARK  6 active torsions:
REMARK  status: ('A' for Active; 'I' for Inactive)
REMARK    1  A    between atoms: C_2  and  C_25
REMARK    2  A    between atoms: N_3  and  C_4
REMARK    3  A    between atoms: C_4  and  C_5
REMARK    4  A    between atoms: C_8  and  C_9
REMARK    5  A    between atoms: C_9  and  N_10
REMARK    6  A    between atoms: C_11  and  C_13
REMARK                            x       y       z     vdW  Elec       q    Type
REMARK                         _______ _______ _______ _____ _____    ______ ____
ROOT
ATOM      1  C   UNL     1      45.650   6.914  11.880  0.00  0.00    +0.000 A 
ATOM      2  N   UNL     1      45.231   8.105  12.352  0.00  0.00    +0.000 NA
ATOM      3  C   UNL     1      46.042   8.731  13.226  0.00  0.00    +0.000 A 
ATOM      4  C   UNL     1      47.270   8.243  13.628  0.00  0.00    +0.000 A 
ATOM      5  C   UNL     1      47.612   7.031  13.068  0.00  0.00    +0.000 A 
ATOM      6  N   UNL     1      46.834   6.354  12.194  0.00  0.00    +0.000 NA
ENDROOT
BRANCH   1   7
ATOM      7  C   UNL     1      44.742   6.189  10.905  0.00  0.00    +0.000 C 
BRANCH   7  10
ATOM      8  O   UNL     1      43.662   3.819   9.917  0.00  0.00    +0.000 OA
ATOM      9  C   UNL     1      44.804   4.119   9.588  0.00  0.00    +0.000 C 
ATOM     10  N   UNL     1      45.439   5.260  10.026  0.00  0.00    +0.000 N 
ATOM     11  H   UNL     1      46.287   5.582   9.580  0.00  0.00    +0.000 HD
BRANCH   9  12
ATOM     12  C   UNL     1      45.559   3.253   8.656  0.00  0.00    +0.000 A 
ATOM     13  C   UNL     1      46.267   3.749   7.559  0.00  0.00    +0.000 A 
ATOM     14  C   UNL     1      46.965   2.863   6.739  0.00  0.00    +0.000 A 
ATOM     15  C   UNL     1      46.933   1.512   7.047  0.00  0.00    +0.000 A 
ATOM     16  N   UNL     1      46.270   1.001   8.107  0.00  0.00    +0.000 NA
ATOM     17  C   UNL     1      45.606   1.885   8.896  0.00  0.00    +0.000 A 
ENDBRANCH   9  12
ENDBRANCH   7  10
ENDBRANCH   1   7
BRANCH   4  18
ATOM     18  C   UNL     1      48.148   8.988  14.574  0.00  0.00    +0.000 C 
BRANCH  18  19
ATOM     19  N   UNL     1      47.632   9.031  15.922  0.00  0.00    +0.000 N 
ATOM     20  C   UNL     1      48.474   8.800  16.987  0.00  0.00    +0.000 C 
ATOM     21  O   UNL     1      49.666   8.559  16.816  0.00  0.00    +0.000 OA
ATOM     22  H   UNL     1      46.731   9.472  16.087  0.00  0.00    +0.000 HD
BRANCH  20  23
ATOM     23  C   UNL     1      47.876   8.767  18.330  0.00  0.00    +0.000 A 
ATOM     24  C   UNL     1      47.510   9.950  18.956  0.00  0.00    +0.000 A 
ATOM     25  S   UNL     1      47.119   9.753  20.608  0.00  0.00    +0.000 S 
ATOM     26  C   UNL     1      47.372   8.074  20.516  0.00  0.00    +0.000 A 
ATOM     27  N   UNL     1      47.317   7.286  21.624  0.00  0.00    +0.000 NA
ATOM     28  C   UNL     1      47.483   6.027  21.389  0.00  0.00    +0.000 A 
ATOM     29  N   UNL     1      47.649   5.478  20.142  0.00  0.00    +0.000 N 
ATOM     30  C   UNL     1      47.678   6.233  18.996  0.00  0.00    +0.000 A 
ATOM     31  O   UNL     1      47.721   5.721  17.882  0.00  0.00    +0.000 OA
ATOM     32  C   UNL     1      47.625   7.662  19.220  0.00  0.00    +0.000 A 
ATOM     33  H   UNL     1      47.692   4.477  20.022  0.00  0.00    +0.000 HD
ENDBRANCH  20  23
ENDBRANCH  18  19
ENDBRANCH   4  18
TORSDOF 6
ENDMDL
MODEL 8
REMARK VINA RESULT:    -6.869      4.921      7.413
REMARK INTER + INTRA:         -10.285
REMARK INTER:                  -9.356
REMARK INTRA:                  -0.928
REMARK UNBOUND:                -1.006
REMARK  Name = 
REMARK  6 active torsions:
REMARK  status: ('A' for Active; 'I' for Inactive)
REMARK    1  A    between atoms: C_2  and  C_25
REMARK    2  A    between atoms: N_3  and  C_4
REMARK    3  A    between atoms: C_4  and  C_5
REMARK    4  A    between atoms: C_8  and  C_9
REMARK    5  A    between atoms: C_9  and  N_10
REMARK    6  A    between atoms: C_11  and  C_13
REMARK                            x       y       z     vdW  Elec       q    Type
REMARK                         _______ _______ _______ _____ _____    ______ ____
ROOT
ATOM      1  C   UNL     1      44.775   9.009  11.857  0.00  0.00    +0.000 A 
ATOM      2  N   UNL     1      45.766   8.951  12.769  0.00  0.00    +0.000 NA
ATOM      3  C   UNL     1      46.154   7.723  13.166  0.00  0.00    +0.000 A 
ATOM      4  C   UNL     1      45.626   6.547  12.671  0.00  0.00    +0.000 A 
ATOM      5  C   UNL     1      44.636   6.720  11.727  0.00  0.00    +0.000 A 
ATOM      6  N   UNL     1      44.200   7.926  11.299  0.00  0.00    +0.000 NA
ENDROOT
BRANCH   1   7
ATOM      7  C   UNL     1      44.316  10.384  11.409  0.00  0.00    +0.000 C 
BRANCH   7  10
ATOM      8  O   UNL     1      41.891  10.252  10.046  0.00  0.00    +0.000 OA
ATOM      9  C   UNL     1      41.888  10.668  11.199  0.00  0.00    +0.000 C 
ATOM     10  N   UNL     1      43.030  10.785  11.961  0.00  0.00    +0.000 N 
ATOM     11  H   UNL     1      42.970  10.929  12.960  0.00  0.00    +0.000 HD
BRANCH   9  12
ATOM     12  C   UNL     1      40.612  11.045  11.847  0.00  0.00    +0.000 A 
ATOM     13  C   UNL     1      39.390  10.451  11.526  0.00  0.00    +0.000 A 
ATOM     14  C   UNL     1      38.236  10.857  12.196  0.00  0.00    +0.000 A 
ATOM     15  C   UNL     1      38.347  11.839  13.168  0.00  0.00    +0.000 A 
ATOM     16  N   UNL     1      39.515  12.424  13.512  0.00  0.00    +0.000 NA
ATOM     17  C   UNL     1      40.625  12.005  12.852  0.00  0.00    +0.000 A 
ENDBRANCH   9  12
ENDBRANCH   7  10
ENDBRANCH   1   7
BRANCH   4  18
ATOM     18  C   UNL     1      46.110   5.210  13.118  0.00  0.00    +0.000 C 
BRANCH  18  19
ATOM     19  N   UNL     1      46.778   5.241  14.397  0.00  0.00    +0.000 N 
ATOM     20  C   UNL     1      47.367   4.099  14.893  0.00  0.00    +0.000 C 
ATOM     21  O   UNL     1      47.339   3.045  14.263  0.00  0.00    +0.000 OA
ATOM     22  H   UNL     1      47.026   6.142  14.798  0.00  0.00    +0.000 HD
BRANCH  20  23
ATOM     23  C   UNL     1      47.953   4.166  16.239  0.00  0.00    +0.000 A 
ATOM     24  C   UNL     1      47.734   3.137  17.144  0.00  0.00    +0.000 A 
ATOM     25  S   UNL     1      48.227   3.515  18.736  0.00  0.00    +0.000 S 
ATOM     26  C   UNL     1      48.799   5.040  18.248  0.00  0.00    +0.000 A 
ATOM     27  N   UNL     1      49.259   5.948  19.151  0.00  0.00    +0.000 NA
ATOM     28  C   UNL     1      49.703   7.041  18.626  0.00  0.00    +0.000 A 
ATOM     29  N   UNL     1      49.776   7.289  17.278  0.00  0.00    +0.000 N 
ATOM     30  C   UNL     1      49.354   6.387  16.333  0.00  0.00    +0.000 A 
ATOM     31  O   UNL     1      49.522   6.578  15.133  0.00  0.00    +0.000 OA
ATOM     32  C   UNL     1      48.729   5.200  16.876  0.00  0.00    +0.000 A 
ATOM     33  H   UNL     1      50.210   8.132  16.932  0.00  0.00    +0.000 HD
ENDBRANCH  20  23
ENDBRANCH  18  19
ENDBRANCH   4  18
TORSDOF 6
ENDMDL
MODEL 9
REMARK VINA RESULT:    -6.692      4.631      6.844
REMARK INTER + INTRA:         -10.045
REMARK INTER:                  -9.417
REMARK INTRA:                  -0.628
REMARK UNBOUND:                -1.006
REMARK  Name = 
REMARK  6 active torsions:
REMARK  status: ('A' for Active; 'I' for Inactive)
REMARK    1  A    between atoms: C_2  and  C_25
REMARK    2  A    between atoms: N_3  and  C_4
REMARK    3  A    between atoms: C_4  and  C_5
REMARK    4  A    between atoms: C_8  and  C_9
REMARK    5  A    between atoms: C_9  and  N_10
REMARK    6  A    between atoms: C_11  and  C_13
REMARK                            x       y       z     vdW  Elec       q    Type
REMARK                         _______ _______ _______ _____ _____    ______ ____
ROOT
ATOM      1  C   UNL     1      45.147   8.958  12.031  0.00  0.00    +0.000 A 
ATOM      2  N   UNL     1      46.189   8.999  12.886  0.00  0.00    +0.000 NA
ATOM      3  C   UNL     1      46.656   7.816  13.332  0.00  0.00    +0.000 A 
ATOM      4  C   UNL     1      46.156   6.590  12.939  0.00  0.00    +0.000 A 
ATOM      5  C   UNL     1      45.108   6.661  12.046  0.00  0.00    +0.000 A 
ATOM      6  N   UNL     1      44.593   7.818  11.574  0.00  0.00    +0.000 NA
ENDROOT
BRANCH   1   7
ATOM      7  C   UNL     1      44.600  10.281  11.531  0.00  0.00    +0.000 C 
BRANCH   7  10
ATOM      8  O   UNL     1      42.320  10.477   9.944  0.00  0.00    +0.000 OA
ATOM      9  C   UNL     1      42.205  10.656  11.151  0.00  0.00    +0.000 C 
ATOM     10  N   UNL     1      43.267  10.594  12.026  0.00  0.00    +0.000 N 
ATOM     11  H   UNL     1      43.111  10.538  13.023  0.00  0.00    +0.000 HD
BRANCH   9  12
ATOM     12  C   UNL     1      40.873  10.926  11.737  0.00  0.00    +0.000 A 
ATOM     13  C   UNL     1      40.618  12.010  12.579  0.00  0.00    +0.000 A 
ATOM     14  C   UNL     1      39.330  12.201  13.077  0.00  0.00    +0.000 A 
ATOM     15  C   UNL     1      38.340  11.302  12.709  0.00  0.00    +0.000 A 
ATOM     16  N   UNL     1      38.549  10.252  11.886  0.00  0.00    +0.000 NA
ATOM     17  C   UNL     1      39.810  10.094  11.407  0.00  0.00    +0.000 A 
ENDBRANCH   9  12
ENDBRANCH   7  10
ENDBRANCH   1   7
BRANCH   4  18
ATOM     18  C   UNL     1      46.726   5.305  13.435  0.00  0.00    +0.000 C 
BRANCH  18  19
ATOM     19  N   UNL     1      47.489   5.450  14.652  0.00  0.00    +0.000 N 
ATOM     20  C   UNL     1      47.562   4.404  15.545  0.00  0.00    +0.000 C 
ATOM     21  O   UNL     1      46.989   3.339  15.326  0.00  0.00    +0.000 OA
ATOM     22  H   UNL     1      48.161   6.210  14.722  0.00  0.00    +0.000 HD
BRANCH  20  23
ATOM     23  C   UNL     1      48.277   4.638  16.808  0.00  0.00    +0.000 A 
ATOM     24  C   UNL     1      47.909   5.695  17.629  0.00  0.00    +0.000 A 
ATOM     25  S   UNL     1      49.024   6.000  18.887  0.00  0.00    +0.000 S 
ATOM     26  C   UNL     1      49.999   4.693  18.404  0.00  0.00    +0.000 A 
ATOM     27  N   UNL     1      51.200   4.446  18.995  0.00  0.00    +0.000 NA
ATOM     28  C   UNL     1      51.802   3.392  18.553  0.00  0.00    +0.000 A 
ATOM     29  N   UNL     1      51.291   2.535  17.612  0.00  0.00    +0.000 N 
ATOM     30  C   UNL     1      50.070   2.728  17.016  0.00  0.00    +0.000 A 
ATOM     31  O   UNL     1      49.579   1.899  16.256  0.00  0.00    +0.000 OA
ATOM     32  C   UNL     1      49.414   3.965  17.383  0.00  0.00    +0.000 A 
ATOM     33  H   UNL     1      51.779   1.684  17.371  0.00  0.00    +0.000 HD
ENDBRANCH  20  23
ENDBRANCH  18  19
ENDBRANCH   4  18
TORSDOF 6
ENDMDL
