MODEL 1
REMARK VINA RESULT:    -8.074      0.000      0.000
REMARK INTER + INTRA:         -12.618
REMARK INTER:                 -11.378
REMARK INTRA:                  -1.240
REMARK UNBOUND:                -1.240
REMARK  Name = 
REMARK  8 active torsions:
REMARK  status: ('A' for Active; 'I' for Inactive)
REMARK    1  A    between atoms: C_1  and  C_2
REMARK    2  A    between atoms: C_6  and  C_7
REMARK    3  A    between atoms: C_7  and  O_8
REMARK    4  A    between atoms: O_8  and  C_9
REMARK    5  A    between atoms: C_9  and  C_10
REMARK    6  A    between atoms: C_13  and  C_14
REMARK    7  A    between atoms: C_14  and  N_15
REMARK    8  A    between atoms: C_16  and  C_18
REMARK                            x       y       z     vdW  Elec       q    Type
REMARK                         _______ _______ _______ _____ _____    ______ ____
ROOT
ATOM      1  C   UNL     1      44.493   4.625  12.329  0.00  0.00    +0.000 A 
ATOM      2  C   UNL     1      44.866   5.809  11.702  0.00  0.00    +0.000 A 
ATOM      3  C   UNL     1      46.018   6.471  12.123  0.00  0.00    +0.000 A 
ATOM      4  C   UNL     1      46.786   5.939  13.161  0.00  0.00    +0.000 A 
ATOM      5  C   UNL     1      46.321   4.762  13.742  0.00  0.00    +0.000 A 
ATOM      6  N   UNL     1      45.206   4.098  13.356  0.00  0.00    +0.000 NA
ENDROOT
BRANCH   1   7
ATOM      7  C   UNL     1      43.245   3.908  11.867  0.00  0.00    +0.000 C 
BRANCH   7   8
ATOM      8  O   UNL     1      43.346   3.617  10.473  0.00  0.00    +0.000 OA
BRANCH   8   9
ATOM      9  C   UNL     1      44.161   2.475  10.231  0.00  0.00    +0.000 C 
BRANCH   9  15
ATOM     10  C   UNL     1      47.427   0.782   6.812  0.00  0.00    +0.000 C 
ATOM     11  C   UNL     1      46.712   1.933   7.450  0.00  0.00    +0.000 A 
ATOM     12  C   UNL     1      46.921   3.244   7.008  0.00  0.00    +0.000 A 
ATOM     13  C   UNL     1      46.244   4.306   7.607  0.00  0.00    +0.000 A 
ATOM     14  C   UNL     1      45.354   4.065   8.651  0.00  0.00    +0.000 A 
ATOM     15  C   UNL     1      45.114   2.758   9.098  0.00  0.00    +0.000 A 
ATOM     16  C   UNL     1      45.811   1.699   8.497  0.00  0.00    +0.000 A 
ENDBRANCH   9  15
ENDBRANCH   8   9
ENDBRANCH   7   8
ENDBRANCH   1   7
BRANCH   4  17
ATOM     17  C   UNL     1      48.058   6.584  13.649  0.00  0.00    +0.000 C 
BRANCH  17  18
ATOM     18  N   UNL     1      48.172   6.586  15.083  0.00  0.00    +0.000 N 
ATOM     19  C   UNL     1      49.346   6.885  15.728  0.00  0.00    +0.000 C 
ATOM     20  O   UNL     1      50.377   7.189  15.132  0.00  0.00    +0.000 OA
ATOM     21  H   UNL     1      47.479   6.049  15.591  0.00  0.00    +0.000 HD
BRANCH  19  22
ATOM     22  C   UNL     1      49.274   6.877  17.195  0.00  0.00    +0.000 A 
ATOM     23  C   UNL     1      49.374   8.059  17.914  0.00  0.00    +0.000 A 
ATOM     24  S   UNL     1      49.252   7.838  19.604  0.00  0.00    +0.000 S 
ATOM     25  C   UNL     1      49.088   6.153  19.431  0.00  0.00    +0.000 A 
ATOM     26  N   UNL     1      48.970   5.339  20.515  0.00  0.00    +0.000 NA
ATOM     27  C   UNL     1      48.856   4.082  20.230  0.00  0.00    +0.000 A 
ATOM     28  N   UNL     1      48.840   3.566  18.961  0.00  0.00    +0.000 N 
ATOM     29  C   UNL     1      48.934   4.350  17.836  0.00  0.00    +0.000 A 
ATOM     30  O   UNL     1      48.859   3.862  16.721  0.00  0.00    +0.000 OA
ATOM     31  C   UNL     1      49.091   5.768  18.102  0.00  0.00    +0.000 A 
ATOM     32  H   UNL     1      48.720   2.576  18.803  0.00  0.00    +0.000 HD
ENDBRANCH  19  22
ENDBRANCH  17  18
ENDBRANCH   4  17
TORSDOF 7
ENDMDL
MODEL 2
REMARK VINA RESULT:    -7.564      3.768      5.663
REMARK INTER + INTRA:         -11.899
REMARK INTER:                 -11.304
REMARK INTRA:                  -0.596
REMARK UNBOUND:                -1.240
REMARK  Name = 
REMARK  8 active torsions:
REMARK  status: ('A' for Active; 'I' for Inactive)
REMARK    1  A    between atoms: C_1  and  C_2
REMARK    2  A    between atoms: C_6  and  C_7
REMARK    3  A    between atoms: C_7  and  O_8
REMARK    4  A    between atoms: O_8  and  C_9
REMARK    5  A    between atoms: C_9  and  C_10
REMARK    6  A    between atoms: C_13  and  C_14
REMARK    7  A    between atoms: C_14  and  N_15
REMARK    8  A    between atoms: C_16  and  C_18
REMARK                            x       y       z     vdW  Elec       q    Type
REMARK                         _______ _______ _______ _____ _____    ______ ____
ROOT
ATOM      1  C   UNL     1      44.841   4.172  12.708  0.00  0.00    +0.000 A 
ATOM      2  C   UNL     1      44.742   5.541  12.477  0.00  0.00    +0.000 A 
ATOM      3  C   UNL     1      45.796   6.373  12.851  0.00  0.00    +0.000 A 
ATOM      4  C   UNL     1      46.937   5.828  13.446  0.00  0.00    +0.000 A 
ATOM      5  C   UNL     1      46.933   4.451  13.656  0.00  0.00    +0.000 A 
ATOM      6  N   UNL     1      45.925   3.618  13.305  0.00  0.00    +0.000 NA
ENDROOT
BRANCH   1   7
ATOM      7  C   UNL     1      43.698   3.272  12.296  0.00  0.00    +0.000 C 
BRANCH   7   8
ATOM      8  O   UNL     1      44.002   2.651  11.048  0.00  0.00    +0.000 OA
BRANCH   8   9
ATOM      9  C   UNL     1      43.970   3.584   9.973  0.00  0.00    +0.000 C 
BRANCH   9  15
ATOM     10  C   UNL     1      46.786   0.110   7.686  0.00  0.00    +0.000 C 
ATOM     11  C   UNL     1      46.414   1.550   7.870  0.00  0.00    +0.000 A 
ATOM     12  C   UNL     1      47.040   2.555   7.125  0.00  0.00    +0.000 A 
ATOM     13  C   UNL     1      46.680   3.891   7.301  0.00  0.00    +0.000 A 
ATOM     14  C   UNL     1      45.691   4.231   8.222  0.00  0.00    +0.000 A 
ATOM     15  C   UNL     1      45.036   3.239   8.965  0.00  0.00    +0.000 A 
ATOM     16  C   UNL     1      45.417   1.900   8.790  0.00  0.00    +0.000 A 
ENDBRANCH   9  15
ENDBRANCH   8   9
ENDBRANCH   7   8
ENDBRANCH   1   7
BRANCH   4  17
ATOM     17  C   UNL     1      48.125   6.663  13.851  0.00  0.00    +0.000 C 
BRANCH  17  18
ATOM     18  N   UNL     1      48.052   8.014  13.363  0.00  0.00    +0.000 N 
ATOM     19  C   UNL     1      48.531   8.378  12.128  0.00  0.00    +0.000 C 
ATOM     20  O   UNL     1      49.038   7.577  11.346  0.00  0.00    +0.000 OA
ATOM     21  H   UNL     1      47.949   8.741  14.061  0.00  0.00    +0.000 HD
BRANCH  19  22
ATOM     22  C   UNL     1      48.341   9.791  11.776  0.00  0.00    +0.000 A 
ATOM     23  C   UNL     1      49.415  10.569  11.372  0.00  0.00    +0.000 A 
ATOM     24  S   UNL     1      48.985  12.179  10.994  0.00  0.00    +0.000 S 
ATOM     25  C   UNL     1      47.352  11.895  11.382  0.00  0.00    +0.000 A 
ATOM     26  N   UNL     1      46.424  12.887  11.305  0.00  0.00    +0.000 NA
ATOM     27  C   UNL     1      45.226  12.525  11.633  0.00  0.00    +0.000 A 
ATOM     28  N   UNL     1      44.870  11.261  12.022  0.00  0.00    +0.000 N 
ATOM     29  C   UNL     1      45.767  10.222  12.094  0.00  0.00    +0.000 A 
ATOM     30  O   UNL     1      45.404   9.096  12.390  0.00  0.00    +0.000 OA
ATOM     31  C   UNL     1      47.133  10.583  11.761  0.00  0.00    +0.000 A 
ATOM     32  H   UNL     1      43.911  11.034  12.239  0.00  0.00    +0.000 HD
ENDBRANCH  19  22
ENDBRANCH  17  18
ENDBRANCH   4  17
TORSDOF 7
ENDMDL
MODEL 3
REMARK VINA RESULT:    -7.284      3.019      8.730
REMARK INTER + INTRA:         -11.504
REMARK INTER:                 -10.129
REMARK INTRA:                  -1.375
REMARK UNBOUND:                -1.240
REMARK  Name = 
REMARK  8 active torsions:
REMARK  status: ('A' for Active; 'I' for Inactive)
REMARK    1  A    between atoms: C_1  and  C_2
REMARK    2  A    between atoms: C_6  and  C_7
REMARK    3  A    between atoms: C_7  and  O_8
REMARK    4  A    between atoms: O_8  and  C_9
REMARK    5  A    between atoms: C_9  and  C_10
REMARK    6  A    between atoms: C_13  and  C_14
REMARK    7  A    between atoms: C_14  and  N_15
REMARK    8  A    between atoms: C_16  and  C_18
REMARK                            x       y       z     vdW  Elec       q    Type
REMARK                         _______ _______ _______ _____ _____    ______ ____
ROOT
ATOM      1  C   UNL     1      49.112   7.784  16.089  0.00  0.00    +0.000 A 
ATOM      2  C   UNL     1      48.596   8.950  15.534  0.00  0.00    +0.000 A 
ATOM      3  C   UNL     1      48.135   8.933  14.218  0.00  0.00    +0.000 A 
ATOM      4  C   UNL     1      48.191   7.751  13.476  0.00  0.00    +0.000 A 
ATOM      5  C   UNL     1      48.744   6.642  14.111  0.00  0.00    +0.000 A 
ATOM      6  N   UNL     1      49.200   6.628  15.385  0.00  0.00    +0.000 NA
ENDROOT
BRANCH   1   7
ATOM      7  C   UNL     1      49.606   7.805  17.518  0.00  0.00    +0.000 C 
BRANCH   7   8
ATOM      8  O   UNL     1      48.560   7.386  18.394  0.00  0.00    +0.000 OA
BRANCH   8   9
ATOM      9  C   UNL     1      48.944   6.256  19.171  0.00  0.00    +0.000 C 
BRANCH   9  15
ATOM     10  C   UNL     1      50.674   1.996  17.151  0.00  0.00    +0.000 C 
ATOM     11  C   UNL     1      49.530   2.931  17.401  0.00  0.00    +0.000 A 
ATOM     12  C   UNL     1      48.247   2.641  16.927  0.00  0.00    +0.000 A 
ATOM     13  C   UNL     1      47.190   3.517  17.173  0.00  0.00    +0.000 A 
ATOM     14  C   UNL     1      47.409   4.688  17.894  0.00  0.00    +0.000 A 
ATOM     15  C   UNL     1      48.682   4.991  18.396  0.00  0.00    +0.000 A 
ATOM     16  C   UNL     1      49.741   4.109  18.130  0.00  0.00    +0.000 A 
ENDBRANCH   9  15
ENDBRANCH   8   9
ENDBRANCH   7   8
ENDBRANCH   1   7
BRANCH   4  17
ATOM     17  C   UNL     1      47.685   7.652  12.059  0.00  0.00    +0.000 C 
BRANCH  17  18
ATOM     18  N   UNL     1      46.921   6.458  11.819  0.00  0.00    +0.000 N 
ATOM     19  C   UNL     1      45.555   6.417  11.959  0.00  0.00    +0.000 C 
ATOM     20  O   UNL     1      44.888   7.397  12.282  0.00  0.00    +0.000 OA
ATOM     21  H   UNL     1      47.426   5.581  11.870  0.00  0.00    +0.000 HD
BRANCH  19  22
ATOM     22  C   UNL     1      44.932   5.126  11.637  0.00  0.00    +0.000 A 
ATOM     23  C   UNL     1      44.180   4.449  12.586  0.00  0.00    +0.000 A 
ATOM     24  S   UNL     1      43.531   2.976  12.013  0.00  0.00    +0.000 S 
ATOM     25  C   UNL     1      44.255   3.183  10.487  0.00  0.00    +0.000 A 
ATOM     26  N   UNL     1      44.122   2.248   9.508  0.00  0.00    +0.000 NA
ATOM     27  C   UNL     1      44.730   2.539   8.403  0.00  0.00    +0.000 A 
ATOM     28  N   UNL     1      45.451   3.683   8.185  0.00  0.00    +0.000 N 
ATOM     29  C   UNL     1      45.595   4.665   9.135  0.00  0.00    +0.000 A 
ATOM     30  O   UNL     1      46.197   5.697   8.888  0.00  0.00    +0.000 OA
ATOM     31  C   UNL     1      44.953   4.375  10.404  0.00  0.00    +0.000 A 
ATOM     32  H   UNL     1      45.880   3.866   7.290  0.00  0.00    +0.000 HD
ENDBRANCH  19  22
ENDBRANCH  17  18
ENDBRANCH   4  17
TORSDOF 7
ENDMDL
MODEL 4
REMARK VINA RESULT:    -6.902      3.206      8.863
REMARK INTER + INTRA:         -10.966
REMARK INTER:                  -9.943
REMARK INTRA:                  -1.023
REMARK UNBOUND:                -1.240
REMARK  Name = 
REMARK  8 active torsions:
REMARK  status: ('A' for Active; 'I' for Inactive)
REMARK    1  A    between atoms: C_1  and  C_2
REMARK    2  A    between atoms: C_6  and  C_7
REMARK    3  A    between atoms: C_7  and  O_8
REMARK    4  A    between atoms: O_8  and  C_9
REMARK    5  A    between atoms: C_9  and  C_10
REMARK    6  A    between atoms: C_13  and  C_14
REMARK    7  A    between atoms: C_14  and  N_15
REMARK    8  A    between atoms: C_16  and  C_18
REMARK                            x       y       z     vdW  Elec       q    Type
REMARK                         _______ _______ _______ _____ _____    ______ ____
ROOT
ATOM      1  C   UNL     1      50.850   7.801  14.681  0.00  0.00    +0.000 A 
ATOM      2  C   UNL     1      51.124   8.593  13.570  0.00  0.00    +0.000 A 
ATOM      3  C   UNL     1      50.219   8.619  12.511  0.00  0.00    +0.000 A 
ATOM      4  C   UNL     1      49.049   7.858  12.576  0.00  0.00    +0.000 A 
ATOM      5  C   UNL     1      48.873   7.080  13.718  0.00  0.00    +0.000 A 
ATOM      6  N   UNL     1      49.734   7.034  14.761  0.00  0.00    +0.000 NA
ENDROOT
BRANCH   1   7
ATOM      7  C   UNL     1      51.832   7.780  15.830  0.00  0.00    +0.000 C 
BRANCH   7   8
ATOM      8  O   UNL     1      52.048   6.434  16.253  0.00  0.00    +0.000 OA
BRANCH   8   9
ATOM      9  C   UNL     1      51.384   6.155  17.482  0.00  0.00    +0.000 C 
BRANCH   9  15
ATOM     10  C   UNL     1      47.310   3.222  17.335  0.00  0.00    +0.000 C 
ATOM     11  C   UNL     1      48.802   3.352  17.381  0.00  0.00    +0.000 A 
ATOM     12  C   UNL     1      49.623   2.220  17.383  0.00  0.00    +0.000 A 
ATOM     13  C   UNL     1      51.010   2.356  17.421  0.00  0.00    +0.000 A 
ATOM     14  C   UNL     1      51.586   3.624  17.456  0.00  0.00    +0.000 A 
ATOM     15  C   UNL     1      50.784   4.773  17.435  0.00  0.00    +0.000 A 
ATOM     16  C   UNL     1      49.388   4.624  17.412  0.00  0.00    +0.000 A 
ENDBRANCH   9  15
ENDBRANCH   8   9
ENDBRANCH   7   8
ENDBRANCH   1   7
BRANCH   4  17
ATOM     17  C   UNL     1      48.013   7.858  11.481  0.00  0.00    +0.000 C 
BRANCH  17  18
ATOM     18  N   UNL     1      47.155   6.705  11.521  0.00  0.00    +0.000 N 
ATOM     19  C   UNL     1      45.789   6.807  11.626  0.00  0.00    +0.000 C 
ATOM     20  O   UNL     1      45.202   7.885  11.677  0.00  0.00    +0.000 OA
ATOM     21  H   UNL     1      47.585   5.831  11.802  0.00  0.00    +0.000 HD
BRANCH  19  22
ATOM     22  C   UNL     1      45.064   5.529  11.615  0.00  0.00    +0.000 A 
ATOM     23  C   UNL     1      44.349   5.113  12.728  0.00  0.00    +0.000 A 
ATOM     24  S   UNL     1      43.567   3.609  12.510  0.00  0.00    +0.000 S 
ATOM     25  C   UNL     1      44.180   3.453  10.930  0.00  0.00    +0.000 A 
ATOM     26  N   UNL     1      43.914   2.355  10.173  0.00  0.00    +0.000 NA
ATOM     27  C   UNL     1      44.449   2.374   8.995  0.00  0.00    +0.000 A 
ATOM     28  N   UNL     1      45.220   3.394   8.503  0.00  0.00    +0.000 N 
ATOM     29  C   UNL     1      45.498   4.531   9.222  0.00  0.00    +0.000 A 
ATOM     30  O   UNL     1      46.141   5.444   8.731  0.00  0.00    +0.000 OA
ATOM     31  C   UNL     1      44.942   4.548  10.562  0.00  0.00    +0.000 A 
ATOM     32  H   UNL     1      45.587   3.362   7.563  0.00  0.00    +0.000 HD
ENDBRANCH  19  22
ENDBRANCH  17  18
ENDBRANCH   4  17
TORSDOF 7
ENDMDL
MODEL 5
REMARK VINA RESULT:    -6.696      3.019      5.087
REMARK INTER + INTRA:         -10.676
REMARK INTER:                 -10.953
REMARK INTRA:                   0.277
REMARK UNBOUND:                -1.240
REMARK  Name = 
REMARK  8 active torsions:
REMARK  status: ('A' for Active; 'I' for Inactive)
REMARK    1  A    between atoms: C_1  and  C_2
REMARK    2  A    between atoms: C_6  and  C_7
REMARK    3  A    between atoms: C_7  and  O_8
REMARK    4  A    between atoms: O_8  and  C_9
REMARK    5  A    between atoms: C_9  and  C_10
REMARK    6  A    between atoms: C_13  and  C_14
REMARK    7  A    between atoms: C_14  and  N_15
REMARK    8  A    between atoms: C_16  and  C_18
REMARK                            x       y       z     vdW  Elec       q    Type
REMARK                         _______ _______ _______ _____ _____    ______ ____
ROOT
ATOM      1  C   UNL     1      46.174   2.019   8.025  0.00  0.00    +0.000 A 
ATOM      2  C   UNL     1      46.336   3.335   7.605  0.00  0.00    +0.000 A 
ATOM      3  C   UNL     1      45.800   4.366   8.374  0.00  0.00    +0.000 A 
ATOM      4  C   UNL     1      45.113   4.071   9.553  0.00  0.00    +0.000 A 
ATOM      5  C   UNL     1      44.983   2.723   9.879  0.00  0.00    +0.000 A 
ATOM      6  N   UNL     1      45.491   1.700   9.153  0.00  0.00    +0.000 NA
ENDROOT
BRANCH   1   7
ATOM      7  C   UNL     1      46.762   0.902   7.191  0.00  0.00    +0.000 C 
BRANCH   7   8
ATOM      8  O   UNL     1      47.909   1.380   6.488  0.00  0.00    +0.000 OA
BRANCH   8   9
ATOM      9  C   UNL     1      47.551   2.010   5.263  0.00  0.00    +0.000 C 
BRANCH   9  15
ATOM     10  C   UNL     1      46.880  -2.775   3.892  0.00  0.00    +0.000 C 
ATOM     11  C   UNL     1      46.605  -1.319   3.665  0.00  0.00    +0.000 A 
ATOM     12  C   UNL     1      45.777  -0.898   2.620  0.00  0.00    +0.000 A 
ATOM     13  C   UNL     1      45.524   0.459   2.424  0.00  0.00    +0.000 A 
ATOM     14  C   UNL     1      46.097   1.404   3.272  0.00  0.00    +0.000 A 
ATOM     15  C   UNL     1      46.914   1.005   4.338  0.00  0.00    +0.000 A 
ATOM     16  C   UNL     1      47.173  -0.363   4.517  0.00  0.00    +0.000 A 
ENDBRANCH   9  15
ENDBRANCH   8   9
ENDBRANCH   7   8
ENDBRANCH   1   7
BRANCH   4  17
ATOM     17  C   UNL     1      44.531   5.136  10.448  0.00  0.00    +0.000 C 
BRANCH  17  18
ATOM     18  N   UNL     1      45.311   5.357  11.636  0.00  0.00    +0.000 N 
ATOM     19  C   UNL     1      46.476   6.084  11.628  0.00  0.00    +0.000 C 
ATOM     20  O   UNL     1      46.927   6.611  10.613  0.00  0.00    +0.000 OA
ATOM     21  H   UNL     1      45.169   4.703  12.397  0.00  0.00    +0.000 HD
BRANCH  19  22
ATOM     22  C   UNL     1      47.124   6.242  12.936  0.00  0.00    +0.000 A 
ATOM     23  C   UNL     1      47.698   7.451  13.299  0.00  0.00    +0.000 A 
ATOM     24  S   UNL     1      48.387   7.434  14.862  0.00  0.00    +0.000 S 
ATOM     25  C   UNL     1      47.963   5.803  15.096  0.00  0.00    +0.000 A 
ATOM     26  N   UNL     1      48.292   5.143  16.239  0.00  0.00    +0.000 NA
ATOM     27  C   UNL     1      47.908   3.908  16.273  0.00  0.00    +0.000 A 
ATOM     28  N   UNL     1      47.217   3.275  15.273  0.00  0.00    +0.000 N 
ATOM     29  C   UNL     1      46.844   3.906  14.111  0.00  0.00    +0.000 A 
ATOM     30  O   UNL     1      46.181   3.328  13.266  0.00  0.00    +0.000 OA
ATOM     31  C   UNL     1      47.276   5.289  14.011  0.00  0.00    +0.000 A 
ATOM     32  H   UNL     1      46.921   2.316  15.372  0.00  0.00    +0.000 HD
ENDBRANCH  19  22
ENDBRANCH  17  18
ENDBRANCH   4  17
TORSDOF 7
ENDMDL
MODEL 6
REMARK VINA RESULT:    -6.661      3.644      9.054
REMARK INTER + INTRA:         -10.627
REMARK INTER:                  -9.205
REMARK INTRA:                  -1.423
REMARK UNBOUND:                -1.240
REMARK  Name = 
REMARK  8 active torsions:
REMARK  status: ('A' for Active; 'I' for Inactive)
REMARK    1  A    between atoms: C_1  and  C_2
REMARK    2  A    between atoms: C_6  and  C_7
REMARK    3  A    between atoms: C_7  and  O_8
REMARK    4  A    between atoms: O_8  and  C_9
REMARK    5  A    between atoms: C_9  and  C_10
REMARK    6  A    between atoms: C_13  and  C_14
REMARK    7  A    between atoms: C_14  and  N_15
REMARK    8  A    between atoms: C_16  and  C_18
REMARK                            x       y       z     vdW  Elec       q    Type
REMARK                         _______ _______ _______ _____ _____    ______ ____
ROOT
ATOM      1  C   UNL     1      49.218   5.572  19.819  0.00  0.00    +0.000 A 
ATOM      2  C   UNL     1      47.864   5.803  19.602  0.00  0.00    +0.000 A 
ATOM      3  C   UNL     1      47.232   5.189  18.522  0.00  0.00    +0.000 A 
ATOM      4  C   UNL     1      47.958   4.349  17.675  0.00  0.00    +0.000 A 
ATOM      5  C   UNL     1      49.313   4.197  17.960  0.00  0.00    +0.000 A 
ATOM      6  N   UNL     1      49.955   4.780  19.000  0.00  0.00    +0.000 NA
ENDROOT
BRANCH   1   7
ATOM      7  C   UNL     1      49.900   6.236  20.994  0.00  0.00    +0.000 C 
BRANCH   7   8
ATOM      8  O   UNL     1      49.690   7.646  20.938  0.00  0.00    +0.000 OA
BRANCH   8   9
ATOM      9  C   UNL     1      50.530   8.266  19.969  0.00  0.00    +0.000 C 
BRANCH   9  15
ATOM     10  C   UNL     1      49.482   7.728  15.086  0.00  0.00    +0.000 C 
ATOM     11  C   UNL     1      49.219   8.415  16.392  0.00  0.00    +0.000 A 
ATOM     12  C   UNL     1      48.239   9.407  16.498  0.00  0.00    +0.000 A 
ATOM     13  C   UNL     1      48.000  10.034  17.721  0.00  0.00    +0.000 A 
ATOM     14  C   UNL     1      48.739   9.672  18.846  0.00  0.00    +0.000 A 
ATOM     15  C   UNL     1      49.713   8.667  18.768  0.00  0.00    +0.000 A 
ATOM     16  C   UNL     1      49.954   8.054  17.528  0.00  0.00    +0.000 A 
ENDBRANCH   9  15
ENDBRANCH   8   9
ENDBRANCH   7   8
ENDBRANCH   1   7
BRANCH   4  17
ATOM     17  C   UNL     1      47.334   3.630  16.506  0.00  0.00    +0.000 C 
BRANCH  17  18
ATOM     18  N   UNL     1      46.765   4.527  15.537  0.00  0.00    +0.000 N 
ATOM     19  C   UNL     1      46.741   4.240  14.194  0.00  0.00    +0.000 C 
ATOM     20  O   UNL     1      47.187   3.195  13.726  0.00  0.00    +0.000 OA
ATOM     21  H   UNL     1      46.685   5.499  15.812  0.00  0.00    +0.000 HD
BRANCH  19  22
ATOM     22  C   UNL     1      46.087   5.250  13.351  0.00  0.00    +0.000 A 
ATOM     23  C   UNL     1      46.739   6.432  13.030  0.00  0.00    +0.000 A 
ATOM     24  S   UNL     1      45.816   7.466  12.031  0.00  0.00    +0.000 S 
ATOM     25  C   UNL     1      44.507   6.380  12.015  0.00  0.00    +0.000 A 
ATOM     26  N   UNL     1      43.354   6.671  11.353  0.00  0.00    +0.000 NA
ATOM     27  C   UNL     1      42.446   5.753  11.432  0.00  0.00    +0.000 A 
ATOM     28  N   UNL     1      42.587   4.568  12.104  0.00  0.00    +0.000 N 
ATOM     29  C   UNL     1      43.739   4.221  12.768  0.00  0.00    +0.000 A 
ATOM     30  O   UNL     1      43.851   3.133  13.308  0.00  0.00    +0.000 OA
ATOM     31  C   UNL     1      44.782   5.230  12.733  0.00  0.00    +0.000 A 
ATOM     32  H   UNL     1      41.850   3.879  12.105  0.00  0.00    +0.000 HD
ENDBRANCH  19  22
ENDBRANCH  17  18
ENDBRANCH   4  17
TORSDOF 7
ENDMDL
MODEL 7
REMARK VINA RESULT:    -6.556      3.582      8.578
REMARK INTER + INTRA:         -10.478
REMARK INTER:                  -9.180
REMARK INTRA:                  -1.298
REMARK UNBOUND:                -1.240
REMARK  Name = 
REMARK  8 active torsions:
REMARK  status: ('A' for Active; 'I' for Inactive)
REMARK    1  A    between atoms: C_1  and  C_2
REMARK    2  A    between atoms: C_6  and  C_7
REMARK    3  A    between atoms: C_7  and  O_8
REMARK    4  A    between atoms: O_8  and  C_9
REMARK    5  A    between atoms: C_9  and  C_10
REMARK    6  A    between atoms: C_13  and  C_14
REMARK    7  A    between atoms: C_14  and  N_15
REMARK    8  A    between atoms: C_16  and  C_18
REMARK                            x       y       z     vdW  Elec       q    Type
REMARK                         _______ _______ _______ _____ _____    ______ ____
ROOT
ATOM      1  C   UNL     1      48.736   7.997  16.249  0.00  0.00    +0.000 A 
ATOM      2  C   UNL     1      48.652   6.776  15.589  0.00  0.00    +0.000 A 
ATOM      3  C   UNL     1      48.538   6.758  14.200  0.00  0.00    +0.000 A 
ATOM      4  C   UNL     1      48.514   7.959  13.487  0.00  0.00    +0.000 A 
ATOM      5  C   UNL     1      48.582   9.131  14.238  0.00  0.00    +0.000 A 
ATOM      6  N   UNL     1      48.692   9.180  15.586  0.00  0.00    +0.000 NA
ENDROOT
BRANCH   1   7
ATOM      7  C   UNL     1      48.866   8.012  17.755  0.00  0.00    +0.000 C 
BRANCH   7   8
ATOM      8  O   UNL     1      48.248   6.848  18.303  0.00  0.00    +0.000 OA
BRANCH   8   9
ATOM      9  C   UNL     1      49.086   6.206  19.258  0.00  0.00    +0.000 C 
BRANCH   9  15
ATOM     10  C   UNL     1      48.832   2.014  16.504  0.00  0.00    +0.000 C 
ATOM     11  C   UNL     1      49.651   2.987  17.296  0.00  0.00    +0.000 A 
ATOM     12  C   UNL     1      51.031   2.812  17.445  0.00  0.00    +0.000 A 
ATOM     13  C   UNL     1      51.782   3.729  18.180  0.00  0.00    +0.000 A 
ATOM     14  C   UNL     1      51.160   4.826  18.771  0.00  0.00    +0.000 A 
ATOM     15  C   UNL     1      49.782   5.032  18.620  0.00  0.00    +0.000 A 
ATOM     16  C   UNL     1      49.034   4.095  17.890  0.00  0.00    +0.000 A 
ENDBRANCH   9  15
ENDBRANCH   8   9
ENDBRANCH   7   8
ENDBRANCH   1   7
BRANCH   4  17
ATOM     17  C   UNL     1      48.421   8.016  11.984  0.00  0.00    +0.000 C 
BRANCH  17  18
ATOM     18  N   UNL     1      47.663   6.927  11.428  0.00  0.00    +0.000 N 
ATOM     19  C   UNL     1      46.290   6.912  11.425  0.00  0.00    +0.000 C 
ATOM     20  O   UNL     1      45.611   7.831  11.879  0.00  0.00    +0.000 OA
ATOM     21  H   UNL     1      48.144   6.039  11.343  0.00  0.00    +0.000 HD
BRANCH  19  22
ATOM     22  C   UNL     1      45.678   5.741  10.784  0.00  0.00    +0.000 A 
ATOM     23  C   UNL     1      45.826   5.524   9.422  0.00  0.00    +0.000 A 
ATOM     24  S   UNL     1      45.053   4.103   8.872  0.00  0.00    +0.000 S 
ATOM     25  C   UNL     1      44.474   3.745  10.432  0.00  0.00    +0.000 A 
ATOM     26  N   UNL     1      43.695   2.654  10.664  0.00  0.00    +0.000 NA
ATOM     27  C   UNL     1      43.327   2.511  11.896  0.00  0.00    +0.000 A 
ATOM     28  N   UNL     1      43.673   3.355  12.918  0.00  0.00    +0.000 N 
ATOM     29  C   UNL     1      44.474   4.457  12.736  0.00  0.00    +0.000 A 
ATOM     30  O   UNL     1      44.808   5.155  13.679  0.00  0.00    +0.000 OA
ATOM     31  C   UNL     1      44.893   4.677  11.364  0.00  0.00    +0.000 A 
ATOM     32  H   UNL     1      43.376   3.175  13.866  0.00  0.00    +0.000 HD
ENDBRANCH  19  22
ENDBRANCH  17  18
ENDBRANCH   4  17
TORSDOF 7
ENDMDL
MODEL 8
REMARK VINA RESULT:    -6.014      3.357      9.685
REMARK INTER + INTRA:          -9.714
REMARK INTER:                  -8.472
REMARK INTRA:                  -1.242
REMARK UNBOUND:                -1.240
REMARK  Name = 
REMARK  8 active torsions:
REMARK  status: ('A' for Active; 'I' for Inactive)
REMARK    1  A    between atoms: C_1  and  C_2
REMARK    2  A    between atoms: C_6  and  C_7
REMARK    3  A    between atoms: C_7  and  O_8
REMARK    4  A    between atoms: O_8  and  C_9
REMARK    5  A    between atoms: C_9  and  C_10
REMARK    6  A    between atoms: C_13  and  C_14
REMARK    7  A    between atoms: C_14  and  N_15
REMARK    8  A    between atoms: C_16  and  C_18
REMARK                            x       y       z     vdW  Elec       q    Type
REMARK                         _______ _______ _______ _____ _____    ______ ____
ROOT
ATOM      1  C   UNL     1      50.370   7.393  15.502  0.00  0.00    +0.000 A 
ATOM      2  C   UNL     1      49.205   6.634  15.519  0.00  0.00    +0.000 A 
ATOM      3  C   UNL     1      48.335   6.694  14.432  0.00  0.00    +0.000 A 
ATOM      4  C   UNL     1      48.642   7.508  13.338  0.00  0.00    +0.000 A 
ATOM      5  C   UNL     1      49.819   8.247  13.423  0.00  0.00    +0.000 A 
ATOM      6  N   UNL     1      50.682   8.210  14.465  0.00  0.00    +0.000 NA
ENDROOT
BRANCH   1   7
ATOM      7  C   UNL     1      51.314   7.321  16.681  0.00  0.00    +0.000 C 
BRANCH   7   8
ATOM      8  O   UNL     1      51.331   8.577  17.360  0.00  0.00    +0.000 OA
BRANCH   8   9
ATOM      9  C   UNL     1      51.228   8.414  18.771  0.00  0.00    +0.000 C 
BRANCH   9  15
ATOM     10  C   UNL     1      48.766   4.487  20.705  0.00  0.00    +0.000 C 
ATOM     11  C   UNL     1      48.730   5.829  20.039  0.00  0.00    +0.000 A 
ATOM     12  C   UNL     1      47.513   6.450  19.739  0.00  0.00    +0.000 A 
ATOM     13  C   UNL     1      47.494   7.702  19.124  0.00  0.00    +0.000 A 
ATOM     14  C   UNL     1      48.691   8.340  18.806  0.00  0.00    +0.000 A 
ATOM     15  C   UNL     1      49.922   7.745  19.114  0.00  0.00    +0.000 A 
ATOM     16  C   UNL     1      49.928   6.479  19.719  0.00  0.00    +0.000 A 
ENDBRANCH   9  15
ENDBRANCH   8   9
ENDBRANCH   7   8
ENDBRANCH   1   7
BRANCH   4  17
ATOM     17  C   UNL     1      47.763   7.601  12.117  0.00  0.00    +0.000 C 
BRANCH  17  18
ATOM     18  N   UNL     1      46.979   6.415  11.900  0.00  0.00    +0.000 N 
ATOM     19  C   UNL     1      45.608   6.413  11.989  0.00  0.00    +0.000 C 
ATOM     20  O   UNL     1      44.954   7.421  12.242  0.00  0.00    +0.000 OA
ATOM     21  H   UNL     1      47.459   5.530  12.008  0.00  0.00    +0.000 HD
BRANCH  19  22
ATOM     22  C   UNL     1      44.965   5.124  11.700  0.00  0.00    +0.000 A 
ATOM     23  C   UNL     1      44.231   4.466  12.675  0.00  0.00    +0.000 A 
ATOM     24  S   UNL     1      43.555   2.992  12.138  0.00  0.00    +0.000 S 
ATOM     25  C   UNL     1      44.241   3.173  10.591  0.00  0.00    +0.000 A 
ATOM     26  N   UNL     1      44.075   2.227   9.628  0.00  0.00    +0.000 NA
ATOM     27  C   UNL     1      44.657   2.498   8.505  0.00  0.00    +0.000 A 
ATOM     28  N   UNL     1      45.383   3.633   8.254  0.00  0.00    +0.000 N 
ATOM     29  C   UNL     1      45.560   4.625   9.188  0.00  0.00    +0.000 A 
ATOM     30  O   UNL     1      46.164   5.648   8.911  0.00  0.00    +0.000 OA
ATOM     31  C   UNL     1      44.948   4.357  10.476  0.00  0.00    +0.000 A 
ATOM     32  H   UNL     1      45.790   3.800   7.346  0.00  0.00    +0.000 HD
ENDBRANCH  19  22
ENDBRANCH  17  18
ENDBRANCH   4  17
TORSDOF 7
ENDMDL
MODEL 9
REMARK VINA RESULT:    -5.771      4.399      8.409
REMARK INTER + INTRA:          -9.372
REMARK INTER:                  -7.965
REMARK INTRA:                  -1.406
REMARK UNBOUND:                -1.240
REMARK  Name = 
REMARK  8 active torsions:
REMARK  status: ('A' for Active; 'I' for Inactive)
REMARK    1  A    between atoms: C_1  and  C_2
REMARK    2  A    between atoms: C_6  and  C_7
REMARK    3  A    between atoms: C_7  and  O_8
REMARK    4  A    between atoms: O_8  and  C_9
REMARK    5  A    between atoms: C_9  and  C_10
REMARK    6  A    between atoms: C_13  and  C_14
REMARK    7  A    between atoms: C_14  and  N_15
REMARK    8  A    between atoms: C_16  and  C_18
REMARK                            x       y       z     vdW  Elec       q    Type
REMARK                         _______ _______ _______ _____ _____    ______ ____
ROOT
ATOM      1  C   UNL     1      48.581   9.703  12.493  0.00  0.00    +0.000 A 
ATOM      2  C   UNL     1      48.625   8.566  11.692  0.00  0.00    +0.000 A 
ATOM      3  C   UNL     1      48.283   7.332  12.241  0.00  0.00    +0.000 A 
ATOM      4  C   UNL     1      47.895   7.248  13.581  0.00  0.00    +0.000 A 
ATOM      5  C   UNL     1      47.903   8.437  14.307  0.00  0.00    +0.000 A 
ATOM      6  N   UNL     1      48.232   9.649  13.803  0.00  0.00    +0.000 NA
ENDROOT
BRANCH   1   7
ATOM      7  C   UNL     1      48.948  11.041  11.892  0.00  0.00    +0.000 C 
BRANCH   7   8
ATOM      8  O   UNL     1      47.817  11.911  11.928  0.00  0.00    +0.000 OA
BRANCH   8   9
ATOM      9  C   UNL     1      47.287  12.139  10.626  0.00  0.00    +0.000 C 
BRANCH   9  15
ATOM     10  C   UNL     1      43.058  11.472   8.000  0.00  0.00    +0.000 C 
ATOM     11  C   UNL     1      43.841  11.253   9.259  0.00  0.00    +0.000 A 
ATOM     12  C   UNL     1      43.298  10.528  10.326  0.00  0.00    +0.000 A 
ATOM     13  C   UNL     1      44.040  10.327  11.489  0.00  0.00    +0.000 A 
ATOM     14  C   UNL     1      45.328  10.847  11.595  0.00  0.00    +0.000 A 
ATOM     15  C   UNL     1      45.899  11.560  10.531  0.00  0.00    +0.000 A 
ATOM     16  C   UNL     1      45.138  11.769   9.371  0.00  0.00    +0.000 A 
ENDBRANCH   9  15
ENDBRANCH   8   9
ENDBRANCH   7   8
ENDBRANCH   1   7
BRANCH   4  17
ATOM     17  C   UNL     1      47.484   5.953  14.233  0.00  0.00    +0.000 C 
BRANCH  17  18
ATOM     18  N   UNL     1      46.749   5.090  13.349  0.00  0.00    +0.000 N 
ATOM     19  C   UNL     1      45.413   5.269  13.088  0.00  0.00    +0.000 C 
ATOM     20  O   UNL     1      44.754   6.185  13.575  0.00  0.00    +0.000 OA
ATOM     21  H   UNL     1      47.141   4.169  13.187  0.00  0.00    +0.000 HD
BRANCH  19  22
ATOM     22  C   UNL     1      44.829   4.318  12.133  0.00  0.00    +0.000 A 
ATOM     23  C   UNL     1      44.016   3.284  12.573  0.00  0.00    +0.000 A 
ATOM     24  S   UNL     1      43.427   2.298  11.307  0.00  0.00    +0.000 S 
ATOM     25  C   UNL     1      44.260   3.206  10.133  0.00  0.00    +0.000 A 
ATOM     26  N   UNL     1      44.210   2.873   8.815  0.00  0.00    +0.000 NA
ATOM     27  C   UNL     1      44.895   3.651   8.041  0.00  0.00    +0.000 A 
ATOM     28  N   UNL     1      45.617   4.736   8.462  0.00  0.00    +0.000 N 
ATOM     29  C   UNL     1      45.680   5.123   9.779  0.00  0.00    +0.000 A 
ATOM     30  O   UNL     1      46.287   6.127  10.111  0.00  0.00    +0.000 OA
ATOM     31  C   UNL     1      44.949   4.266  10.695  0.00  0.00    +0.000 A 
ATOM     32  H   UNL     1      46.109   5.321   7.804  0.00  0.00    +0.000 HD
ENDBRANCH  19  22
ENDBRANCH  17  18
ENDBRANCH   4  17
TORSDOF 7
ENDMDL
