MODEL 1
REMARK VINA RESULT:    -7.399      0.000      0.000
REMARK INTER + INTRA:         -12.205
REMARK INTER:                 -10.644
REMARK INTRA:                  -1.561
REMARK UNBOUND:                -1.561
REMARK  Name = 
REMARK  9 active torsions:
REMARK  status: ('A' for Active; 'I' for Inactive)
REMARK    1  A    between atoms: C_1  and  C_2
REMARK    2  A    between atoms: C_6  and  C_7
REMARK    3  A    between atoms: C_7  and  C_8
REMARK    4  A    between atoms: C_8  and  C_9
REMARK    5  A    between atoms: C_9  and  C_10
REMARK    6  A    between atoms: C_13  and  C_14
REMARK    7  A    between atoms: C_14  and  N_15
REMARK    8  A    between atoms: C_16  and  C_18
REMARK    9  A    between atoms: C_25  and  O_26
REMARK                            x       y       z     vdW  Elec       q    Type
REMARK                         _______ _______ _______ _____ _____    ______ ____
ROOT
ATOM      1  C   UNL     1      44.826   5.476  12.468  0.00  0.00    +0.000 A 
ATOM      2  C   UNL     1      44.997   6.698  11.806  0.00  0.00    +0.000 A 
ATOM      3  C   UNL     1      46.246   7.329  11.793  0.00  0.00    +0.000 A 
ATOM      4  C   UNL     1      47.352   6.740  12.422  0.00  0.00    +0.000 A 
ATOM      5  C   UNL     1      47.168   5.538  13.116  0.00  0.00    +0.000 A 
ATOM      6  C   UNL     1      45.919   4.912  13.139  0.00  0.00    +0.000 A 
ENDROOT
BRANCH   1   7
ATOM      7  C   UNL     1      43.497   4.759  12.443  0.00  0.00    +0.000 C 
BRANCH   7   8
ATOM      8  C   UNL     1      43.172   4.092  11.100  0.00  0.00    +0.000 C 
BRANCH   8   9
ATOM      9  C   UNL     1      43.963   2.805  10.846  0.00  0.00    +0.000 C 
BRANCH   9  15
ATOM     10  C   UNL     1      46.836   0.618   7.582  0.00  0.00    +0.000 C 
ATOM     11  C   UNL     1      46.225   1.892   8.074  0.00  0.00    +0.000 A 
ATOM     12  C   UNL     1      46.480   3.101   7.435  0.00  0.00    +0.000 A 
ATOM     13  C   UNL     1      45.889   4.258   7.931  0.00  0.00    +0.000 A 
ATOM     14  C   UNL     1      45.065   4.180   9.048  0.00  0.00    +0.000 A 
ATOM     15  C   UNL     1      44.860   2.937   9.640  0.00  0.00    +0.000 A 
ATOM     16  N   UNL     1      45.421   1.800   9.162  0.00  0.00    +0.000 NA
ENDBRANCH   9  15
ENDBRANCH   8   9
ENDBRANCH   7   8
ENDBRANCH   1   7
BRANCH   4  17
ATOM     17  C   UNL     1      48.707   7.401  12.386  0.00  0.00    +0.000 C 
BRANCH  17  18
ATOM     18  N   UNL     1      49.536   6.937  13.465  0.00  0.00    +0.000 N 
ATOM     19  C   UNL     1      49.504   7.520  14.706  0.00  0.00    +0.000 C 
ATOM     20  O   UNL     1      48.879   8.551  14.931  0.00  0.00    +0.000 OA
ATOM     21  H   UNL     1      49.923   6.006  13.372  0.00  0.00    +0.000 HD
BRANCH  19  22
ATOM     22  C   UNL     1      50.298   6.857  15.748  0.00  0.00    +0.000 A 
ATOM     23  C   UNL     1      51.655   7.124  15.867  0.00  0.00    +0.000 A 
ATOM     24  S   UNL     1      52.410   6.250  17.121  0.00  0.00    +0.000 S 
ATOM     25  C   UNL     1      50.941   5.521  17.566  0.00  0.00    +0.000 A 
ATOM     26  N   UNL     1      50.894   4.662  18.601  0.00  0.00    +0.000 NA
ATOM     27  C   UNL     1      49.667   4.188  18.827  0.00  0.00    +0.000 A 
ATOM     28  N   UNL     1      48.546   4.474  18.148  0.00  0.00    +0.000 NA
ATOM     29  C   UNL     1      48.664   5.330  17.133  0.00  0.00    +0.000 A 
ATOM     30  C   UNL     1      49.877   5.913  16.767  0.00  0.00    +0.000 A 
BRANCH  29  31
ATOM     31  O   UNL     1      47.492   5.564  16.476  0.00  0.00    +0.000 OA
ATOM     32  H   UNL     1      46.849   5.243  17.137  0.00  0.00    +0.000 HD
ENDBRANCH  29  31
ENDBRANCH  19  22
ENDBRANCH  17  18
ENDBRANCH   4  17
TORSDOF 8
ENDMDL
MODEL 2
REMARK VINA RESULT:    -7.202      2.270      2.963
REMARK INTER + INTRA:         -11.921
REMARK INTER:                 -10.952
REMARK INTRA:                  -0.970
REMARK UNBOUND:                -1.561
REMARK  Name = 
REMARK  9 active torsions:
REMARK  status: ('A' for Active; 'I' for Inactive)
REMARK    1  A    between atoms: C_1  and  C_2
REMARK    2  A    between atoms: C_6  and  C_7
REMARK    3  A    between atoms: C_7  and  C_8
REMARK    4  A    between atoms: C_8  and  C_9
REMARK    5  A    between atoms: C_9  and  C_10
REMARK    6  A    between atoms: C_13  and  C_14
REMARK    7  A    between atoms: C_14  and  N_15
REMARK    8  A    between atoms: C_16  and  C_18
REMARK    9  A    between atoms: C_25  and  O_26
REMARK                            x       y       z     vdW  Elec       q    Type
REMARK                         _______ _______ _______ _____ _____    ______ ____
ROOT
ATOM      1  C   UNL     1      45.231   4.726  11.700  0.00  0.00    +0.000 A 
ATOM      2  C   UNL     1      45.601   4.207  12.946  0.00  0.00    +0.000 A 
ATOM      3  C   UNL     1      46.575   4.847  13.721  0.00  0.00    +0.000 A 
ATOM      4  C   UNL     1      47.181   6.030  13.274  0.00  0.00    +0.000 A 
ATOM      5  C   UNL     1      46.838   6.525  12.010  0.00  0.00    +0.000 A 
ATOM      6  C   UNL     1      45.873   5.880  11.231  0.00  0.00    +0.000 A 
ENDROOT
BRANCH   1   7
ATOM      7  C   UNL     1      44.143   4.075  10.879  0.00  0.00    +0.000 C 
BRANCH   7   8
ATOM      8  C   UNL     1      44.665   3.151   9.771  0.00  0.00    +0.000 C 
BRANCH   8   9
ATOM      9  C   UNL     1      45.235   3.901   8.562  0.00  0.00    +0.000 C 
BRANCH   9  15
ATOM     10  C   UNL     1      46.908  -0.588   7.702  0.00  0.00    +0.000 C 
ATOM     11  C   UNL     1      46.830   0.838   7.256  0.00  0.00    +0.000 A 
ATOM     12  C   UNL     1      47.460   1.257   6.089  0.00  0.00    +0.000 A 
ATOM     13  C   UNL     1      47.359   2.593   5.717  0.00  0.00    +0.000 A 
ATOM     14  C   UNL     1      46.637   3.473   6.516  0.00  0.00    +0.000 A 
ATOM     15  C   UNL     1      46.038   2.984   7.673  0.00  0.00    +0.000 A 
ATOM     16  N   UNL     1      46.121   1.684   8.043  0.00  0.00    +0.000 NA
ENDBRANCH   9  15
ENDBRANCH   8   9
ENDBRANCH   7   8
ENDBRANCH   1   7
BRANCH   4  17
ATOM     17  C   UNL     1      48.209   6.740  14.118  0.00  0.00    +0.000 C 
BRANCH  17  18
ATOM     18  N   UNL     1      48.081   6.374  15.503  0.00  0.00    +0.000 N 
ATOM     19  C   UNL     1      49.175   6.197  16.310  0.00  0.00    +0.000 C 
ATOM     20  O   UNL     1      50.321   6.201  15.873  0.00  0.00    +0.000 OA
ATOM     21  H   UNL     1      47.177   6.530  15.931  0.00  0.00    +0.000 HD
BRANCH  19  22
ATOM     22  C   UNL     1      48.893   5.963  17.732  0.00  0.00    +0.000 A 
ATOM     23  C   UNL     1      49.244   4.757  18.322  0.00  0.00    +0.000 A 
ATOM     24  S   UNL     1      48.823   4.663  19.972  0.00  0.00    +0.000 S 
ATOM     25  C   UNL     1      48.199   6.243  19.955  0.00  0.00    +0.000 A 
ATOM     26  N   UNL     1      47.692   6.787  21.077  0.00  0.00    +0.000 NA
ATOM     27  C   UNL     1      47.255   8.035  20.897  0.00  0.00    +0.000 A 
ATOM     28  N   UNL     1      47.272   8.748  19.762  0.00  0.00    +0.000 NA
ATOM     29  C   UNL     1      47.785   8.149  18.688  0.00  0.00    +0.000 A 
ATOM     30  C   UNL     1      48.284   6.847  18.708  0.00  0.00    +0.000 A 
BRANCH  29  31
ATOM     31  O   UNL     1      47.758   8.923  17.564  0.00  0.00    +0.000 OA
ATOM     32  H   UNL     1      47.425   8.277  16.911  0.00  0.00    +0.000 HD
ENDBRANCH  29  31
ENDBRANCH  19  22
ENDBRANCH  17  18
ENDBRANCH   4  17
TORSDOF 8
ENDMDL
MODEL 3
REMARK VINA RESULT:    -7.117      2.998      8.196
REMARK INTER + INTRA:         -11.799
REMARK INTER:                  -9.982
REMARK INTRA:                  -1.817
REMARK UNBOUND:                -1.561
REMARK  Name = 
REMARK  9 active torsions:
REMARK  status: ('A' for Active; 'I' for Inactive)
REMARK    1  A    between atoms: C_1  and  C_2
REMARK    2  A    between atoms: C_6  and  C_7
REMARK    3  A    between atoms: C_7  and  C_8
REMARK    4  A    between atoms: C_8  and  C_9
REMARK    5  A    between atoms: C_9  and  C_10
REMARK    6  A    between atoms: C_13  and  C_14
REMARK    7  A    between atoms: C_14  and  N_15
REMARK    8  A    between atoms: C_16  and  C_18
REMARK    9  A    between atoms: C_25  and  O_26
REMARK                            x       y       z     vdW  Elec       q    Type
REMARK                         _______ _______ _______ _____ _____    ______ ____
ROOT
ATOM      1  C   UNL     1      48.898   7.984  16.705  0.00  0.00    +0.000 A 
ATOM      2  C   UNL     1      48.148   8.995  16.093  0.00  0.00    +0.000 A 
ATOM      3  C   UNL     1      47.822   8.913  14.734  0.00  0.00    +0.000 A 
ATOM      4  C   UNL     1      48.221   7.809  13.968  0.00  0.00    +0.000 A 
ATOM      5  C   UNL     1      49.004   6.819  14.574  0.00  0.00    +0.000 A 
ATOM      6  C   UNL     1      49.339   6.905  15.928  0.00  0.00    +0.000 A 
ENDROOT
BRANCH   1   7
ATOM      7  C   UNL     1      49.209   8.033  18.182  0.00  0.00    +0.000 C 
BRANCH   7   8
ATOM      8  C   UNL     1      48.146   7.371  19.067  0.00  0.00    +0.000 C 
BRANCH   8   9
ATOM      9  C   UNL     1      48.576   6.014  19.634  0.00  0.00    +0.000 C 
BRANCH   9  15
ATOM     10  C   UNL     1      50.623   2.265  17.302  0.00  0.00    +0.000 C 
ATOM     11  C   UNL     1      49.412   3.121  17.498  0.00  0.00    +0.000 A 
ATOM     12  C   UNL     1      48.248   2.890  16.772  0.00  0.00    +0.000 A 
ATOM     13  C   UNL     1      47.149   3.713  16.991  0.00  0.00    +0.000 A 
ATOM     14  C   UNL     1      47.240   4.742  17.921  0.00  0.00    +0.000 A 
ATOM     15  C   UNL     1      48.438   4.918  18.606  0.00  0.00    +0.000 A 
ATOM     16  N   UNL     1      49.514   4.118  18.411  0.00  0.00    +0.000 NA
ENDBRANCH   9  15
ENDBRANCH   8   9
ENDBRANCH   7   8
ENDBRANCH   1   7
BRANCH   4  17
ATOM     17  C   UNL     1      47.848   7.701  12.511  0.00  0.00    +0.000 C 
BRANCH  17  18
ATOM     18  N   UNL     1      47.092   6.503  12.260  0.00  0.00    +0.000 N 
ATOM     19  C   UNL     1      45.724   6.477  12.349  0.00  0.00    +0.000 C 
ATOM     20  O   UNL     1      45.076   7.425  12.781  0.00  0.00    +0.000 OA
ATOM     21  H   UNL     1      47.563   5.770  11.745  0.00  0.00    +0.000 HD
BRANCH  19  22
ATOM     22  C   UNL     1      45.077   5.228  11.931  0.00  0.00    +0.000 A 
ATOM     23  C   UNL     1      44.362   4.472  12.850  0.00  0.00    +0.000 A 
ATOM     24  S   UNL     1      43.697   3.049  12.185  0.00  0.00    +0.000 S 
ATOM     25  C   UNL     1      44.310   3.422  10.645  0.00  0.00    +0.000 A 
ATOM     26  N   UNL     1      44.074   2.604   9.602  0.00  0.00    +0.000 NA
ATOM     27  C   UNL     1      44.613   3.046   8.463  0.00  0.00    +0.000 A 
ATOM     28  N   UNL     1      45.330   4.164   8.282  0.00  0.00    +0.000 NA
ATOM     29  C   UNL     1      45.528   4.927   9.357  0.00  0.00    +0.000 A 
ATOM     30  C   UNL     1      45.032   4.607  10.620  0.00  0.00    +0.000 A 
BRANCH  29  31
ATOM     31  O   UNL     1      46.278   6.040   9.107  0.00  0.00    +0.000 OA
ATOM     32  H   UNL     1      46.815   5.728   8.354  0.00  0.00    +0.000 HD
ENDBRANCH  29  31
ENDBRANCH  19  22
ENDBRANCH  17  18
ENDBRANCH   4  17
TORSDOF 8
ENDMDL
MODEL 4
REMARK VINA RESULT:    -6.950      2.265      2.979
REMARK INTER + INTRA:         -11.558
REMARK INTER:                 -10.486
REMARK INTRA:                  -1.072
REMARK UNBOUND:                -1.561
REMARK  Name = 
REMARK  9 active torsions:
REMARK  status: ('A' for Active; 'I' for Inactive)
REMARK    1  A    between atoms: C_1  and  C_2
REMARK    2  A    between atoms: C_6  and  C_7
REMARK    3  A    between atoms: C_7  and  C_8
REMARK    4  A    between atoms: C_8  and  C_9
REMARK    5  A    between atoms: C_9  and  C_10
REMARK    6  A    between atoms: C_13  and  C_14
REMARK    7  A    between atoms: C_14  and  N_15
REMARK    8  A    between atoms: C_16  and  C_18
REMARK    9  A    between atoms: C_25  and  O_26
REMARK                            x       y       z     vdW  Elec       q    Type
REMARK                         _______ _______ _______ _____ _____    ______ ____
ROOT
ATOM      1  C   UNL     1      45.299   5.590  11.840  0.00  0.00    +0.000 A 
ATOM      2  C   UNL     1      45.664   4.760  12.907  0.00  0.00    +0.000 A 
ATOM      3  C   UNL     1      46.793   5.055  13.682  0.00  0.00    +0.000 A 
ATOM      4  C   UNL     1      47.563   6.196  13.418  0.00  0.00    +0.000 A 
ATOM      5  C   UNL     1      47.218   7.003  12.327  0.00  0.00    +0.000 A 
ATOM      6  C   UNL     1      46.098   6.703  11.547  0.00  0.00    +0.000 A 
ENDROOT
BRANCH   1   7
ATOM      7  C   UNL     1      44.054   5.314  11.032  0.00  0.00    +0.000 C 
BRANCH   7   8
ATOM      8  C   UNL     1      44.247   4.269   9.926  0.00  0.00    +0.000 C 
BRANCH   8   9
ATOM      9  C   UNL     1      45.351   4.629   8.926  0.00  0.00    +0.000 C 
BRANCH   9  15
ATOM     10  C   UNL     1      47.614   2.775   5.036  0.00  0.00    +0.000 C 
ATOM     11  C   UNL     1      46.955   2.519   6.354  0.00  0.00    +0.000 A 
ATOM     12  C   UNL     1      46.846   1.228   6.861  0.00  0.00    +0.000 A 
ATOM     13  C   UNL     1      46.224   1.043   8.091  0.00  0.00    +0.000 A 
ATOM     14  C   UNL     1      45.726   2.143   8.778  0.00  0.00    +0.000 A 
ATOM     15  C   UNL     1      45.865   3.405   8.208  0.00  0.00    +0.000 A 
ATOM     16  N   UNL     1      46.476   3.603   7.015  0.00  0.00    +0.000 NA
ENDBRANCH   9  15
ENDBRANCH   8   9
ENDBRANCH   7   8
ENDBRANCH   1   7
BRANCH   4  17
ATOM     17  C   UNL     1      48.762   6.534  14.268  0.00  0.00    +0.000 C 
BRANCH  17  18
ATOM     18  N   UNL     1      48.367   6.846  15.615  0.00  0.00    +0.000 N 
ATOM     19  C   UNL     1      48.856   6.153  16.693  0.00  0.00    +0.000 C 
ATOM     20  O   UNL     1      49.544   5.144  16.567  0.00  0.00    +0.000 OA
ATOM     21  H   UNL     1      47.952   7.757  15.767  0.00  0.00    +0.000 HD
BRANCH  19  22
ATOM     22  C   UNL     1      48.477   6.668  18.014  0.00  0.00    +0.000 A 
ATOM     23  C   UNL     1      48.099   7.995  18.161  0.00  0.00    +0.000 A 
ATOM     24  S   UNL     1      47.710   8.413  19.769  0.00  0.00    +0.000 S 
ATOM     25  C   UNL     1      47.996   6.826  20.304  0.00  0.00    +0.000 A 
ATOM     26  N   UNL     1      47.821   6.504  21.599  0.00  0.00    +0.000 NA
ATOM     27  C   UNL     1      48.075   5.218  21.852  0.00  0.00    +0.000 A 
ATOM     28  N   UNL     1      48.471   4.279  20.980  0.00  0.00    +0.000 NA
ATOM     29  C   UNL     1      48.626   4.667  19.714  0.00  0.00    +0.000 A 
ATOM     30  C   UNL     1      48.402   5.975  19.286  0.00  0.00    +0.000 A 
BRANCH  29  31
ATOM     31  O   UNL     1      49.044   3.669  18.884  0.00  0.00    +0.000 OA
ATOM     32  H   UNL     1      48.991   2.902  19.486  0.00  0.00    +0.000 HD
ENDBRANCH  29  31
ENDBRANCH  19  22
ENDBRANCH  17  18
ENDBRANCH   4  17
TORSDOF 8
ENDMDL
MODEL 5
REMARK VINA RESULT:    -6.937      2.887      8.174
REMARK INTER + INTRA:         -11.540
REMARK INTER:                  -9.703
REMARK INTRA:                  -1.837
REMARK UNBOUND:                -1.561
REMARK  Name = 
REMARK  9 active torsions:
REMARK  status: ('A' for Active; 'I' for Inactive)
REMARK    1  A    between atoms: C_1  and  C_2
REMARK    2  A    between atoms: C_6  and  C_7
REMARK    3  A    between atoms: C_7  and  C_8
REMARK    4  A    between atoms: C_8  and  C_9
REMARK    5  A    between atoms: C_9  and  C_10
REMARK    6  A    between atoms: C_13  and  C_14
REMARK    7  A    between atoms: C_14  and  N_15
REMARK    8  A    between atoms: C_16  and  C_18
REMARK    9  A    between atoms: C_25  and  O_26
REMARK                            x       y       z     vdW  Elec       q    Type
REMARK                         _______ _______ _______ _____ _____    ______ ____
ROOT
ATOM      1  C   UNL     1      49.957   8.317  15.468  0.00  0.00    +0.000 A 
ATOM      2  C   UNL     1      50.583   7.960  14.268  0.00  0.00    +0.000 A 
ATOM      3  C   UNL     1      49.836   7.823  13.092  0.00  0.00    +0.000 A 
ATOM      4  C   UNL     1      48.454   8.062  13.089  0.00  0.00    +0.000 A 
ATOM      5  C   UNL     1      47.826   8.381  14.299  0.00  0.00    +0.000 A 
ATOM      6  C   UNL     1      48.569   8.508  15.476  0.00  0.00    +0.000 A 
ENDROOT
BRANCH   1   7
ATOM      7  C   UNL     1      50.759   8.522  16.732  0.00  0.00    +0.000 C 
BRANCH   7   8
ATOM      8  C   UNL     1      50.514   7.455  17.806  0.00  0.00    +0.000 C 
BRANCH   8   9
ATOM      9  C   UNL     1      50.861   6.033  17.352  0.00  0.00    +0.000 C 
BRANCH   9  15
ATOM     10  C   UNL     1      46.958   4.356  14.977  0.00  0.00    +0.000 C 
ATOM     11  C   UNL     1      47.786   4.329  16.223  0.00  0.00    +0.000 A 
ATOM     12  C   UNL     1      47.438   3.517  17.296  0.00  0.00    +0.000 A 
ATOM     13  C   UNL     1      48.240   3.528  18.432  0.00  0.00    +0.000 A 
ATOM     14  C   UNL     1      49.362   4.347  18.469  0.00  0.00    +0.000 A 
ATOM     15  C   UNL     1      49.646   5.139  17.360  0.00  0.00    +0.000 A 
ATOM     16  N   UNL     1      48.880   5.132  16.243  0.00  0.00    +0.000 NA
ENDBRANCH   9  15
ENDBRANCH   8   9
ENDBRANCH   7   8
ENDBRANCH   1   7
BRANCH   4  17
ATOM     17  C   UNL     1      47.651   7.945  11.819  0.00  0.00    +0.000 C 
BRANCH  17  18
ATOM     18  N   UNL     1      46.925   6.704  11.781  0.00  0.00    +0.000 N 
ATOM     19  C   UNL     1      45.567   6.653  11.961  0.00  0.00    +0.000 C 
ATOM     20  O   UNL     1      44.912   7.632  12.303  0.00  0.00    +0.000 OA
ATOM     21  H   UNL     1      47.390   5.920  11.340  0.00  0.00    +0.000 HD
BRANCH  19  22
ATOM     22  C   UNL     1      44.941   5.341  11.758  0.00  0.00    +0.000 A 
ATOM     23  C   UNL     1      44.229   4.741  12.788  0.00  0.00    +0.000 A 
ATOM     24  S   UNL     1      43.590   3.216  12.371  0.00  0.00    +0.000 S 
ATOM     25  C   UNL     1      44.210   3.331  10.793  0.00  0.00    +0.000 A 
ATOM     26  N   UNL     1      43.994   2.344   9.904  0.00  0.00    +0.000 NA
ATOM     27  C   UNL     1      44.536   2.594   8.710  0.00  0.00    +0.000 A 
ATOM     28  N   UNL     1      45.238   3.676   8.345  0.00  0.00    +0.000 NA
ATOM     29  C   UNL     1      45.417   4.614   9.276  0.00  0.00    +0.000 A 
ATOM     30  C   UNL     1      44.916   4.505  10.572  0.00  0.00    +0.000 A 
BRANCH  29  31
ATOM     31  O   UNL     1      46.153   5.680   8.844  0.00  0.00    +0.000 OA
ATOM     32  H   UNL     1      46.578   5.294   8.054  0.00  0.00    +0.000 HD
ENDBRANCH  29  31
ENDBRANCH  19  22
ENDBRANCH  17  18
ENDBRANCH   4  17
TORSDOF 8
ENDMDL
MODEL 6
REMARK VINA RESULT:    -6.921      3.158      7.745
REMARK INTER + INTRA:         -11.517
REMARK INTER:                  -9.599
REMARK INTRA:                  -1.917
REMARK UNBOUND:                -1.561
REMARK  Name = 
REMARK  9 active torsions:
REMARK  status: ('A' for Active; 'I' for Inactive)
REMARK    1  A    between atoms: C_1  and  C_2
REMARK    2  A    between atoms: C_6  and  C_7
REMARK    3  A    between atoms: C_7  and  C_8
REMARK    4  A    between atoms: C_8  and  C_9
REMARK    5  A    between atoms: C_9  and  C_10
REMARK    6  A    between atoms: C_13  and  C_14
REMARK    7  A    between atoms: C_14  and  N_15
REMARK    8  A    between atoms: C_16  and  C_18
REMARK    9  A    between atoms: C_25  and  O_26
REMARK                            x       y       z     vdW  Elec       q    Type
REMARK                         _______ _______ _______ _____ _____    ______ ____
ROOT
ATOM      1  C   UNL     1      49.234   7.993  17.653  0.00  0.00    +0.000 A 
ATOM      2  C   UNL     1      48.407   8.772  16.835  0.00  0.00    +0.000 A 
ATOM      3  C   UNL     1      48.509   8.691  15.441  0.00  0.00    +0.000 A 
ATOM      4  C   UNL     1      49.422   7.813  14.840  0.00  0.00    +0.000 A 
ATOM      5  C   UNL     1      50.273   7.064  15.662  0.00  0.00    +0.000 A 
ATOM      6  C   UNL     1      50.180   7.152  17.053  0.00  0.00    +0.000 A 
ENDROOT
BRANCH   1   7
ATOM      7  C   UNL     1      49.096   8.031  19.157  0.00  0.00    +0.000 C 
BRANCH   7   8
ATOM      8  C   UNL     1      48.025   7.083  19.711  0.00  0.00    +0.000 C 
BRANCH   8   9
ATOM      9  C   UNL     1      48.545   5.671  20.003  0.00  0.00    +0.000 C 
BRANCH   9  15
ATOM     10  C   UNL     1      50.424   2.111  17.267  0.00  0.00    +0.000 C 
ATOM     11  C   UNL     1      49.293   3.063  17.499  0.00  0.00    +0.000 A 
ATOM     12  C   UNL     1      48.191   3.085  16.650  0.00  0.00    +0.000 A 
ATOM     13  C   UNL     1      47.166   3.988  16.907  0.00  0.00    +0.000 A 
ATOM     14  C   UNL     1      47.267   4.844  17.998  0.00  0.00    +0.000 A 
ATOM     15  C   UNL     1      48.400   4.770  18.801  0.00  0.00    +0.000 A 
ATOM     16  N   UNL     1      49.403   3.889  18.569  0.00  0.00    +0.000 NA
ENDBRANCH   9  15
ENDBRANCH   8   9
ENDBRANCH   7   8
ENDBRANCH   1   7
BRANCH   4  17
ATOM     17  C   UNL     1      49.515   7.699  13.340  0.00  0.00    +0.000 C 
BRANCH  17  18
ATOM     18  N   UNL     1      48.222   7.448  12.761  0.00  0.00    +0.000 N 
ATOM     19  C   UNL     1      47.586   6.242  12.903  0.00  0.00    +0.000 C 
ATOM     20  O   UNL     1      48.134   5.266  13.407  0.00  0.00    +0.000 OA
ATOM     21  H   UNL     1      47.678   8.260  12.497  0.00  0.00    +0.000 HD
BRANCH  19  22
ATOM     22  C   UNL     1      46.216   6.172  12.381  0.00  0.00    +0.000 A 
ATOM     23  C   UNL     1      45.624   7.299  11.827  0.00  0.00    +0.000 A 
ATOM     24  S   UNL     1      44.027   7.030  11.291  0.00  0.00    +0.000 S 
ATOM     25  C   UNL     1      44.096   5.394  11.746  0.00  0.00    +0.000 A 
ATOM     26  N   UNL     1      43.042   4.585  11.537  0.00  0.00    +0.000 NA
ATOM     27  C   UNL     1      43.261   3.331  11.938  0.00  0.00    +0.000 A 
ATOM     28  N   UNL     1      44.374   2.841  12.503  0.00  0.00    +0.000 NA
ATOM     29  C   UNL     1      45.379   3.697  12.684  0.00  0.00    +0.000 A 
ATOM     30  C   UNL     1      45.309   5.041  12.319  0.00  0.00    +0.000 A 
BRANCH  29  31
ATOM     31  O   UNL     1      46.474   3.138  13.277  0.00  0.00    +0.000 OA
ATOM     32  H   UNL     1      47.143   3.273  12.579  0.00  0.00    +0.000 HD
ENDBRANCH  29  31
ENDBRANCH  19  22
ENDBRANCH  17  18
ENDBRANCH   4  17
TORSDOF 8
ENDMDL
MODEL 7
REMARK VINA RESULT:    -6.873      4.308      9.586
REMARK INTER + INTRA:         -11.448
REMARK INTER:                 -10.204
REMARK INTRA:                  -1.244
REMARK UNBOUND:                -1.561
REMARK  Name = 
REMARK  9 active torsions:
REMARK  status: ('A' for Active; 'I' for Inactive)
REMARK    1  A    between atoms: C_1  and  C_2
REMARK    2  A    between atoms: C_6  and  C_7
REMARK    3  A    between atoms: C_7  and  C_8
REMARK    4  A    between atoms: C_8  and  C_9
REMARK    5  A    between atoms: C_9  and  C_10
REMARK    6  A    between atoms: C_13  and  C_14
REMARK    7  A    between atoms: C_14  and  N_15
REMARK    8  A    between atoms: C_16  and  C_18
REMARK    9  A    between atoms: C_25  and  O_26
REMARK                            x       y       z     vdW  Elec       q    Type
REMARK                         _______ _______ _______ _____ _____    ______ ____
ROOT
ATOM      1  C   UNL     1      51.581   3.890  17.770  0.00  0.00    +0.000 A 
ATOM      2  C   UNL     1      50.709   4.984  17.727  0.00  0.00    +0.000 A 
ATOM      3  C   UNL     1      49.362   4.806  17.392  0.00  0.00    +0.000 A 
ATOM      4  C   UNL     1      48.856   3.527  17.117  0.00  0.00    +0.000 A 
ATOM      5  C   UNL     1      49.740   2.440  17.123  0.00  0.00    +0.000 A 
ATOM      6  C   UNL     1      51.087   2.620  17.446  0.00  0.00    +0.000 A 
ENDROOT
BRANCH   1   7
ATOM      7  C   UNL     1      53.024   4.062  18.183  0.00  0.00    +0.000 C 
BRANCH   7   8
ATOM      8  C   UNL     1      53.440   3.193  19.377  0.00  0.00    +0.000 C 
BRANCH   8   9
ATOM      9  C   UNL     1      54.833   2.573  19.230  0.00  0.00    +0.000 C 
BRANCH   9  15
ATOM     10  C   UNL     1      53.971  -2.218  19.271  0.00  0.00    +0.000 C 
ATOM     11  C   UNL     1      54.361  -1.011  18.477  0.00  0.00    +0.000 A 
ATOM     12  C   UNL     1      54.643  -1.110  17.118  0.00  0.00    +0.000 A 
ATOM     13  C   UNL     1      55.001   0.040  16.424  0.00  0.00    +0.000 A 
ATOM     14  C   UNL     1      55.072   1.253  17.099  0.00  0.00    +0.000 A 
ATOM     15  C   UNL     1      54.782   1.276  18.460  0.00  0.00    +0.000 A 
ATOM     16  N   UNL     1      54.422   0.166  19.148  0.00  0.00    +0.000 NA
ENDBRANCH   9  15
ENDBRANCH   8   9
ENDBRANCH   7   8
ENDBRANCH   1   7
BRANCH   4  17
ATOM     17  C   UNL     1      47.400   3.325  16.785  0.00  0.00    +0.000 C 
BRANCH  17  18
ATOM     18  N   UNL     1      46.949   4.300  15.828  0.00  0.00    +0.000 N 
ATOM     19  C   UNL     1      46.882   4.023  14.487  0.00  0.00    +0.000 C 
ATOM     20  O   UNL     1      47.330   2.986  14.008  0.00  0.00    +0.000 OA
ATOM     21  H   UNL     1      46.420   5.083  16.193  0.00  0.00    +0.000 HD
BRANCH  19  22
ATOM     22  C   UNL     1      46.273   5.060  13.646  0.00  0.00    +0.000 A 
ATOM     23  C   UNL     1      46.810   6.341  13.621  0.00  0.00    +0.000 A 
ATOM     24  S   UNL     1      45.960   7.411  12.601  0.00  0.00    +0.000 S 
ATOM     25  C   UNL     1      44.879   6.187  12.133  0.00  0.00    +0.000 A 
ATOM     26  N   UNL     1      43.900   6.446  11.247  0.00  0.00    +0.000 NA
ATOM     27  C   UNL     1      43.147   5.377  10.978  0.00  0.00    +0.000 A 
ATOM     28  N   UNL     1      43.271   4.144  11.489  0.00  0.00    +0.000 NA
ATOM     29  C   UNL     1      44.260   3.957  12.364  0.00  0.00    +0.000 A 
ATOM     30  C   UNL     1      45.135   4.971  12.751  0.00  0.00    +0.000 A 
BRANCH  29  31
ATOM     31  O   UNL     1      44.321   2.686  12.856  0.00  0.00    +0.000 OA
ATOM     32  H   UNL     1      44.526   2.188  12.042  0.00  0.00    +0.000 HD
ENDBRANCH  29  31
ENDBRANCH  19  22
ENDBRANCH  17  18
ENDBRANCH   4  17
TORSDOF 8
ENDMDL
MODEL 8
REMARK VINA RESULT:    -6.810      3.428      9.693
REMARK INTER + INTRA:         -11.357
REMARK INTER:                  -9.400
REMARK INTRA:                  -1.957
REMARK UNBOUND:                -1.561
REMARK  Name = 
REMARK  9 active torsions:
REMARK  status: ('A' for Active; 'I' for Inactive)
REMARK    1  A    between atoms: C_1  and  C_2
REMARK    2  A    between atoms: C_6  and  C_7
REMARK    3  A    between atoms: C_7  and  C_8
REMARK    4  A    between atoms: C_8  and  C_9
REMARK    5  A    between atoms: C_9  and  C_10
REMARK    6  A    between atoms: C_13  and  C_14
REMARK    7  A    between atoms: C_14  and  N_15
REMARK    8  A    between atoms: C_16  and  C_18
REMARK    9  A    between atoms: C_25  and  O_26
REMARK                            x       y       z     vdW  Elec       q    Type
REMARK                         _______ _______ _______ _____ _____    ______ ____
ROOT
ATOM      1  C   UNL     1      51.364   5.210  18.238  0.00  0.00    +0.000 A 
ATOM      2  C   UNL     1      50.471   6.056  17.571  0.00  0.00    +0.000 A 
ATOM      3  C   UNL     1      49.293   5.546  17.013  0.00  0.00    +0.000 A 
ATOM      4  C   UNL     1      48.976   4.185  17.130  0.00  0.00    +0.000 A 
ATOM      5  C   UNL     1      49.891   3.335  17.764  0.00  0.00    +0.000 A 
ATOM      6  C   UNL     1      51.072   3.842  18.312  0.00  0.00    +0.000 A 
ENDROOT
BRANCH   1   7
ATOM      7  C   UNL     1      52.611   5.757  18.891  0.00  0.00    +0.000 C 
BRANCH   7   8
ATOM      8  C   UNL     1      52.696   5.486  20.399  0.00  0.00    +0.000 C 
BRANCH   8   9
ATOM      9  C   UNL     1      51.929   6.503  21.250  0.00  0.00    +0.000 C 
BRANCH   9  15
ATOM     10  C   UNL     1      47.559   8.294  20.070  0.00  0.00    +0.000 C 
ATOM     11  C   UNL     1      48.351   7.135  20.588  0.00  0.00    +0.000 A 
ATOM     12  C   UNL     1      47.727   5.945  20.948  0.00  0.00    +0.000 A 
ATOM     13  C   UNL     1      48.507   4.898  21.425  0.00  0.00    +0.000 A 
ATOM     14  C   UNL     1      49.883   5.064  21.534  0.00  0.00    +0.000 A 
ATOM     15  C   UNL     1      50.438   6.284  21.161  0.00  0.00    +0.000 A 
ATOM     16  N   UNL     1      49.693   7.310  20.686  0.00  0.00    +0.000 NA
ENDBRANCH   9  15
ENDBRANCH   8   9
ENDBRANCH   7   8
ENDBRANCH   1   7
BRANCH   4  17
ATOM     17  C   UNL     1      47.694   3.636  16.557  0.00  0.00    +0.000 C 
BRANCH  17  18
ATOM     18  N   UNL     1      47.107   4.563  15.627  0.00  0.00    +0.000 N 
ATOM     19  C   UNL     1      46.863   4.223  14.321  0.00  0.00    +0.000 C 
ATOM     20  O   UNL     1      47.254   3.167  13.833  0.00  0.00    +0.000 OA
ATOM     21  H   UNL     1      46.623   5.359  16.024  0.00  0.00    +0.000 HD
BRANCH  19  22
ATOM     22  C   UNL     1      46.134   5.216  13.524  0.00  0.00    +0.000 A 
ATOM     23  C   UNL     1      46.588   6.527  13.459  0.00  0.00    +0.000 A 
ATOM     24  S   UNL     1      45.604   7.537  12.500  0.00  0.00    +0.000 S 
ATOM     25  C   UNL     1      44.569   6.247  12.112  0.00  0.00    +0.000 A 
ATOM     26  N   UNL     1      43.516   6.441  11.297  0.00  0.00    +0.000 NA
ATOM     27  C   UNL     1      42.812   5.327  11.084  0.00  0.00    +0.000 A 
ATOM     28  N   UNL     1      43.047   4.107  11.587  0.00  0.00    +0.000 NA
ATOM     29  C   UNL     1      44.105   3.985  12.390  0.00  0.00    +0.000 A 
ATOM     30  C   UNL     1      44.942   5.053  12.713  0.00  0.00    +0.000 A 
BRANCH  29  31
ATOM     31  O   UNL     1      44.278   2.723  12.879  0.00  0.00    +0.000 OA
ATOM     32  H   UNL     1      43.348   2.449  12.998  0.00  0.00    +0.000 HD
ENDBRANCH  29  31
ENDBRANCH  19  22
ENDBRANCH  17  18
ENDBRANCH   4  17
TORSDOF 8
ENDMDL
MODEL 9
REMARK VINA RESULT:    -6.210      3.667      4.951
REMARK INTER + INTRA:         -10.494
REMARK INTER:                  -9.262
REMARK INTRA:                  -1.232
REMARK UNBOUND:                -1.561
REMARK  Name = 
REMARK  9 active torsions:
REMARK  status: ('A' for Active; 'I' for Inactive)
REMARK    1  A    between atoms: C_1  and  C_2
REMARK    2  A    between atoms: C_6  and  C_7
REMARK    3  A    between atoms: C_7  and  C_8
REMARK    4  A    between atoms: C_8  and  C_9
REMARK    5  A    between atoms: C_9  and  C_10
REMARK    6  A    between atoms: C_13  and  C_14
REMARK    7  A    between atoms: C_14  and  N_15
REMARK    8  A    between atoms: C_16  and  C_18
REMARK    9  A    between atoms: C_25  and  O_26
REMARK                            x       y       z     vdW  Elec       q    Type
REMARK                         _______ _______ _______ _____ _____    ______ ____
ROOT
ATOM      1  C   UNL     1      44.591   5.534  11.482  0.00  0.00    +0.000 A 
ATOM      2  C   UNL     1      45.659   4.907  12.134  0.00  0.00    +0.000 A 
ATOM      3  C   UNL     1      46.636   5.666  12.788  0.00  0.00    +0.000 A 
ATOM      4  C   UNL     1      46.550   7.065  12.823  0.00  0.00    +0.000 A 
ATOM      5  C   UNL     1      45.502   7.691  12.137  0.00  0.00    +0.000 A 
ATOM      6  C   UNL     1      44.533   6.934  11.474  0.00  0.00    +0.000 A 
ENDROOT
BRANCH   1   7
ATOM      7  C   UNL     1      43.502   4.725  10.818  0.00  0.00    +0.000 C 
BRANCH   7   8
ATOM      8  C   UNL     1      44.022   3.586   9.931  0.00  0.00    +0.000 C 
BRANCH   8   9
ATOM      9  C   UNL     1      44.689   4.069   8.639  0.00  0.00    +0.000 C 
BRANCH   9  15
ATOM     10  C   UNL     1      47.534   2.669   4.947  0.00  0.00    +0.000 C 
ATOM     11  C   UNL     1      46.894   2.316   6.252  0.00  0.00    +0.000 A 
ATOM     12  C   UNL     1      47.085   1.063   6.827  0.00  0.00    +0.000 A 
ATOM     13  C   UNL     1      46.467   0.783   8.041  0.00  0.00    +0.000 A 
ATOM     14  C   UNL     1      45.678   1.754   8.647  0.00  0.00    +0.000 A 
ATOM     15  C   UNL     1      45.526   2.983   8.011  0.00  0.00    +0.000 A 
ATOM     16  N   UNL     1      46.129   3.273   6.833  0.00  0.00    +0.000 NA
ENDBRANCH   9  15
ENDBRANCH   8   9
ENDBRANCH   7   8
ENDBRANCH   1   7
BRANCH   4  17
ATOM     17  C   UNL     1      47.583   7.887  13.552  0.00  0.00    +0.000 C 
BRANCH  17  18
ATOM     18  N   UNL     1      48.565   8.408  12.639  0.00  0.00    +0.000 N 
ATOM     19  C   UNL     1      48.814   9.752  12.533  0.00  0.00    +0.000 C 
ATOM     20  O   UNL     1      48.126  10.595  13.101  0.00  0.00    +0.000 OA
ATOM     21  H   UNL     1      49.255   7.754  12.293  0.00  0.00    +0.000 HD
BRANCH  19  22
ATOM     22  C   UNL     1      49.937  10.131  11.667  0.00  0.00    +0.000 A 
ATOM     23  C   UNL     1      49.787  11.154  10.740  0.00  0.00    +0.000 A 
ATOM     24  S   UNL     1      51.191  11.439   9.814  0.00  0.00    +0.000 S 
ATOM     25  C   UNL     1      52.049  10.235  10.651  0.00  0.00    +0.000 A 
ATOM     26  N   UNL     1      53.337   9.985  10.351  0.00  0.00    +0.000 NA
ATOM     27  C   UNL     1      53.867   9.020  11.107  0.00  0.00    +0.000 A 
ATOM     28  N   UNL     1      53.262   8.319  12.075  0.00  0.00    +0.000 NA
ATOM     29  C   UNL     1      51.985   8.616  12.319  0.00  0.00    +0.000 A 
ATOM     30  C   UNL     1      51.285   9.598  11.619  0.00  0.00    +0.000 A 
BRANCH  29  31
ATOM     31  O   UNL     1      51.425   7.856  13.305  0.00  0.00    +0.000 OA
ATOM     32  H   UNL     1      50.987   7.166  12.770  0.00  0.00    +0.000 HD
ENDBRANCH  29  31
ENDBRANCH  19  22
ENDBRANCH  17  18
ENDBRANCH   4  17
TORSDOF 8
ENDMDL
