MODEL 1
REMARK VINA RESULT:    -7.967      0.000      0.000
REMARK INTER + INTRA:         -13.021
REMARK INTER:                 -11.694
REMARK INTRA:                  -1.327
REMARK UNBOUND:                -1.327
REMARK  Name = 
REMARK  9 active torsions:
REMARK  status: ('A' for Active; 'I' for Inactive)
REMARK    1  A    between atoms: C_1  and  O_2
REMARK    2  A    between atoms: O_2  and  C_3
REMARK    3  A    between atoms: C_5  and  C_6
REMARK    4  A    between atoms: C_6  and  O_7
REMARK    5  A    between atoms: O_7  and  C_8
REMARK    6  A    between atoms: C_8  and  C_9
REMARK    7  A    between atoms: C_17  and  C_18
REMARK    8  A    between atoms: C_18  and  N_19
REMARK    9  A    between atoms: C_20  and  C_22
REMARK                            x       y       z     vdW  Elec       q    Type
REMARK                         _______ _______ _______ _____ _____    ______ ____
ROOT
ATOM      1  C   UNL     1      46.707   5.146  13.040  0.00  0.00    +0.000 A 
ATOM      2  C   UNL     1      45.665   4.494  12.374  0.00  0.00    +0.000 A 
ATOM      3  C   UNL     1      44.792   5.198  11.529  0.00  0.00    +0.000 A 
ATOM      4  C   UNL     1      44.974   6.571  11.349  0.00  0.00    +0.000 A 
ATOM      5  C   UNL     1      46.014   7.228  12.000  0.00  0.00    +0.000 A 
ATOM      6  C   UNL     1      46.887   6.528  12.851  0.00  0.00    +0.000 A 
ENDROOT
BRANCH   1   8
ATOM      7  C   UNL     1      46.984   3.952  15.079  0.00  0.00    +0.000 C 
ATOM      8  O   UNL     1      47.563   4.532  13.916  0.00  0.00    +0.000 OA
ENDBRANCH   1   8
BRANCH   3   9
ATOM      9  C   UNL     1      43.636   4.485  10.877  0.00  0.00    +0.000 C 
BRANCH   9  10
ATOM     10  O   UNL     1      43.979   4.053   9.561  0.00  0.00    +0.000 OA
BRANCH  10  11
ATOM     11  C   UNL     1      44.369   2.675   9.526  0.00  0.00    +0.000 C 
BRANCH  11  12
ATOM     12  C   UNL     1      45.453   2.477   8.496  0.00  0.00    +0.000 A 
ATOM     13  C   UNL     1      45.869   3.549   7.706  0.00  0.00    +0.000 A 
ATOM     14  C   UNL     1      46.891   3.349   6.783  0.00  0.00    +0.000 A 
ATOM     15  C   UNL     1      47.472   2.091   6.677  0.00  0.00    +0.000 A 
ATOM     16  C   UNL     1      47.006   1.083   7.503  0.00  0.00    +0.000 A 
ATOM     17  N   UNL     1      46.018   1.246   8.409  0.00  0.00    +0.000 NA
ENDBRANCH  11  12
ENDBRANCH  10  11
ENDBRANCH   9  10
ENDBRANCH   3   9
BRANCH   6  18
ATOM     18  C   UNL     1      48.046   7.276  13.462  0.00  0.00    +0.000 C 
BRANCH  18  19
ATOM     19  N   UNL     1      47.977   7.192  14.903  0.00  0.00    +0.000 N 
ATOM     20  C   UNL     1      49.088   7.026  15.685  0.00  0.00    +0.000 C 
ATOM     21  O   UNL     1      50.195   6.780  15.216  0.00  0.00    +0.000 OA
ATOM     22  H   UNL     1      47.130   7.567  15.316  0.00  0.00    +0.000 HD
BRANCH  20  23
ATOM     23  C   UNL     1      48.874   7.111  17.136  0.00  0.00    +0.000 A 
ATOM     24  C   UNL     1      48.455   8.307  17.703  0.00  0.00    +0.000 A 
ATOM     25  S   UNL     1      48.243   8.225  19.393  0.00  0.00    +0.000 S 
ATOM     26  C   UNL     1      48.664   6.576  19.421  0.00  0.00    +0.000 A 
ATOM     27  N   UNL     1      48.647   5.868  20.583  0.00  0.00    +0.000 NA
ATOM     28  C   UNL     1      48.948   4.621  20.453  0.00  0.00    +0.000 A 
ATOM     29  N   UNL     1      49.280   4.017  19.268  0.00  0.00    +0.000 N 
ATOM     30  C   UNL     1      49.371   4.704  18.079  0.00  0.00    +0.000 A 
ATOM     31  O   UNL     1      49.771   4.154  17.061  0.00  0.00    +0.000 OA
ATOM     32  C   UNL     1      48.995   6.102  18.165  0.00  0.00    +0.000 A 
ATOM     33  H   UNL     1      49.533   3.041  19.236  0.00  0.00    +0.000 HD
ENDBRANCH  20  23
ENDBRANCH  18  19
ENDBRANCH   6  18
TORSDOF 8
ENDMDL
MODEL 2
REMARK VINA RESULT:    -7.753      1.535      2.279
REMARK INTER + INTRA:         -12.707
REMARK INTER:                 -11.514
REMARK INTRA:                  -1.193
REMARK UNBOUND:                -1.327
REMARK  Name = 
REMARK  9 active torsions:
REMARK  status: ('A' for Active; 'I' for Inactive)
REMARK    1  A    between atoms: C_1  and  O_2
REMARK    2  A    between atoms: O_2  and  C_3
REMARK    3  A    between atoms: C_5  and  C_6
REMARK    4  A    between atoms: C_6  and  O_7
REMARK    5  A    between atoms: O_7  and  C_8
REMARK    6  A    between atoms: C_8  and  C_9
REMARK    7  A    between atoms: C_17  and  C_18
REMARK    8  A    between atoms: C_18  and  N_19
REMARK    9  A    between atoms: C_20  and  C_22
REMARK                            x       y       z     vdW  Elec       q    Type
REMARK                         _______ _______ _______ _____ _____    ______ ____
ROOT
ATOM      1  C   UNL     1      45.201   7.720  12.314  0.00  0.00    +0.000 A 
ATOM      2  C   UNL     1      44.284   6.891  11.659  0.00  0.00    +0.000 A 
ATOM      3  C   UNL     1      44.578   5.541  11.412  0.00  0.00    +0.000 A 
ATOM      4  C   UNL     1      45.804   5.018  11.831  0.00  0.00    +0.000 A 
ATOM      5  C   UNL     1      46.719   5.834  12.491  0.00  0.00    +0.000 A 
ATOM      6  C   UNL     1      46.432   7.188  12.737  0.00  0.00    +0.000 A 
ENDROOT
BRANCH   1   8
ATOM      7  C   UNL     1      44.705   9.865  11.411  0.00  0.00    +0.000 C 
ATOM      8  O   UNL     1      45.001   9.056  12.544  0.00  0.00    +0.000 OA
ENDBRANCH   1   8
BRANCH   3   9
ATOM      9  C   UNL     1      43.602   4.686  10.645  0.00  0.00    +0.000 C 
BRANCH   9  10
ATOM     10  O   UNL     1      44.174   4.233   9.419  0.00  0.00    +0.000 OA
BRANCH  10  11
ATOM     11  C   UNL     1      44.442   2.826   9.431  0.00  0.00    +0.000 C 
BRANCH  11  12
ATOM     12  C   UNL     1      45.524   2.503   8.431  0.00  0.00    +0.000 A 
ATOM     13  C   UNL     1      46.028   3.504   7.602  0.00  0.00    +0.000 A 
ATOM     14  C   UNL     1      47.046   3.188   6.708  0.00  0.00    +0.000 A 
ATOM     15  C   UNL     1      47.535   1.889   6.668  0.00  0.00    +0.000 A 
ATOM     16  C   UNL     1      46.984   0.956   7.530  0.00  0.00    +0.000 A 
ATOM     17  N   UNL     1      45.998   1.231   8.410  0.00  0.00    +0.000 NA
ENDBRANCH  11  12
ENDBRANCH  10  11
ENDBRANCH   9  10
ENDBRANCH   3   9
BRANCH   6  18
ATOM     18  C   UNL     1      47.425   7.999  13.531  0.00  0.00    +0.000 C 
BRANCH  18  19
ATOM     19  N   UNL     1      47.756   7.306  14.754  0.00  0.00    +0.000 N 
ATOM     20  C   UNL     1      49.037   6.946  15.074  0.00  0.00    +0.000 C 
ATOM     21  O   UNL     1      49.968   7.045  14.280  0.00  0.00    +0.000 OA
ATOM     22  H   UNL     1      47.061   7.376  15.491  0.00  0.00    +0.000 HD
BRANCH  20  23
ATOM     23  C   UNL     1      49.234   6.384  16.416  0.00  0.00    +0.000 A 
ATOM     24  C   UNL     1      49.951   7.101  17.366  0.00  0.00    +0.000 A 
ATOM     25  S   UNL     1      50.070   6.309  18.872  0.00  0.00    +0.000 S 
ATOM     26  C   UNL     1      49.135   4.999  18.320  0.00  0.00    +0.000 A 
ATOM     27  N   UNL     1      48.821   3.965  19.147  0.00  0.00    +0.000 NA
ATOM     28  C   UNL     1      48.073   3.061  18.611  0.00  0.00    +0.000 A 
ATOM     29  N   UNL     1      47.621   3.088  17.317  0.00  0.00    +0.000 N 
ATOM     30  C   UNL     1      47.962   4.080  16.427  0.00  0.00    +0.000 A 
ATOM     31  O   UNL     1      47.625   4.017  15.252  0.00  0.00    +0.000 OA
ATOM     32  C   UNL     1      48.764   5.146  16.996  0.00  0.00    +0.000 A 
ATOM     33  H   UNL     1      47.061   2.335  16.947  0.00  0.00    +0.000 HD
ENDBRANCH  20  23
ENDBRANCH  18  19
ENDBRANCH   6  18
TORSDOF 8
ENDMDL
MODEL 3
REMARK VINA RESULT:    -7.436      1.525      2.344
REMARK INTER + INTRA:         -12.241
REMARK INTER:                 -10.763
REMARK INTRA:                  -1.478
REMARK UNBOUND:                -1.327
REMARK  Name = 
REMARK  9 active torsions:
REMARK  status: ('A' for Active; 'I' for Inactive)
REMARK    1  A    between atoms: C_1  and  O_2
REMARK    2  A    between atoms: O_2  and  C_3
REMARK    3  A    between atoms: C_5  and  C_6
REMARK    4  A    between atoms: C_6  and  O_7
REMARK    5  A    between atoms: O_7  and  C_8
REMARK    6  A    between atoms: C_8  and  C_9
REMARK    7  A    between atoms: C_17  and  C_18
REMARK    8  A    between atoms: C_18  and  N_19
REMARK    9  A    between atoms: C_20  and  C_22
REMARK                            x       y       z     vdW  Elec       q    Type
REMARK                         _______ _______ _______ _____ _____    ______ ____
ROOT
ATOM      1  C   UNL     1      46.829   5.144  13.238  0.00  0.00    +0.000 A 
ATOM      2  C   UNL     1      45.777   4.571  12.517  0.00  0.00    +0.000 A 
ATOM      3  C   UNL     1      44.969   5.350  11.672  0.00  0.00    +0.000 A 
ATOM      4  C   UNL     1      45.227   6.717  11.548  0.00  0.00    +0.000 A 
ATOM      5  C   UNL     1      46.279   7.294  12.254  0.00  0.00    +0.000 A 
ATOM      6  C   UNL     1      47.086   6.520  13.105  0.00  0.00    +0.000 A 
ENDROOT
BRANCH   1   8
ATOM      7  C   UNL     1      46.987   3.912  15.267  0.00  0.00    +0.000 C 
ATOM      8  O   UNL     1      47.624   4.455  14.116  0.00  0.00    +0.000 OA
ENDBRANCH   1   8
BRANCH   3   9
ATOM      9  C   UNL     1      43.799   4.722  10.959  0.00  0.00    +0.000 C 
BRANCH   9  10
ATOM     10  O   UNL     1      44.174   4.280   9.655  0.00  0.00    +0.000 OA
BRANCH  10  11
ATOM     11  C   UNL     1      44.393   2.865   9.603  0.00  0.00    +0.000 C 
BRANCH  11  12
ATOM     12  C   UNL     1      45.454   2.550   8.578  0.00  0.00    +0.000 A 
ATOM     13  C   UNL     1      45.964   3.564   7.768  0.00  0.00    +0.000 A 
ATOM     14  C   UNL     1      46.963   3.255   6.850  0.00  0.00    +0.000 A 
ATOM     15  C   UNL     1      47.427   1.948   6.768  0.00  0.00    +0.000 A 
ATOM     16  C   UNL     1      46.871   1.002   7.613  0.00  0.00    +0.000 A 
ATOM     17  N   UNL     1      45.904   1.272   8.515  0.00  0.00    +0.000 NA
ENDBRANCH  11  12
ENDBRANCH  10  11
ENDBRANCH   9  10
ENDBRANCH   3   9
BRANCH   6  18
ATOM     18  C   UNL     1      48.262   7.184  13.778  0.00  0.00    +0.000 C 
BRANCH  18  19
ATOM     19  N   UNL     1      48.052   7.219  15.207  0.00  0.00    +0.000 N 
ATOM     20  C   UNL     1      49.006   6.816  16.102  0.00  0.00    +0.000 C 
ATOM     21  O   UNL     1      50.041   6.254  15.756  0.00  0.00    +0.000 OA
ATOM     22  H   UNL     1      47.307   7.833  15.518  0.00  0.00    +0.000 HD
BRANCH  20  23
ATOM     23  C   UNL     1      48.702   7.052  17.519  0.00  0.00    +0.000 A 
ATOM     24  C   UNL     1      48.844   6.019  18.437  0.00  0.00    +0.000 A 
ATOM     25  S   UNL     1      48.463   6.470  20.038  0.00  0.00    +0.000 S 
ATOM     26  C   UNL     1      48.135   8.072  19.567  0.00  0.00    +0.000 A 
ATOM     27  N   UNL     1      47.783   9.014  20.484  0.00  0.00    +0.000 NA
ATOM     28  C   UNL     1      47.604  10.194  19.996  0.00  0.00    +0.000 A 
ATOM     29  N   UNL     1      47.730  10.518  18.670  0.00  0.00    +0.000 N 
ATOM     30  C   UNL     1      48.022   9.589  17.698  0.00  0.00    +0.000 A 
ATOM     31  O   UNL     1      48.025   9.894  16.512  0.00  0.00    +0.000 OA
ATOM     32  C   UNL     1      48.280   8.254  18.203  0.00  0.00    +0.000 A 
ATOM     33  H   UNL     1      47.548  11.456  18.345  0.00  0.00    +0.000 HD
ENDBRANCH  20  23
ENDBRANCH  18  19
ENDBRANCH   6  18
TORSDOF 8
ENDMDL
MODEL 4
REMARK VINA RESULT:    -7.305      1.787      2.806
REMARK INTER + INTRA:         -12.049
REMARK INTER:                 -10.811
REMARK INTRA:                  -1.238
REMARK UNBOUND:                -1.327
REMARK  Name = 
REMARK  9 active torsions:
REMARK  status: ('A' for Active; 'I' for Inactive)
REMARK    1  A    between atoms: C_1  and  O_2
REMARK    2  A    between atoms: O_2  and  C_3
REMARK    3  A    between atoms: C_5  and  C_6
REMARK    4  A    between atoms: C_6  and  O_7
REMARK    5  A    between atoms: O_7  and  C_8
REMARK    6  A    between atoms: C_8  and  C_9
REMARK    7  A    between atoms: C_17  and  C_18
REMARK    8  A    between atoms: C_18  and  N_19
REMARK    9  A    between atoms: C_20  and  C_22
REMARK                            x       y       z     vdW  Elec       q    Type
REMARK                         _______ _______ _______ _____ _____    ______ ____
ROOT
ATOM      1  C   UNL     1      46.224   7.194  12.432  0.00  0.00    +0.000 A 
ATOM      2  C   UNL     1      45.105   6.650  11.795  0.00  0.00    +0.000 A 
ATOM      3  C   UNL     1      44.793   5.286  11.918  0.00  0.00    +0.000 A 
ATOM      4  C   UNL     1      45.613   4.463  12.693  0.00  0.00    +0.000 A 
ATOM      5  C   UNL     1      46.725   4.998  13.339  0.00  0.00    +0.000 A 
ATOM      6  C   UNL     1      47.044   6.361  13.215  0.00  0.00    +0.000 A 
ENDROOT
BRANCH   1   8
ATOM      7  C   UNL     1      45.581   9.468  12.164  0.00  0.00    +0.000 C 
ATOM      8  O   UNL     1      46.614   8.502  12.316  0.00  0.00    +0.000 OA
ENDBRANCH   1   8
BRANCH   3   9
ATOM      9  C   UNL     1      43.620   4.711  11.166  0.00  0.00    +0.000 C 
BRANCH   9  10
ATOM     10  O   UNL     1      44.042   3.684  10.270  0.00  0.00    +0.000 OA
BRANCH  10  11
ATOM     11  C   UNL     1      44.329   4.190   8.961  0.00  0.00    +0.000 C 
BRANCH  11  12
ATOM     12  C   UNL     1      45.418   3.364   8.322  0.00  0.00    +0.000 A 
ATOM     13  C   UNL     1      45.533   2.008   8.625  0.00  0.00    +0.000 A 
ATOM     14  C   UNL     1      46.527   1.260   8.001  0.00  0.00    +0.000 A 
ATOM     15  C   UNL     1      47.373   1.882   7.091  0.00  0.00    +0.000 A 
ATOM     16  C   UNL     1      47.187   3.231   6.841  0.00  0.00    +0.000 A 
ATOM     17  N   UNL     1      46.231   3.982   7.428  0.00  0.00    +0.000 NA
ENDBRANCH  11  12
ENDBRANCH  10  11
ENDBRANCH   9  10
ENDBRANCH   3   9
BRANCH   6  18
ATOM     18  C   UNL     1      48.210   6.900  14.005  0.00  0.00    +0.000 C 
BRANCH  18  19
ATOM     19  N   UNL     1      47.999   6.659  15.414  0.00  0.00    +0.000 N 
ATOM     20  C   UNL     1      49.025   6.379  16.275  0.00  0.00    +0.000 C 
ATOM     21  O   UNL     1      50.169   6.157  15.889  0.00  0.00    +0.000 OA
ATOM     22  H   UNL     1      47.122   7.009  15.784  0.00  0.00    +0.000 HD
BRANCH  20  23
ATOM     23  C   UNL     1      48.672   6.308  17.699  0.00  0.00    +0.000 A 
ATOM     24  C   UNL     1      48.853   5.121  18.397  0.00  0.00    +0.000 A 
ATOM     25  S   UNL     1      48.406   5.219  20.040  0.00  0.00    +0.000 S 
ATOM     26  C   UNL     1      47.992   6.863  19.886  0.00  0.00    +0.000 A 
ATOM     27  N   UNL     1      47.560   7.580  20.959  0.00  0.00    +0.000 NA
ATOM     28  C   UNL     1      47.321   8.823  20.709  0.00  0.00    +0.000 A 
ATOM     29  N   UNL     1      47.460   9.413  19.480  0.00  0.00    +0.000 N 
ATOM     30  C   UNL     1      47.833   8.715  18.354  0.00  0.00    +0.000 A 
ATOM     31  O   UNL     1      47.847   9.252  17.254  0.00  0.00    +0.000 OA
ATOM     32  C   UNL     1      48.160   7.323  18.592  0.00  0.00    +0.000 A 
ATOM     33  H   UNL     1      47.229  10.385  19.342  0.00  0.00    +0.000 HD
ENDBRANCH  20  23
ENDBRANCH  18  19
ENDBRANCH   6  18
TORSDOF 8
ENDMDL
MODEL 5
REMARK VINA RESULT:    -7.057      2.075      3.074
REMARK INTER + INTRA:         -11.685
REMARK INTER:                 -10.725
REMARK INTRA:                  -0.960
REMARK UNBOUND:                -1.327
REMARK  Name = 
REMARK  9 active torsions:
REMARK  status: ('A' for Active; 'I' for Inactive)
REMARK    1  A    between atoms: C_1  and  O_2
REMARK    2  A    between atoms: O_2  and  C_3
REMARK    3  A    between atoms: C_5  and  C_6
REMARK    4  A    between atoms: C_6  and  O_7
REMARK    5  A    between atoms: O_7  and  C_8
REMARK    6  A    between atoms: C_8  and  C_9
REMARK    7  A    between atoms: C_17  and  C_18
REMARK    8  A    between atoms: C_18  and  N_19
REMARK    9  A    between atoms: C_20  and  C_22
REMARK                            x       y       z     vdW  Elec       q    Type
REMARK                         _______ _______ _______ _____ _____    ______ ____
ROOT
ATOM      1  C   UNL     1      44.728   4.614  11.746  0.00  0.00    +0.000 A 
ATOM      2  C   UNL     1      44.630   3.475  10.939  0.00  0.00    +0.000 A 
ATOM      3  C   UNL     1      45.115   3.478   9.621  0.00  0.00    +0.000 A 
ATOM      4  C   UNL     1      45.707   4.635   9.112  0.00  0.00    +0.000 A 
ATOM      5  C   UNL     1      45.817   5.770   9.910  0.00  0.00    +0.000 A 
ATOM      6  C   UNL     1      45.329   5.775  11.228  0.00  0.00    +0.000 A 
ENDROOT
BRANCH   1   8
ATOM      7  C   UNL     1      42.833   4.911  13.153  0.00  0.00    +0.000 C 
ATOM      8  O   UNL     1      44.233   4.697  13.020  0.00  0.00    +0.000 OA
ENDBRANCH   1   8
BRANCH   3   9
ATOM      9  C   UNL     1      44.936   2.260   8.751  0.00  0.00    +0.000 C 
BRANCH   9  10
ATOM     10  O   UNL     1      46.184   1.606   8.526  0.00  0.00    +0.000 OA
BRANCH  10  11
ATOM     11  C   UNL     1      46.986   2.287   7.554  0.00  0.00    +0.000 C 
BRANCH  11  12
ATOM     12  C   UNL     1      46.935   1.546   6.241  0.00  0.00    +0.000 A 
ATOM     13  C   UNL     1      46.850   2.255   5.043  0.00  0.00    +0.000 A 
ATOM     14  C   UNL     1      46.833   1.551   3.843  0.00  0.00    +0.000 A 
ATOM     15  C   UNL     1      46.906   0.164   3.870  0.00  0.00    +0.000 A 
ATOM     16  C   UNL     1      46.995  -0.462   5.101  0.00  0.00    +0.000 A 
ATOM     17  N   UNL     1      47.016   0.192   6.281  0.00  0.00    +0.000 NA
ENDBRANCH  11  12
ENDBRANCH  10  11
ENDBRANCH   9  10
ENDBRANCH   3   9
BRANCH   6  18
ATOM     18  C   UNL     1      45.553   7.005  12.073  0.00  0.00    +0.000 C 
BRANCH  18  19
ATOM     19  N   UNL     1      46.237   6.643  13.293  0.00  0.00    +0.000 N 
ATOM     20  C   UNL     1      47.601   6.654  13.404  0.00  0.00    +0.000 C 
ATOM     21  O   UNL     1      48.340   6.818  12.438  0.00  0.00    +0.000 OA
ATOM     22  H   UNL     1      45.669   6.684  14.133  0.00  0.00    +0.000 HD
BRANCH  20  23
ATOM     23  C   UNL     1      48.141   6.408  14.747  0.00  0.00    +0.000 A 
ATOM     24  C   UNL     1      48.920   7.377  15.366  0.00  0.00    +0.000 A 
ATOM     25  S   UNL     1      49.451   6.934  16.925  0.00  0.00    +0.000 S 
ATOM     26  C   UNL     1      48.625   5.449  16.845  0.00  0.00    +0.000 A 
ATOM     27  N   UNL     1      48.635   4.583  17.895  0.00  0.00    +0.000 NA
ATOM     28  C   UNL     1      47.935   3.515  17.714  0.00  0.00    +0.000 A 
ATOM     29  N   UNL     1      47.235   3.225  16.572  0.00  0.00    +0.000 N 
ATOM     30  C   UNL     1      47.244   4.038  15.462  0.00  0.00    +0.000 A 
ATOM     31  O   UNL     1      46.692   3.697  14.424  0.00  0.00    +0.000 OA
ATOM     32  C   UNL     1      47.980   5.276  15.633  0.00  0.00    +0.000 A 
ATOM     33  H   UNL     1      46.728   2.358  16.480  0.00  0.00    +0.000 HD
ENDBRANCH  20  23
ENDBRANCH  18  19
ENDBRANCH   6  18
TORSDOF 8
ENDMDL
MODEL 6
REMARK VINA RESULT:    -6.706      3.669      9.101
REMARK INTER + INTRA:         -11.169
REMARK INTER:                  -9.821
REMARK INTRA:                  -1.348
REMARK UNBOUND:                -1.327
REMARK  Name = 
REMARK  9 active torsions:
REMARK  status: ('A' for Active; 'I' for Inactive)
REMARK    1  A    between atoms: C_1  and  O_2
REMARK    2  A    between atoms: O_2  and  C_3
REMARK    3  A    between atoms: C_5  and  C_6
REMARK    4  A    between atoms: C_6  and  O_7
REMARK    5  A    between atoms: O_7  and  C_8
REMARK    6  A    between atoms: C_8  and  C_9
REMARK    7  A    between atoms: C_17  and  C_18
REMARK    8  A    between atoms: C_18  and  N_19
REMARK    9  A    between atoms: C_20  and  C_22
REMARK                            x       y       z     vdW  Elec       q    Type
REMARK                         _______ _______ _______ _____ _____    ______ ____
ROOT
ATOM      1  C   UNL     1      49.484   4.123  17.871  0.00  0.00    +0.000 A 
ATOM      2  C   UNL     1      50.105   4.727  18.968  0.00  0.00    +0.000 A 
ATOM      3  C   UNL     1      49.367   5.481  19.894  0.00  0.00    +0.000 A 
ATOM      4  C   UNL     1      47.989   5.625  19.717  0.00  0.00    +0.000 A 
ATOM      5  C   UNL     1      47.360   5.020  18.632  0.00  0.00    +0.000 A 
ATOM      6  C   UNL     1      48.095   4.268  17.700  0.00  0.00    +0.000 A 
ENDROOT
BRANCH   1   8
ATOM      7  C   UNL     1      50.741   2.185  17.303  0.00  0.00    +0.000 C 
ATOM      8  O   UNL     1      50.149   3.416  16.904  0.00  0.00    +0.000 OA
ENDBRANCH   1   8
BRANCH   3   9
ATOM      9  C   UNL     1      50.071   6.178  21.030  0.00  0.00    +0.000 C 
BRANCH   9  10
ATOM     10  O   UNL     1      49.895   7.592  20.949  0.00  0.00    +0.000 OA
BRANCH  10  11
ATOM     11  C   UNL     1      50.689   8.179  19.912  0.00  0.00    +0.000 C 
BRANCH  11  12
ATOM     12  C   UNL     1      49.807   8.572  18.753  0.00  0.00    +0.000 A 
ATOM     13  C   UNL     1      48.571   9.174  18.990  0.00  0.00    +0.000 A 
ATOM     14  C   UNL     1      47.788   9.554  17.904  0.00  0.00    +0.000 A 
ATOM     15  C   UNL     1      48.258   9.327  16.617  0.00  0.00    +0.000 A 
ATOM     16  C   UNL     1      49.498   8.729  16.469  0.00  0.00    +0.000 A 
ATOM     17  N   UNL     1      50.282   8.353  17.501  0.00  0.00    +0.000 NA
ENDBRANCH  11  12
ENDBRANCH  10  11
ENDBRANCH   9  10
ENDBRANCH   3   9
BRANCH   6  18
ATOM     18  C   UNL     1      47.347   3.565  16.594  0.00  0.00    +0.000 C 
BRANCH  18  19
ATOM     19  N   UNL     1      46.875   4.534  15.631  0.00  0.00    +0.000 N 
ATOM     20  C   UNL     1      46.752   4.248  14.299  0.00  0.00    +0.000 C 
ATOM     21  O   UNL     1      47.178   3.208  13.804  0.00  0.00    +0.000 OA
ATOM     22  H   UNL     1      46.355   5.312  16.023  0.00  0.00    +0.000 HD
BRANCH  20  23
ATOM     23  C   UNL     1      46.118   5.283  13.472  0.00  0.00    +0.000 A 
ATOM     24  C   UNL     1      46.809   6.451  13.178  0.00  0.00    +0.000 A 
ATOM     25  S   UNL     1      45.932   7.537  12.197  0.00  0.00    +0.000 S 
ATOM     26  C   UNL     1      44.612   6.466  12.098  0.00  0.00    +0.000 A 
ATOM     27  N   UNL     1      43.513   6.776  11.358  0.00  0.00    +0.000 NA
ATOM     28  C   UNL     1      42.607   5.858  11.338  0.00  0.00    +0.000 A 
ATOM     29  N   UNL     1      42.692   4.663  12.002  0.00  0.00    +0.000 N 
ATOM     30  C   UNL     1      43.754   4.331  12.812  0.00  0.00    +0.000 A 
ATOM     31  O   UNL     1      43.748   3.299  13.471  0.00  0.00    +0.000 OA
ATOM     32  C   UNL     1      44.822   5.311  12.830  0.00  0.00    +0.000 A 
ATOM     33  H   UNL     1      41.935   3.996  11.970  0.00  0.00    +0.000 HD
ENDBRANCH  20  23
ENDBRANCH  18  19
ENDBRANCH   6  18
TORSDOF 8
ENDMDL
MODEL 7
REMARK VINA RESULT:    -6.685      2.773      4.064
REMARK INTER + INTRA:         -11.139
REMARK INTER:                 -10.197
REMARK INTRA:                  -0.942
REMARK UNBOUND:                -1.327
REMARK  Name = 
REMARK  9 active torsions:
REMARK  status: ('A' for Active; 'I' for Inactive)
REMARK    1  A    between atoms: C_1  and  O_2
REMARK    2  A    between atoms: O_2  and  C_3
REMARK    3  A    between atoms: C_5  and  C_6
REMARK    4  A    between atoms: C_6  and  O_7
REMARK    5  A    between atoms: O_7  and  C_8
REMARK    6  A    between atoms: C_8  and  C_9
REMARK    7  A    between atoms: C_17  and  C_18
REMARK    8  A    between atoms: C_18  and  N_19
REMARK    9  A    between atoms: C_20  and  C_22
REMARK                            x       y       z     vdW  Elec       q    Type
REMARK                         _______ _______ _______ _____ _____    ______ ____
ROOT
ATOM      1  C   UNL     1      48.199   6.292  14.264  0.00  0.00    +0.000 A 
ATOM      2  C   UNL     1      47.384   5.545  13.408  0.00  0.00    +0.000 A 
ATOM      3  C   UNL     1      46.763   4.365  13.847  0.00  0.00    +0.000 A 
ATOM      4  C   UNL     1      46.959   3.935  15.161  0.00  0.00    +0.000 A 
ATOM      5  C   UNL     1      47.762   4.677  16.024  0.00  0.00    +0.000 A 
ATOM      6  C   UNL     1      48.390   5.857  15.588  0.00  0.00    +0.000 A 
ENDROOT
BRANCH   1   8
ATOM      7  C   UNL     1      49.401   7.449  12.568  0.00  0.00    +0.000 C 
ATOM      8  O   UNL     1      48.874   7.424  13.890  0.00  0.00    +0.000 OA
ENDBRANCH   1   8
BRANCH   3   9
ATOM      9  C   UNL     1      45.945   3.542  12.885  0.00  0.00    +0.000 C 
BRANCH   9  10
ATOM     10  O   UNL     1      44.570   3.919  12.932  0.00  0.00    +0.000 OA
BRANCH  10  11
ATOM     11  C   UNL     1      44.222   4.836  11.887  0.00  0.00    +0.000 C 
BRANCH  11  12
ATOM     12  C   UNL     1      44.567   4.237  10.547  0.00  0.00    +0.000 A 
ATOM     13  C   UNL     1      45.302   4.977   9.620  0.00  0.00    +0.000 A 
ATOM     14  C   UNL     1      45.633   4.392   8.402  0.00  0.00    +0.000 A 
ATOM     15  C   UNL     1      45.228   3.089   8.143  0.00  0.00    +0.000 A 
ATOM     16  C   UNL     1      44.507   2.422   9.118  0.00  0.00    +0.000 A 
ATOM     17  N   UNL     1      44.173   2.960  10.311  0.00  0.00    +0.000 NA
ENDBRANCH  11  12
ENDBRANCH  10  11
ENDBRANCH   9  10
ENDBRANCH   3   9
BRANCH   6  18
ATOM     18  C   UNL     1      49.177   6.663  16.591  0.00  0.00    +0.000 C 
BRANCH  18  19
ATOM     19  N   UNL     1      50.309   5.895  17.056  0.00  0.00    +0.000 N 
ATOM     20  C   UNL     1      50.391   5.402  18.330  0.00  0.00    +0.000 C 
ATOM     21  O   UNL     1      49.590   5.706  19.208  0.00  0.00    +0.000 OA
ATOM     22  H   UNL     1      50.878   5.482  16.325  0.00  0.00    +0.000 HD
BRANCH  20  23
ATOM     23  C   UNL     1      51.529   4.516  18.607  0.00  0.00    +0.000 A 
ATOM     24  C   UNL     1      52.559   4.952  19.429  0.00  0.00    +0.000 A 
ATOM     25  S   UNL     1      53.791   3.793  19.655  0.00  0.00    +0.000 S 
ATOM     26  C   UNL     1      52.970   2.653  18.694  0.00  0.00    +0.000 A 
ATOM     27  N   UNL     1      53.475   1.404  18.505  0.00  0.00    +0.000 NA
ATOM     28  C   UNL     1      52.732   0.630  17.789  0.00  0.00    +0.000 A 
ATOM     29  N   UNL     1      51.534   0.995  17.232  0.00  0.00    +0.000 N 
ATOM     30  C   UNL     1      51.013   2.264  17.344  0.00  0.00    +0.000 A 
ATOM     31  O   UNL     1      49.993   2.583  16.747  0.00  0.00    +0.000 OA
ATOM     32  C   UNL     1      51.790   3.159  18.180  0.00  0.00    +0.000 A 
ATOM     33  H   UNL     1      51.011   0.352  16.658  0.00  0.00    +0.000 HD
ENDBRANCH  20  23
ENDBRANCH  18  19
ENDBRANCH   6  18
TORSDOF 8
ENDMDL
MODEL 8
REMARK VINA RESULT:    -6.550      3.762      6.098
REMARK INTER + INTRA:         -10.941
REMARK INTER:                  -9.950
REMARK INTRA:                  -0.990
REMARK UNBOUND:                -1.327
REMARK  Name = 
REMARK  9 active torsions:
REMARK  status: ('A' for Active; 'I' for Inactive)
REMARK    1  A    between atoms: C_1  and  O_2
REMARK    2  A    between atoms: O_2  and  C_3
REMARK    3  A    between atoms: C_5  and  C_6
REMARK    4  A    between atoms: C_6  and  O_7
REMARK    5  A    between atoms: O_7  and  C_8
REMARK    6  A    between atoms: C_8  and  C_9
REMARK    7  A    between atoms: C_17  and  C_18
REMARK    8  A    between atoms: C_18  and  N_19
REMARK    9  A    between atoms: C_20  and  C_22
REMARK                            x       y       z     vdW  Elec       q    Type
REMARK                         _______ _______ _______ _____ _____    ______ ____
ROOT
ATOM      1  C   UNL     1      45.000   6.078  12.580  0.00  0.00    +0.000 A 
ATOM      2  C   UNL     1      44.716   7.312  11.988  0.00  0.00    +0.000 A 
ATOM      3  C   UNL     1      45.530   8.432  12.223  0.00  0.00    +0.000 A 
ATOM      4  C   UNL     1      46.642   8.307  13.058  0.00  0.00    +0.000 A 
ATOM      5  C   UNL     1      46.938   7.080  13.646  0.00  0.00    +0.000 A 
ATOM      6  C   UNL     1      46.123   5.957  13.417  0.00  0.00    +0.000 A 
ENDROOT
BRANCH   1   8
ATOM      7  C   UNL     1      42.885   5.040  12.910  0.00  0.00    +0.000 C 
ATOM      8  O   UNL     1      44.223   4.959  12.434  0.00  0.00    +0.000 OA
ENDBRANCH   1   8
BRANCH   3   9
ATOM      9  C   UNL     1      45.164   9.767  11.627  0.00  0.00    +0.000 C 
BRANCH   9  10
ATOM     10  O   UNL     1      44.133   9.625  10.651  0.00  0.00    +0.000 OA
BRANCH  10  11
ATOM     11  C   UNL     1      43.533  10.880  10.308  0.00  0.00    +0.000 C 
BRANCH  11  12
ATOM     12  C   UNL     1      42.195  11.009  10.992  0.00  0.00    +0.000 A 
ATOM     13  C   UNL     1      41.107  10.259  10.545  0.00  0.00    +0.000 A 
ATOM     14  C   UNL     1      39.891  10.374  11.210  0.00  0.00    +0.000 A 
ATOM     15  C   UNL     1      39.793  11.226  12.303  0.00  0.00    +0.000 A 
ATOM     16  C   UNL     1      40.922  11.929  12.687  0.00  0.00    +0.000 A 
ATOM     17  N   UNL     1      42.116  11.838  12.064  0.00  0.00    +0.000 NA
ENDBRANCH  11  12
ENDBRANCH  10  11
ENDBRANCH   9  10
ENDBRANCH   3   9
BRANCH   6  18
ATOM     18  C   UNL     1      46.541   4.635  14.011  0.00  0.00    +0.000 C 
BRANCH  18  19
ATOM     19  N   UNL     1      47.591   4.845  14.982  0.00  0.00    +0.000 N 
ATOM     20  C   UNL     1      47.567   4.276  16.226  0.00  0.00    +0.000 C 
ATOM     21  O   UNL     1      46.586   3.680  16.661  0.00  0.00    +0.000 OA
ATOM     22  H   UNL     1      48.473   5.167  14.599  0.00  0.00    +0.000 HD
BRANCH  20  23
ATOM     23  C   UNL     1      48.774   4.460  17.043  0.00  0.00    +0.000 A 
ATOM     24  C   UNL     1      48.944   5.631  17.769  0.00  0.00    +0.000 A 
ATOM     25  S   UNL     1      50.391   5.672  18.672  0.00  0.00    +0.000 S 
ATOM     26  C   UNL     1      50.822   4.109  18.154  0.00  0.00    +0.000 A 
ATOM     27  N   UNL     1      51.961   3.513  18.599  0.00  0.00    +0.000 NA
ATOM     28  C   UNL     1      52.144   2.314  18.160  0.00  0.00    +0.000 A 
ATOM     29  N   UNL     1      51.298   1.659  17.303  0.00  0.00    +0.000 N 
ATOM     30  C   UNL     1      50.168   2.242  16.778  0.00  0.00    +0.000 A 
ATOM     31  O   UNL     1      49.492   1.665  15.936  0.00  0.00    +0.000 OA
ATOM     32  C   UNL     1      49.893   3.575  17.279  0.00  0.00    +0.000 A 
ATOM     33  H   UNL     1      51.511   0.730  16.973  0.00  0.00    +0.000 HD
ENDBRANCH  20  23
ENDBRANCH  18  19
ENDBRANCH   6  18
TORSDOF 8
ENDMDL
MODEL 9
REMARK VINA RESULT:    -6.514      3.224      9.236
REMARK INTER + INTRA:         -10.887
REMARK INTER:                  -9.262
REMARK INTRA:                  -1.626
REMARK UNBOUND:                -1.327
REMARK  Name = 
REMARK  9 active torsions:
REMARK  status: ('A' for Active; 'I' for Inactive)
REMARK    1  A    between atoms: C_1  and  O_2
REMARK    2  A    between atoms: O_2  and  C_3
REMARK    3  A    between atoms: C_5  and  C_6
REMARK    4  A    between atoms: C_6  and  O_7
REMARK    5  A    between atoms: O_7  and  C_8
REMARK    6  A    between atoms: C_8  and  C_9
REMARK    7  A    between atoms: C_17  and  C_18
REMARK    8  A    between atoms: C_18  and  N_19
REMARK    9  A    between atoms: C_20  and  C_22
REMARK                            x       y       z     vdW  Elec       q    Type
REMARK                         _______ _______ _______ _____ _____    ______ ____
ROOT
ATOM      1  C   UNL     1      48.405   5.253  17.535  0.00  0.00    +0.000 A 
ATOM      2  C   UNL     1      47.983   5.166  18.866  0.00  0.00    +0.000 A 
ATOM      3  C   UNL     1      47.783   6.321  19.640  0.00  0.00    +0.000 A 
ATOM      4  C   UNL     1      48.006   7.575  19.068  0.00  0.00    +0.000 A 
ATOM      5  C   UNL     1      48.418   7.673  17.741  0.00  0.00    +0.000 A 
ATOM      6  C   UNL     1      48.624   6.520  16.964  0.00  0.00    +0.000 A 
ENDROOT
BRANCH   1   8
ATOM      7  C   UNL     1      47.894   2.998  16.978  0.00  0.00    +0.000 C 
ATOM      8  O   UNL     1      48.665   4.170  16.739  0.00  0.00    +0.000 OA
ENDBRANCH   1   8
BRANCH   3   9
ATOM      9  C   UNL     1      47.394   6.197  21.090  0.00  0.00    +0.000 C 
BRANCH   9  10
ATOM     10  O   UNL     1      48.329   5.388  21.802  0.00  0.00    +0.000 OA
BRANCH  10  11
ATOM     11  C   UNL     1      49.445   6.144  22.285  0.00  0.00    +0.000 C 
BRANCH  11  12
ATOM     12  C   UNL     1      50.593   6.038  21.312  0.00  0.00    +0.000 A 
ATOM     13  C   UNL     1      51.199   7.194  20.819  0.00  0.00    +0.000 A 
ATOM     14  C   UNL     1      52.274   7.070  19.945  0.00  0.00    +0.000 A 
ATOM     15  C   UNL     1      52.718   5.803  19.590  0.00  0.00    +0.000 A 
ATOM     16  C   UNL     1      52.065   4.707  20.129  0.00  0.00    +0.000 A 
ATOM     17  N   UNL     1      51.021   4.794  20.981  0.00  0.00    +0.000 NA
ENDBRANCH  11  12
ENDBRANCH  10  11
ENDBRANCH   9  10
ENDBRANCH   3   9
BRANCH   6  18
ATOM     18  C   UNL     1      48.987   6.690  15.509  0.00  0.00    +0.000 C 
BRANCH  18  19
ATOM     19  N   UNL     1      47.795   6.617  14.696  0.00  0.00    +0.000 N 
ATOM     20  C   UNL     1      47.831   6.308  13.364  0.00  0.00    +0.000 C 
ATOM     21  O   UNL     1      48.880   6.225  12.733  0.00  0.00    +0.000 OA
ATOM     22  H   UNL     1      46.929   6.499  15.211  0.00  0.00    +0.000 HD
BRANCH  20  23
ATOM     23  C   UNL     1      46.529   6.125  12.709  0.00  0.00    +0.000 A 
ATOM     24  C   UNL     1      45.909   7.205  12.092  0.00  0.00    +0.000 A 
ATOM     25  S   UNL     1      44.414   6.813  11.370  0.00  0.00    +0.000 S 
ATOM     26  C   UNL     1      44.562   5.179  11.821  0.00  0.00    +0.000 A 
ATOM     27  N   UNL     1      43.615   4.267  11.470  0.00  0.00    +0.000 NA
ATOM     28  C   UNL     1      43.873   3.058  11.841  0.00  0.00    +0.000 A 
ATOM     29  N   UNL     1      44.987   2.679  12.544  0.00  0.00    +0.000 N 
ATOM     30  C   UNL     1      45.940   3.574  12.975  0.00  0.00    +0.000 A 
ATOM     31  O   UNL     1      46.867   3.214  13.689  0.00  0.00    +0.000 OA
ATOM     32  C   UNL     1      45.718   4.940  12.541  0.00  0.00    +0.000 A 
ATOM     33  H   UNL     1      45.119   1.721  12.830  0.00  0.00    +0.000 HD
ENDBRANCH  20  23
ENDBRANCH  18  19
ENDBRANCH   6  18
TORSDOF 8
ENDMDL
