MODEL 1
REMARK VINA RESULT:    -8.249      0.000      0.000
REMARK INTER + INTRA:         -12.328
REMARK INTER:                 -11.142
REMARK INTRA:                  -1.185
REMARK UNBOUND:                -1.185
REMARK  Name = 
REMARK  7 active torsions:
REMARK  status: ('A' for Active; 'I' for Inactive)
REMARK    1  A    between atoms: C_1  and  O_2
REMARK    2  A    between atoms: O_2  and  C_3
REMARK    3  A    between atoms: C_6  and  N_7
REMARK    4  A    between atoms: N_7  and  C_8
REMARK    5  A    between atoms: C_8  and  C_9
REMARK    6  A    between atoms: C_13  and  C_14
REMARK    7  A    between atoms: C_22  and  C_23
REMARK                            x       y       z     vdW  Elec       q    Type
REMARK                         _______ _______ _______ _____ _____    ______ ____
ROOT
ATOM      1  N   UNL     1      43.835   6.442  12.335  0.00  0.00    +0.000 N 
ATOM      2  H   UNL     1      43.262   5.906  12.976  0.00  0.00    +0.000 HD
ENDROOT
BRANCH   1   6
ATOM      3  C   UNL     1      47.817   6.404  13.583  0.00  0.00    +0.000 A 
ATOM      4  C   UNL     1      47.288   7.335  12.702  0.00  0.00    +0.000 A 
ATOM      5  N   UNL     1      46.021   7.334  12.240  0.00  0.00    +0.000 NA
ATOM      6  C   UNL     1      45.193   6.359  12.649  0.00  0.00    +0.000 A 
ATOM      7  C   UNL     1      45.643   5.352  13.493  0.00  0.00    +0.000 A 
ATOM      8  C   UNL     1      46.964   5.361  13.964  0.00  0.00    +0.000 A 
BRANCH   8   9
ATOM      9  C   UNL     1      47.329   4.257  14.908  0.00  0.00    +0.000 C 
ATOM     10  N   UNL     1      47.581   4.560  16.213  0.00  0.00    +0.000 N 
ATOM     11  O   UNL     1      47.402   3.095  14.529  0.00  0.00    +0.000 OA
ATOM     12  H   UNL     1      47.562   5.512  16.561  0.00  0.00    +0.000 HD
ATOM     13  H   UNL     1      47.808   3.802  16.842  0.00  0.00    +0.000 HD
ENDBRANCH   8   9
BRANCH   3  15
ATOM     14  C   UNL     1      49.411   7.664  14.775  0.00  0.00    +0.000 C 
ATOM     15  O   UNL     1      49.104   6.470  14.048  0.00  0.00    +0.000 OA
ENDBRANCH   3  15
ENDBRANCH   1   6
BRANCH   1  16
ATOM     16  C   UNL     1      43.498   6.201  10.938  0.00  0.00    +0.000 C 
BRANCH  16  17
ATOM     17  C   UNL     1      43.723   4.745  10.623  0.00  0.00    +0.000 A 
ATOM     18  C   UNL     1      43.191   3.721  11.403  0.00  0.00    +0.000 A 
ATOM     19  C   UNL     1      43.513   2.414  11.076  0.00  0.00    +0.000 A 
ATOM     20  N   UNL     1      44.323   2.069  10.050  0.00  0.00    +0.000 NA
ATOM     21  C   UNL     1      44.839   3.064   9.286  0.00  0.00    +0.000 A 
ATOM     22  C   UNL     1      44.553   4.401   9.549  0.00  0.00    +0.000 A 
BRANCH  21  23
ATOM     23  C   UNL     1      45.757   2.655   8.203  0.00  0.00    +0.000 A 
ATOM     24  C   UNL     1      46.310   1.362   8.144  0.00  0.00    +0.000 A 
ATOM     25  C   UNL     1      47.147   0.975   7.091  0.00  0.00    +0.000 A 
ATOM     26  C   UNL     1      47.451   1.878   6.078  0.00  0.00    +0.000 A 
ATOM     27  C   UNL     1      46.927   3.166   6.118  0.00  0.00    +0.000 A 
ATOM     28  C   UNL     1      46.090   3.549   7.170  0.00  0.00    +0.000 A 
ENDBRANCH  21  23
ENDBRANCH  16  17
ENDBRANCH   1  16
TORSDOF 6
ENDMDL
MODEL 2
REMARK VINA RESULT:    -7.840      1.012      1.468
REMARK INTER + INTRA:         -11.775
REMARK INTER:                 -10.728
REMARK INTRA:                  -1.048
REMARK UNBOUND:                -1.185
REMARK  Name = 
REMARK  7 active torsions:
REMARK  status: ('A' for Active; 'I' for Inactive)
REMARK    1  A    between atoms: C_1  and  O_2
REMARK    2  A    between atoms: O_2  and  C_3
REMARK    3  A    between atoms: C_6  and  N_7
REMARK    4  A    between atoms: N_7  and  C_8
REMARK    5  A    between atoms: C_8  and  C_9
REMARK    6  A    between atoms: C_13  and  C_14
REMARK    7  A    between atoms: C_22  and  C_23
REMARK                            x       y       z     vdW  Elec       q    Type
REMARK                         _______ _______ _______ _____ _____    ______ ____
ROOT
ATOM      1  N   UNL     1      46.183   6.758  11.084  0.00  0.00    +0.000 N 
ATOM      2  H   UNL     1      46.306   7.641  10.604  0.00  0.00    +0.000 HD
ENDROOT
BRANCH   1   6
ATOM      3  C   UNL     1      48.285   6.635  14.687  0.00  0.00    +0.000 A 
ATOM      4  C   UNL     1      48.369   7.675  13.774  0.00  0.00    +0.000 A 
ATOM      5  N   UNL     1      47.745   7.711  12.579  0.00  0.00    +0.000 NA
ATOM      6  C   UNL     1      46.983   6.664  12.224  0.00  0.00    +0.000 A 
ATOM      7  C   UNL     1      46.876   5.552  13.049  0.00  0.00    +0.000 A 
ATOM      8  C   UNL     1      47.533   5.523  14.289  0.00  0.00    +0.000 A 
BRANCH   8   9
ATOM      9  C   UNL     1      47.308   4.298  15.120  0.00  0.00    +0.000 C 
ATOM     10  N   UNL     1      46.997   4.443  16.439  0.00  0.00    +0.000 N 
ATOM     11  O   UNL     1      47.397   3.176  14.636  0.00  0.00    +0.000 OA
ATOM     12  H   UNL     1      46.944   5.350  16.886  0.00  0.00    +0.000 HD
ATOM     13  H   UNL     1      46.830   3.607  16.983  0.00  0.00    +0.000 HD
ENDBRANCH   8   9
BRANCH   3  15
ATOM     14  C   UNL     1      50.325   6.897  15.835  0.00  0.00    +0.000 C 
ATOM     15  O   UNL     1      48.915   6.662  15.904  0.00  0.00    +0.000 OA
ENDBRANCH   3  15
ENDBRANCH   1   6
BRANCH   1  16
ATOM     16  C   UNL     1      44.781   6.406  11.271  0.00  0.00    +0.000 C 
BRANCH  16  17
ATOM     17  C   UNL     1      44.557   5.001  10.772  0.00  0.00    +0.000 A 
ATOM     18  C   UNL     1      43.730   4.097  11.434  0.00  0.00    +0.000 A 
ATOM     19  C   UNL     1      43.645   2.806  10.938  0.00  0.00    +0.000 A 
ATOM     20  N   UNL     1      44.323   2.364   9.856  0.00  0.00    +0.000 NA
ATOM     21  C   UNL     1      45.126   3.245   9.207  0.00  0.00    +0.000 A 
ATOM     22  C   UNL     1      45.256   4.561   9.641  0.00  0.00    +0.000 A 
BRANCH  21  23
ATOM     23  C   UNL     1      45.888   2.718   8.057  0.00  0.00    +0.000 A 
ATOM     24  C   UNL     1      46.170   3.507   6.925  0.00  0.00    +0.000 A 
ATOM     25  C   UNL     1      46.927   3.007   5.860  0.00  0.00    +0.000 A 
ATOM     26  C   UNL     1      47.414   1.705   5.904  0.00  0.00    +0.000 A 
ATOM     27  C   UNL     1      47.140   0.900   7.005  0.00  0.00    +0.000 A 
ATOM     28  C   UNL     1      46.385   1.402   8.068  0.00  0.00    +0.000 A 
ENDBRANCH  21  23
ENDBRANCH  16  17
ENDBRANCH   1  16
TORSDOF 6
ENDMDL
MODEL 3
REMARK VINA RESULT:    -7.631      1.763      2.503
REMARK INTER + INTRA:         -11.492
REMARK INTER:                 -10.300
REMARK INTRA:                  -1.193
REMARK UNBOUND:                -1.185
REMARK  Name = 
REMARK  7 active torsions:
REMARK  status: ('A' for Active; 'I' for Inactive)
REMARK    1  A    between atoms: C_1  and  O_2
REMARK    2  A    between atoms: O_2  and  C_3
REMARK    3  A    between atoms: C_6  and  N_7
REMARK    4  A    between atoms: N_7  and  C_8
REMARK    5  A    between atoms: C_8  and  C_9
REMARK    6  A    between atoms: C_13  and  C_14
REMARK    7  A    between atoms: C_22  and  C_23
REMARK                            x       y       z     vdW  Elec       q    Type
REMARK                         _______ _______ _______ _____ _____    ______ ____
ROOT
ATOM      1  N   UNL     1      44.407   6.725  12.631  0.00  0.00    +0.000 N 
ATOM      2  H   UNL     1      44.612   5.870  13.134  0.00  0.00    +0.000 HD
ENDROOT
BRANCH   1   6
ATOM      3  C   UNL     1      47.767   9.195  12.477  0.00  0.00    +0.000 A 
ATOM      4  C   UNL     1      46.487   9.604  12.136  0.00  0.00    +0.000 A 
ATOM      5  N   UNL     1      45.396   8.811  12.123  0.00  0.00    +0.000 NA
ATOM      6  C   UNL     1      45.543   7.518  12.456  0.00  0.00    +0.000 A 
ATOM      7  C   UNL     1      46.795   7.002  12.765  0.00  0.00    +0.000 A 
ATOM      8  C   UNL     1      47.923   7.836  12.772  0.00  0.00    +0.000 A 
BRANCH   8   9
ATOM      9  C   UNL     1      49.213   7.187  13.167  0.00  0.00    +0.000 C 
ATOM     10  N   UNL     1      50.291   7.300  12.339  0.00  0.00    +0.000 N 
ATOM     11  O   UNL     1      49.317   6.565  14.217  0.00  0.00    +0.000 OA
ATOM     12  H   UNL     1      50.240   7.779  11.448  0.00  0.00    +0.000 HD
ATOM     13  H   UNL     1      51.159   6.872  12.628  0.00  0.00    +0.000 HD
ENDBRANCH   8   9
BRANCH   3  15
ATOM     14  C   UNL     1      49.140  10.662  11.246  0.00  0.00    +0.000 C 
ATOM     15  O   UNL     1      48.837  10.051  12.505  0.00  0.00    +0.000 OA
ENDBRANCH   3  15
ENDBRANCH   1   6
BRANCH   1  16
ATOM     16  C   UNL     1      43.610   6.500  11.432  0.00  0.00    +0.000 C 
BRANCH  16  17
ATOM     17  C   UNL     1      43.694   5.043  11.054  0.00  0.00    +0.000 A 
ATOM     18  C   UNL     1      43.078   4.041  11.800  0.00  0.00    +0.000 A 
ATOM     19  C   UNL     1      43.273   2.725  11.414  0.00  0.00    +0.000 A 
ATOM     20  N   UNL     1      44.034   2.350  10.362  0.00  0.00    +0.000 NA
ATOM     21  C   UNL     1      44.632   3.325   9.630  0.00  0.00    +0.000 A 
ATOM     22  C   UNL     1      44.475   4.670   9.953  0.00  0.00    +0.000 A 
BRANCH  21  23
ATOM     23  C   UNL     1      45.494   2.879   8.517  0.00  0.00    +0.000 A 
ATOM     24  C   UNL     1      45.892   3.753   7.488  0.00  0.00    +0.000 A 
ATOM     25  C   UNL     1      46.741   3.328   6.460  0.00  0.00    +0.000 A 
ATOM     26  C   UNL     1      47.205   2.017   6.439  0.00  0.00    +0.000 A 
ATOM     27  C   UNL     1      46.817   1.129   7.438  0.00  0.00    +0.000 A 
ATOM     28  C   UNL     1      45.970   1.557   8.464  0.00  0.00    +0.000 A 
ENDBRANCH  21  23
ENDBRANCH  16  17
ENDBRANCH   1  16
TORSDOF 6
ENDMDL
MODEL 4
REMARK VINA RESULT:    -7.578      1.764      2.154
REMARK INTER + INTRA:         -11.421
REMARK INTER:                 -10.302
REMARK INTRA:                  -1.119
REMARK UNBOUND:                -1.185
REMARK  Name = 
REMARK  7 active torsions:
REMARK  status: ('A' for Active; 'I' for Inactive)
REMARK    1  A    between atoms: C_1  and  O_2
REMARK    2  A    between atoms: O_2  and  C_3
REMARK    3  A    between atoms: C_6  and  N_7
REMARK    4  A    between atoms: N_7  and  C_8
REMARK    5  A    between atoms: C_8  and  C_9
REMARK    6  A    between atoms: C_13  and  C_14
REMARK    7  A    between atoms: C_22  and  C_23
REMARK                            x       y       z     vdW  Elec       q    Type
REMARK                         _______ _______ _______ _____ _____    ______ ____
ROOT
ATOM      1  N   UNL     1      46.619   5.770  12.746  0.00  0.00    +0.000 N 
ATOM      2  H   UNL     1      46.869   6.566  12.172  0.00  0.00    +0.000 HD
ENDROOT
BRANCH   1   6
ATOM      3  C   UNL     1      48.630   5.734  16.403  0.00  0.00    +0.000 A 
ATOM      4  C   UNL     1      48.765   6.734  15.453  0.00  0.00    +0.000 A 
ATOM      5  N   UNL     1      48.172   6.739  14.241  0.00  0.00    +0.000 NA
ATOM      6  C   UNL     1      47.389   5.700  13.909  0.00  0.00    +0.000 A 
ATOM      7  C   UNL     1      47.230   4.626  14.774  0.00  0.00    +0.000 A 
ATOM      8  C   UNL     1      47.855   4.628  16.030  0.00  0.00    +0.000 A 
BRANCH   8   9
ATOM      9  C   UNL     1      47.576   3.444  16.903  0.00  0.00    +0.000 C 
ATOM     10  N   UNL     1      48.620   2.681  17.335  0.00  0.00    +0.000 N 
ATOM     11  O   UNL     1      46.433   3.154  17.235  0.00  0.00    +0.000 OA
ATOM     12  H   UNL     1      49.577   2.867  17.059  0.00  0.00    +0.000 HD
ATOM     13  H   UNL     1      48.417   1.896  17.938  0.00  0.00    +0.000 HD
ENDBRANCH   8   9
BRANCH   3  15
ATOM     14  C   UNL     1      50.661   5.806  17.593  0.00  0.00    +0.000 C 
ATOM     15  O   UNL     1      49.230   5.792  17.634  0.00  0.00    +0.000 OA
ENDBRANCH   3  15
ENDBRANCH   1   6
BRANCH   1  16
ATOM     16  C   UNL     1      45.181   5.639  12.937  0.00  0.00    +0.000 C 
BRANCH  16  17
ATOM     17  C   UNL     1      44.661   4.559  12.023  0.00  0.00    +0.000 A 
ATOM     18  C   UNL     1      43.579   3.750  12.363  0.00  0.00    +0.000 A 
ATOM     19  C   UNL     1      43.221   2.737  11.489  0.00  0.00    +0.000 A 
ATOM     20  N   UNL     1      43.862   2.476  10.328  0.00  0.00    +0.000 NA
ATOM     21  C   UNL     1      44.914   3.266   9.993  0.00  0.00    +0.000 A 
ATOM     22  C   UNL     1      45.327   4.309  10.817  0.00  0.00    +0.000 A 
BRANCH  21  23
ATOM     23  C   UNL     1      45.622   2.925   8.742  0.00  0.00    +0.000 A 
ATOM     24  C   UNL     1      46.077   1.619   8.476  0.00  0.00    +0.000 A 
ATOM     25  C   UNL     1      46.711   1.301   7.270  0.00  0.00    +0.000 A 
ATOM     26  C   UNL     1      46.908   2.286   6.308  0.00  0.00    +0.000 A 
ATOM     27  C   UNL     1      46.479   3.587   6.550  0.00  0.00    +0.000 A 
ATOM     28  C   UNL     1      45.844   3.901   7.755  0.00  0.00    +0.000 A 
ENDBRANCH  21  23
ENDBRANCH  16  17
ENDBRANCH   1  16
TORSDOF 6
ENDMDL
MODEL 5
REMARK VINA RESULT:    -7.472      2.131      3.265
REMARK INTER + INTRA:         -11.278
REMARK INTER:                 -10.153
REMARK INTRA:                  -1.125
REMARK UNBOUND:                -1.185
REMARK  Name = 
REMARK  7 active torsions:
REMARK  status: ('A' for Active; 'I' for Inactive)
REMARK    1  A    between atoms: C_1  and  O_2
REMARK    2  A    between atoms: O_2  and  C_3
REMARK    3  A    between atoms: C_6  and  N_7
REMARK    4  A    between atoms: N_7  and  C_8
REMARK    5  A    between atoms: C_8  and  C_9
REMARK    6  A    between atoms: C_13  and  C_14
REMARK    7  A    between atoms: C_22  and  C_23
REMARK                            x       y       z     vdW  Elec       q    Type
REMARK                         _______ _______ _______ _____ _____    ______ ____
ROOT
ATOM      1  N   UNL     1      44.166   6.618  12.643  0.00  0.00    +0.000 N 
ATOM      2  H   UNL     1      44.137   5.804  13.244  0.00  0.00    +0.000 HD
ENDROOT
BRANCH   1   6
ATOM      3  C   UNL     1      47.948   8.288  12.079  0.00  0.00    +0.000 A 
ATOM      4  C   UNL     1      47.715   6.931  12.242  0.00  0.00    +0.000 A 
ATOM      5  N   UNL     1      46.511   6.374  12.482  0.00  0.00    +0.000 NA
ATOM      6  C   UNL     1      45.442   7.181  12.582  0.00  0.00    +0.000 A 
ATOM      7  C   UNL     1      45.581   8.559  12.483  0.00  0.00    +0.000 A 
ATOM      8  C   UNL     1      46.839   9.128  12.237  0.00  0.00    +0.000 A 
BRANCH   8   9
ATOM      9  C   UNL     1      46.867  10.619  12.098  0.00  0.00    +0.000 C 
ATOM     10  N   UNL     1      47.728  11.338  12.873  0.00  0.00    +0.000 N 
ATOM     11  O   UNL     1      46.137  11.198  11.303  0.00  0.00    +0.000 OA
ATOM     12  H   UNL     1      48.327  10.902  13.565  0.00  0.00    +0.000 HD
ATOM     13  H   UNL     1      47.748  12.342  12.756  0.00  0.00    +0.000 HD
ENDBRANCH   8   9
BRANCH   3  15
ATOM     14  C   UNL     1      50.222   7.817  11.685  0.00  0.00    +0.000 C 
ATOM     15  O   UNL     1      49.189   8.801  11.804  0.00  0.00    +0.000 OA
ENDBRANCH   3  15
ENDBRANCH   1   6
BRANCH   1  16
ATOM     16  C   UNL     1      43.516   6.396  11.357  0.00  0.00    +0.000 C 
BRANCH  16  17
ATOM     17  C   UNL     1      43.639   4.939  10.990  0.00  0.00    +0.000 A 
ATOM     18  C   UNL     1      43.060   3.926  11.750  0.00  0.00    +0.000 A 
ATOM     19  C   UNL     1      43.290   2.613  11.373  0.00  0.00    +0.000 A 
ATOM     20  N   UNL     1      44.053   2.251  10.318  0.00  0.00    +0.000 NA
ATOM     21  C   UNL     1      44.615   3.237   9.574  0.00  0.00    +0.000 A 
ATOM     22  C   UNL     1      44.422   4.579   9.886  0.00  0.00    +0.000 A 
BRANCH  21  23
ATOM     23  C   UNL     1      45.480   2.807   8.457  0.00  0.00    +0.000 A 
ATOM     24  C   UNL     1      45.815   3.672   7.397  0.00  0.00    +0.000 A 
ATOM     25  C   UNL     1      46.667   3.264   6.365  0.00  0.00    +0.000 A 
ATOM     26  C   UNL     1      47.199   1.979   6.371  0.00  0.00    +0.000 A 
ATOM     27  C   UNL     1      46.875   1.100   7.399  0.00  0.00    +0.000 A 
ATOM     28  C   UNL     1      46.025   1.510   8.429  0.00  0.00    +0.000 A 
ENDBRANCH  21  23
ENDBRANCH  16  17
ENDBRANCH   1  16
TORSDOF 6
ENDMDL
MODEL 6
REMARK VINA RESULT:    -6.913      2.571      4.571
REMARK INTER + INTRA:         -10.522
REMARK INTER:                  -9.532
REMARK INTRA:                  -0.990
REMARK UNBOUND:                -1.185
REMARK  Name = 
REMARK  7 active torsions:
REMARK  status: ('A' for Active; 'I' for Inactive)
REMARK    1  A    between atoms: C_1  and  O_2
REMARK    2  A    between atoms: O_2  and  C_3
REMARK    3  A    between atoms: C_6  and  N_7
REMARK    4  A    between atoms: N_7  and  C_8
REMARK    5  A    between atoms: C_8  and  C_9
REMARK    6  A    between atoms: C_13  and  C_14
REMARK    7  A    between atoms: C_22  and  C_23
REMARK                            x       y       z     vdW  Elec       q    Type
REMARK                         _______ _______ _______ _____ _____    ______ ____
ROOT
ATOM      1  N   UNL     1      48.129   7.389  15.008  0.00  0.00    +0.000 N 
ATOM      2  H   UNL     1      47.132   7.374  15.187  0.00  0.00    +0.000 HD
ENDROOT
BRANCH   1   6
ATOM      3  C   UNL     1      50.103   4.681  17.494  0.00  0.00    +0.000 A 
ATOM      4  C   UNL     1      50.738   5.689  16.785  0.00  0.00    +0.000 A 
ATOM      5  N   UNL     1      50.131   6.539  15.932  0.00  0.00    +0.000 NA
ATOM      6  C   UNL     1      48.808   6.410  15.735  0.00  0.00    +0.000 A 
ATOM      7  C   UNL     1      48.092   5.399  16.363  0.00  0.00    +0.000 A 
ATOM      8  C   UNL     1      48.735   4.518  17.245  0.00  0.00    +0.000 A 
BRANCH   8   9
ATOM      9  C   UNL     1      47.859   3.498  17.904  0.00  0.00    +0.000 C 
ATOM     10  N   UNL     1      48.178   3.065  19.157  0.00  0.00    +0.000 N 
ATOM     11  O   UNL     1      46.866   3.053  17.342  0.00  0.00    +0.000 OA
ATOM     12  H   UNL     1      49.006   3.383  19.645  0.00  0.00    +0.000 HD
ATOM     13  H   UNL     1      47.567   2.390  19.596  0.00  0.00    +0.000 HD
ENDBRANCH   8   9
BRANCH   3  15
ATOM     14  C   UNL     1      51.550   2.840  17.755  0.00  0.00    +0.000 C 
ATOM     15  O   UNL     1      50.762   3.863  18.374  0.00  0.00    +0.000 OA
ENDBRANCH   3  15
ENDBRANCH   1   6
BRANCH   1  16
ATOM     16  C   UNL     1      48.447   7.448  13.587  0.00  0.00    +0.000 C 
BRANCH  16  17
ATOM     17  C   UNL     1      47.165   7.414  12.794  0.00  0.00    +0.000 A 
ATOM     18  C   UNL     1      46.189   8.400  12.911  0.00  0.00    +0.000 A 
ATOM     19  C   UNL     1      45.013   8.243  12.197  0.00  0.00    +0.000 A 
ATOM     20  N   UNL     1      44.747   7.186  11.399  0.00  0.00    +0.000 NA
ATOM     21  C   UNL     1      45.699   6.225  11.279  0.00  0.00    +0.000 A 
ATOM     22  C   UNL     1      46.909   6.318  11.961  0.00  0.00    +0.000 A 
BRANCH  21  23
ATOM     23  C   UNL     1      45.359   5.061  10.437  0.00  0.00    +0.000 A 
ATOM     24  C   UNL     1      44.640   3.961  10.943  0.00  0.00    +0.000 A 
ATOM     25  C   UNL     1      44.290   2.881  10.124  0.00  0.00    +0.000 A 
ATOM     26  C   UNL     1      44.657   2.879   8.783  0.00  0.00    +0.000 A 
ATOM     27  C   UNL     1      45.378   3.948   8.260  0.00  0.00    +0.000 A 
ATOM     28  C   UNL     1      45.725   5.026   9.080  0.00  0.00    +0.000 A 
ENDBRANCH  21  23
ENDBRANCH  16  17
ENDBRANCH   1  16
TORSDOF 6
ENDMDL
MODEL 7
REMARK VINA RESULT:    -6.804      1.658      2.973
REMARK INTER + INTRA:         -10.376
REMARK INTER:                  -9.514
REMARK INTRA:                  -0.862
REMARK UNBOUND:                -1.185
REMARK  Name = 
REMARK  7 active torsions:
REMARK  status: ('A' for Active; 'I' for Inactive)
REMARK    1  A    between atoms: C_1  and  O_2
REMARK    2  A    between atoms: O_2  and  C_3
REMARK    3  A    between atoms: C_6  and  N_7
REMARK    4  A    between atoms: N_7  and  C_8
REMARK    5  A    between atoms: C_8  and  C_9
REMARK    6  A    between atoms: C_13  and  C_14
REMARK    7  A    between atoms: C_22  and  C_23
REMARK                            x       y       z     vdW  Elec       q    Type
REMARK                         _______ _______ _______ _____ _____    ______ ____
ROOT
ATOM      1  N   UNL     1      46.974   6.788  12.353  0.00  0.00    +0.000 N 
ATOM      2  H   UNL     1      47.658   7.504  12.138  0.00  0.00    +0.000 HD
ENDROOT
BRANCH   1   6
ATOM      3  C   UNL     1      47.944   4.833  15.910  0.00  0.00    +0.000 A 
ATOM      4  C   UNL     1      46.987   4.383  15.013  0.00  0.00    +0.000 A 
ATOM      5  N   UNL     1      46.616   5.026  13.887  0.00  0.00    +0.000 NA
ATOM      6  C   UNL     1      47.203   6.200  13.598  0.00  0.00    +0.000 A 
ATOM      7  C   UNL     1      48.138   6.757  14.461  0.00  0.00    +0.000 A 
ATOM      8  C   UNL     1      48.513   6.081  15.631  0.00  0.00    +0.000 A 
BRANCH   8   9
ATOM      9  C   UNL     1      49.565   6.748  16.462  0.00  0.00    +0.000 C 
ATOM     10  N   UNL     1      50.373   5.979  17.247  0.00  0.00    +0.000 N 
ATOM     11  O   UNL     1      49.714   7.963  16.446  0.00  0.00    +0.000 OA
ATOM     12  H   UNL     1      50.264   4.974  17.314  0.00  0.00    +0.000 HD
ATOM     13  H   UNL     1      51.090   6.442  17.789  0.00  0.00    +0.000 HD
ENDBRANCH   8   9
BRANCH   3  15
ATOM     14  C   UNL     1      47.374   3.109  17.411  0.00  0.00    +0.000 C 
ATOM     15  O   UNL     1      48.308   4.123  17.024  0.00  0.00    +0.000 OA
ENDBRANCH   3  15
ENDBRANCH   1   6
BRANCH   1  16
ATOM     16  C   UNL     1      45.605   7.222  12.107  0.00  0.00    +0.000 C 
BRANCH  16  17
ATOM     17  C   UNL     1      44.857   6.116  11.409  0.00  0.00    +0.000 A 
ATOM     18  C   UNL     1      43.560   5.752  11.763  0.00  0.00    +0.000 A 
ATOM     19  C   UNL     1      42.983   4.674  11.113  0.00  0.00    +0.000 A 
ATOM     20  N   UNL     1      43.604   3.943  10.160  0.00  0.00    +0.000 NA
ATOM     21  C   UNL     1      44.866   4.299   9.810  0.00  0.00    +0.000 A 
ATOM     22  C   UNL     1      45.508   5.376  10.414  0.00  0.00    +0.000 A 
BRANCH  21  23
ATOM     23  C   UNL     1      45.533   3.452   8.800  0.00  0.00    +0.000 A 
ATOM     24  C   UNL     1      46.193   4.003   7.685  0.00  0.00    +0.000 A 
ATOM     25  C   UNL     1      46.855   3.190   6.757  0.00  0.00    +0.000 A 
ATOM     26  C   UNL     1      46.865   1.810   6.924  0.00  0.00    +0.000 A 
ATOM     27  C   UNL     1      46.211   1.239   8.011  0.00  0.00    +0.000 A 
ATOM     28  C   UNL     1      45.552   2.053   8.937  0.00  0.00    +0.000 A 
ENDBRANCH  21  23
ENDBRANCH  16  17
ENDBRANCH   1  16
TORSDOF 6
ENDMDL
MODEL 8
REMARK VINA RESULT:    -6.679      4.083      8.496
REMARK INTER + INTRA:         -10.207
REMARK INTER:                  -9.325
REMARK INTRA:                  -0.882
REMARK UNBOUND:                -1.185
REMARK  Name = 
REMARK  7 active torsions:
REMARK  status: ('A' for Active; 'I' for Inactive)
REMARK    1  A    between atoms: C_1  and  O_2
REMARK    2  A    between atoms: O_2  and  C_3
REMARK    3  A    between atoms: C_6  and  N_7
REMARK    4  A    between atoms: N_7  and  C_8
REMARK    5  A    between atoms: C_8  and  C_9
REMARK    6  A    between atoms: C_13  and  C_14
REMARK    7  A    between atoms: C_22  and  C_23
REMARK                            x       y       z     vdW  Elec       q    Type
REMARK                         _______ _______ _______ _____ _____    ______ ____
ROOT
ATOM      1  N   UNL     1      47.017   5.020  14.922  0.00  0.00    +0.000 N 
ATOM      2  H   UNL     1      47.972   5.306  14.745  0.00  0.00    +0.000 HD
ENDROOT
BRANCH   1   6
ATOM      3  C   UNL     1      44.551   4.422  11.609  0.00  0.00    +0.000 A 
ATOM      4  C   UNL     1      45.238   3.407  12.259  0.00  0.00    +0.000 A 
ATOM      5  N   UNL     1      46.085   3.583  13.294  0.00  0.00    +0.000 NA
ATOM      6  C   UNL     1      46.297   4.832  13.741  0.00  0.00    +0.000 A 
ATOM      7  C   UNL     1      45.693   5.919  13.124  0.00  0.00    +0.000 A 
ATOM      8  C   UNL     1      44.817   5.725  12.045  0.00  0.00    +0.000 A 
BRANCH   8   9
ATOM      9  C   UNL     1      44.183   6.961  11.487  0.00  0.00    +0.000 C 
ATOM     10  N   UNL     1      42.860   6.934  11.158  0.00  0.00    +0.000 N 
ATOM     11  O   UNL     1      44.827   7.990  11.327  0.00  0.00    +0.000 OA
ATOM     12  H   UNL     1      42.298   6.095  11.246  0.00  0.00    +0.000 HD
ATOM     13  H   UNL     1      42.441   7.781  10.800  0.00  0.00    +0.000 HD
ENDBRANCH   8   9
BRANCH   3  15
ATOM     14  C   UNL     1      44.302   3.923   9.321  0.00  0.00    +0.000 C 
ATOM     15  O   UNL     1      43.676   4.185  10.581  0.00  0.00    +0.000 OA
ENDBRANCH   3  15
ENDBRANCH   1   6
BRANCH   1  16
ATOM     16  C   UNL     1      46.921   3.938  15.894  0.00  0.00    +0.000 C 
BRANCH  16  17
ATOM     17  C   UNL     1      47.969   4.140  16.958  0.00  0.00    +0.000 A 
ATOM     18  C   UNL     1      47.846   5.106  17.953  0.00  0.00    +0.000 A 
ATOM     19  C   UNL     1      48.895   5.266  18.843  0.00  0.00    +0.000 A 
ATOM     20  N   UNL     1      50.039   4.548  18.801  0.00  0.00    +0.000 NA
ATOM     21  C   UNL     1      50.160   3.602  17.835  0.00  0.00    +0.000 A 
ATOM     22  C   UNL     1      49.144   3.379  16.910  0.00  0.00    +0.000 A 
BRANCH  21  23
ATOM     23  C   UNL     1      51.440   2.868  17.788  0.00  0.00    +0.000 A 
ATOM     24  C   UNL     1      52.672   3.500  18.049  0.00  0.00    +0.000 A 
ATOM     25  C   UNL     1      53.874   2.783  18.039  0.00  0.00    +0.000 A 
ATOM     26  C   UNL     1      53.868   1.420  17.764  0.00  0.00    +0.000 A 
ATOM     27  C   UNL     1      52.667   0.773  17.491  0.00  0.00    +0.000 A 
ATOM     28  C   UNL     1      51.468   1.491  17.503  0.00  0.00    +0.000 A 
ENDBRANCH  21  23
ENDBRANCH  16  17
ENDBRANCH   1  16
TORSDOF 6
ENDMDL
MODEL 9
REMARK VINA RESULT:    -6.614      1.819      2.742
REMARK INTER + INTRA:         -10.119
REMARK INTER:                  -9.121
REMARK INTRA:                  -0.999
REMARK UNBOUND:                -1.185
REMARK  Name = 
REMARK  7 active torsions:
REMARK  status: ('A' for Active; 'I' for Inactive)
REMARK    1  A    between atoms: C_1  and  O_2
REMARK    2  A    between atoms: O_2  and  C_3
REMARK    3  A    between atoms: C_6  and  N_7
REMARK    4  A    between atoms: N_7  and  C_8
REMARK    5  A    between atoms: C_8  and  C_9
REMARK    6  A    between atoms: C_13  and  C_14
REMARK    7  A    between atoms: C_22  and  C_23
REMARK                            x       y       z     vdW  Elec       q    Type
REMARK                         _______ _______ _______ _____ _____    ______ ____
ROOT
ATOM      1  N   UNL     1      46.758   6.561  11.393  0.00  0.00    +0.000 N 
ATOM      2  H   UNL     1      47.193   7.214  10.753  0.00  0.00    +0.000 HD
ENDROOT
BRANCH   1   6
ATOM      3  C   UNL     1      48.530   6.998  15.146  0.00  0.00    +0.000 A 
ATOM      4  C   UNL     1      48.168   5.778  14.596  0.00  0.00    +0.000 A 
ATOM      5  N   UNL     1      47.543   5.615  13.411  0.00  0.00    +0.000 NA
ATOM      6  C   UNL     1      47.232   6.710  12.697  0.00  0.00    +0.000 A 
ATOM      7  C   UNL     1      47.509   7.979  13.188  0.00  0.00    +0.000 A 
ATOM      8  C   UNL     1      48.156   8.136  14.422  0.00  0.00    +0.000 A 
BRANCH   8   9
ATOM      9  C   UNL     1      48.451   9.546  14.831  0.00  0.00    +0.000 C 
ATOM     10  N   UNL     1      48.190   9.931  16.113  0.00  0.00    +0.000 N 
ATOM     11  O   UNL     1      48.923  10.353  14.039  0.00  0.00    +0.000 OA
ATOM     12  H   UNL     1      47.771   9.305  16.791  0.00  0.00    +0.000 HD
ATOM     13  H   UNL     1      48.410  10.881  16.379  0.00  0.00    +0.000 HD
ENDBRANCH   8   9
BRANCH   3  15
ATOM     14  C   UNL     1      48.632   6.327  17.401  0.00  0.00    +0.000 C 
ATOM     15  O   UNL     1      49.194   7.106  16.340  0.00  0.00    +0.000 OA
ENDBRANCH   3  15
ENDBRANCH   1   6
BRANCH   1  16
ATOM     16  C   UNL     1      45.308   6.512  11.255  0.00  0.00    +0.000 C 
BRANCH  16  17
ATOM     17  C   UNL     1      44.910   5.156  10.731  0.00  0.00    +0.000 A 
ATOM     18  C   UNL     1      43.955   4.363  11.362  0.00  0.00    +0.000 A 
ATOM     19  C   UNL     1      43.709   3.101  10.846  0.00  0.00    +0.000 A 
ATOM     20  N   UNL     1      44.348   2.584   9.773  0.00  0.00    +0.000 NA
ATOM     21  C   UNL     1      45.276   3.357   9.154  0.00  0.00    +0.000 A 
ATOM     22  C   UNL     1      45.571   4.638   9.610  0.00  0.00    +0.000 A 
BRANCH  21  23
ATOM     23  C   UNL     1      45.988   2.745   8.014  0.00  0.00    +0.000 A 
ATOM     24  C   UNL     1      46.432   1.409   8.043  0.00  0.00    +0.000 A 
ATOM     25  C   UNL     1      47.071   0.830   6.940  0.00  0.00    +0.000 A 
ATOM     26  C   UNL     1      47.282   1.579   5.788  0.00  0.00    +0.000 A 
ATOM     27  C   UNL     1      46.864   2.905   5.737  0.00  0.00    +0.000 A 
ATOM     28  C   UNL     1      46.225   3.480   6.838  0.00  0.00    +0.000 A 
ENDBRANCH  21  23
ENDBRANCH  16  17
ENDBRANCH   1  16
TORSDOF 6
ENDMDL
