MODEL 1
REMARK VINA RESULT:    -8.928      0.000      0.000
REMARK INTER + INTRA:         -13.284
REMARK INTER:                 -12.060
REMARK INTRA:                  -1.224
REMARK UNBOUND:                -1.224
REMARK  Name = 
REMARK  6 active torsions:
REMARK  status: ('A' for Active; 'I' for Inactive)
REMARK    1  A    between atoms: C_2  and  C_4
REMARK    2  A    between atoms: N_8  and  C_9
REMARK    3  A    between atoms: C_9  and  C_10
REMARK    4  A    between atoms: C_15  and  C_16
REMARK    5  A    between atoms: C_20  and  O_21
REMARK    6  A    between atoms: O_21  and  C_22
REMARK                            x       y       z     vdW  Elec       q    Type
REMARK                         _______ _______ _______ _____ _____    ______ ____
ROOT
ATOM      1  C   UNL     1      44.888   4.167  11.946  0.00  0.00    +0.000 A 
ATOM      2  C   UNL     1      45.640   3.442  12.874  0.00  0.00    +0.000 A 
ATOM      3  C   UNL     1      46.656   4.073  13.578  0.00  0.00    +0.000 A 
ATOM      4  F   UNL     1      47.381   3.370  14.457  0.00  0.00    +0.000 F 
ATOM      5  C   UNL     1      46.934   5.424  13.388  0.00  0.00    +0.000 A 
ATOM      6  C   UNL     1      46.175   6.197  12.494  0.00  0.00    +0.000 A 
ATOM      7  C   UNL     1      45.152   5.539  11.780  0.00  0.00    +0.000 A 
ENDROOT
BRANCH   6   8
ATOM      8  C   UNL     1      46.405   7.651  12.332  0.00  0.00    +0.000 A 
ATOM      9  C   UNL     1      47.692   8.179  12.135  0.00  0.00    +0.000 A 
ATOM     10  C   UNL     1      47.893   9.547  11.933  0.00  0.00    +0.000 A 
ATOM     11  C   UNL     1      46.809  10.422  11.921  0.00  0.00    +0.000 A 
ATOM     12  C   UNL     1      45.519   9.928  12.077  0.00  0.00    +0.000 A 
ATOM     13  C   UNL     1      45.331   8.560  12.320  0.00  0.00    +0.000 A 
BRANCH  12  14
ATOM     14  O   UNL     1      44.378  10.669  12.065  0.00  0.00    +0.000 OA
BRANCH  14  15
ATOM     15  C   UNL     1      43.537  10.625  10.919  0.00  0.00    +0.000 C 
ATOM     16  F   UNL     1      42.667   9.595  10.900  0.00  0.00    +0.000 F 
ATOM     17  F   UNL     1      42.820  11.771  10.867  0.00  0.00    +0.000 F 
ATOM     18  F   UNL     1      44.307  10.562   9.811  0.00  0.00    +0.000 F 
ENDBRANCH  14  15
ENDBRANCH  12  14
ENDBRANCH   6   8
BRANCH   1  19
ATOM     19  C   UNL     1      43.794   3.494  11.155  0.00  0.00    +0.000 C 
BRANCH  19  24
ATOM     20  C   UNL     1      46.620   2.342   7.325  0.00  0.00    +0.000 A 
ATOM     21  C   UNL     1      46.048   1.633   8.351  0.00  0.00    +0.000 A 
ATOM     22  N   UNL     1      45.123   2.152   9.187  0.00  0.00    +0.000 NA
ATOM     23  C   UNL     1      44.763   3.428   8.994  0.00  0.00    +0.000 A 
ATOM     24  N   UNL     1      43.792   4.001   9.800  0.00  0.00    +0.000 N 
ATOM     25  N   UNL     1      45.291   4.214   8.044  0.00  0.00    +0.000 NA
ATOM     26  C   UNL     1      46.216   3.654   7.227  0.00  0.00    +0.000 A 
ATOM     27  H   UNL     1      43.878   5.006   9.705  0.00  0.00    +0.000 HD
BRANCH  20  29
ATOM     28  N   UNL     1      48.787   2.469   6.243  0.00  0.00    +0.000 N 
ATOM     29  C   UNL     1      47.615   1.782   6.403  0.00  0.00    +0.000 C 
ATOM     30  O   UNL     1      47.413   0.723   5.824  0.00  0.00    +0.000 OA
ATOM     31  H   UNL     1      49.498   2.014   5.682  0.00  0.00    +0.000 HD
ATOM     32  H   UNL     1      49.101   3.188   6.881  0.00  0.00    +0.000 HD
ENDBRANCH  20  29
ENDBRANCH  19  24
ENDBRANCH   1  19
TORSDOF 6
ENDMDL
MODEL 2
REMARK VINA RESULT:    -8.329      3.364      5.569
REMARK INTER + INTRA:         -12.474
REMARK INTER:                 -11.550
REMARK INTRA:                  -0.924
REMARK UNBOUND:                -1.224
REMARK  Name = 
REMARK  6 active torsions:
REMARK  status: ('A' for Active; 'I' for Inactive)
REMARK    1  A    between atoms: C_2  and  C_4
REMARK    2  A    between atoms: N_8  and  C_9
REMARK    3  A    between atoms: C_9  and  C_10
REMARK    4  A    between atoms: C_15  and  C_16
REMARK    5  A    between atoms: C_20  and  O_21
REMARK    6  A    between atoms: O_21  and  C_22
REMARK                            x       y       z     vdW  Elec       q    Type
REMARK                         _______ _______ _______ _____ _____    ______ ____
ROOT
ATOM      1  C   UNL     1      45.473   5.252  11.949  0.00  0.00    +0.000 A 
ATOM      2  C   UNL     1      46.179   6.335  11.418  0.00  0.00    +0.000 A 
ATOM      3  C   UNL     1      47.240   6.877  12.129  0.00  0.00    +0.000 A 
ATOM      4  F   UNL     1      47.906   7.923  11.620  0.00  0.00    +0.000 F 
ATOM      5  C   UNL     1      47.628   6.354  13.359  0.00  0.00    +0.000 A 
ATOM      6  C   UNL     1      46.970   5.241  13.907  0.00  0.00    +0.000 A 
ATOM      7  C   UNL     1      45.887   4.706  13.178  0.00  0.00    +0.000 A 
ENDROOT
BRANCH   6   8
ATOM      8  C   UNL     1      47.413   4.621  15.178  0.00  0.00    +0.000 A 
ATOM      9  C   UNL     1      47.616   3.236  15.294  0.00  0.00    +0.000 A 
ATOM     10  C   UNL     1      48.083   2.668  16.482  0.00  0.00    +0.000 A 
ATOM     11  C   UNL     1      48.358   3.472  17.586  0.00  0.00    +0.000 A 
ATOM     12  C   UNL     1      48.201   4.851  17.493  0.00  0.00    +0.000 A 
ATOM     13  C   UNL     1      47.694   5.407  16.311  0.00  0.00    +0.000 A 
BRANCH  12  14
ATOM     14  O   UNL     1      48.453   5.747  18.486  0.00  0.00    +0.000 OA
BRANCH  14  15
ATOM     15  C   UNL     1      47.365   6.270  19.237  0.00  0.00    +0.000 C 
ATOM     16  F   UNL     1      47.142   7.589  19.059  0.00  0.00    +0.000 F 
ATOM     17  F   UNL     1      46.239   5.611  18.881  0.00  0.00    +0.000 F 
ATOM     18  F   UNL     1      47.588   6.042  20.549  0.00  0.00    +0.000 F 
ENDBRANCH  14  15
ENDBRANCH  12  14
ENDBRANCH   6   8
BRANCH   1  19
ATOM     19  C   UNL     1      44.302   4.663  11.202  0.00  0.00    +0.000 C 
BRANCH  19  24
ATOM     20  C   UNL     1      46.581   2.365   7.527  0.00  0.00    +0.000 A 
ATOM     21  C   UNL     1      45.867   1.958   8.626  0.00  0.00    +0.000 A 
ATOM     22  N   UNL     1      45.147   2.800   9.397  0.00  0.00    +0.000 NA
ATOM     23  C   UNL     1      45.149   4.097   9.063  0.00  0.00    +0.000 A 
ATOM     24  N   UNL     1      44.400   5.002   9.800  0.00  0.00    +0.000 N 
ATOM     25  N   UNL     1      45.845   4.599   8.032  0.00  0.00    +0.000 NA
ATOM     26  C   UNL     1      46.554   3.719   7.283  0.00  0.00    +0.000 A 
ATOM     27  H   UNL     1      44.758   5.927   9.593  0.00  0.00    +0.000 HD
BRANCH  20  29
ATOM     28  N   UNL     1      48.493   1.943   6.096  0.00  0.00    +0.000 N 
ATOM     29  C   UNL     1      47.354   1.454   6.675  0.00  0.00    +0.000 C 
ATOM     30  O   UNL     1      47.006   0.293   6.514  0.00  0.00    +0.000 OA
ATOM     31  H   UNL     1      49.063   1.271   5.595  0.00  0.00    +0.000 HD
ATOM     32  H   UNL     1      48.951   2.791   6.400  0.00  0.00    +0.000 HD
ENDBRANCH  20  29
ENDBRANCH  19  24
ENDBRANCH   1  19
TORSDOF 6
ENDMDL
MODEL 3
REMARK VINA RESULT:    -8.301      2.971      3.591
REMARK INTER + INTRA:         -12.436
REMARK INTER:                 -11.344
REMARK INTRA:                  -1.092
REMARK UNBOUND:                -1.224
REMARK  Name = 
REMARK  6 active torsions:
REMARK  status: ('A' for Active; 'I' for Inactive)
REMARK    1  A    between atoms: C_2  and  C_4
REMARK    2  A    between atoms: N_8  and  C_9
REMARK    3  A    between atoms: C_9  and  C_10
REMARK    4  A    between atoms: C_15  and  C_16
REMARK    5  A    between atoms: C_20  and  O_21
REMARK    6  A    between atoms: O_21  and  C_22
REMARK                            x       y       z     vdW  Elec       q    Type
REMARK                         _______ _______ _______ _____ _____    ______ ____
ROOT
ATOM      1  C   UNL     1      44.963   4.704  11.878  0.00  0.00    +0.000 A 
ATOM      2  C   UNL     1      45.523   3.917  12.887  0.00  0.00    +0.000 A 
ATOM      3  C   UNL     1      46.621   4.386  13.594  0.00  0.00    +0.000 A 
ATOM      4  F   UNL     1      47.161   3.622  14.552  0.00  0.00    +0.000 F 
ATOM      5  C   UNL     1      47.171   5.637  13.326  0.00  0.00    +0.000 A 
ATOM      6  C   UNL     1      46.611   6.475  12.348  0.00  0.00    +0.000 A 
ATOM      7  C   UNL     1      45.501   5.981  11.632  0.00  0.00    +0.000 A 
ENDROOT
BRANCH   6   8
ATOM      8  C   UNL     1      47.133   7.839  12.099  0.00  0.00    +0.000 A 
ATOM      9  C   UNL     1      46.304   8.971  12.164  0.00  0.00    +0.000 A 
ATOM     10  C   UNL     1      46.816  10.258  11.978  0.00  0.00    +0.000 A 
ATOM     11  C   UNL     1      48.173  10.444  11.722  0.00  0.00    +0.000 A 
ATOM     12  C   UNL     1      49.027   9.348  11.688  0.00  0.00    +0.000 A 
ATOM     13  C   UNL     1      48.498   8.059  11.835  0.00  0.00    +0.000 A 
BRANCH  12  14
ATOM     14  O   UNL     1      50.369   9.394  11.470  0.00  0.00    +0.000 OA
BRANCH  14  15
ATOM     15  C   UNL     1      51.253   9.343  12.584  0.00  0.00    +0.000 C 
ATOM     16  F   UNL     1      51.510   8.100  13.041  0.00  0.00    +0.000 F 
ATOM     17  F   UNL     1      52.431   9.902  12.224  0.00  0.00    +0.000 F 
ATOM     18  F   UNL     1      50.731  10.076  13.591  0.00  0.00    +0.000 F 
ENDBRANCH  14  15
ENDBRANCH  12  14
ENDBRANCH   6   8
BRANCH   1  19
ATOM     19  C   UNL     1      43.782   4.202  11.082  0.00  0.00    +0.000 C 
BRANCH  19  24
ATOM     20  C   UNL     1      46.557   2.405   7.470  0.00  0.00    +0.000 A 
ATOM     21  C   UNL     1      45.842   1.855   8.504  0.00  0.00    +0.000 A 
ATOM     22  N   UNL     1      44.972   2.557   9.261  0.00  0.00    +0.000 NA
ATOM     23  C   UNL     1      44.819   3.857   8.980  0.00  0.00    +0.000 A 
ATOM     24  N   UNL     1      43.914   4.618   9.703  0.00  0.00    +0.000 N 
ATOM     25  N   UNL     1      45.499   4.495   8.016  0.00  0.00    +0.000 NA
ATOM     26  C   UNL     1      46.362   3.754   7.279  0.00  0.00    +0.000 A 
ATOM     27  H   UNL     1      44.155   5.592   9.557  0.00  0.00    +0.000 HD
BRANCH  20  29
ATOM     28  N   UNL     1      48.635   2.280   6.225  0.00  0.00    +0.000 N 
ATOM     29  C   UNL     1      47.493   1.646   6.632  0.00  0.00    +0.000 C 
ATOM     30  O   UNL     1      47.272   0.480   6.336  0.00  0.00    +0.000 OA
ATOM     31  H   UNL     1      49.312   1.708   5.734  0.00  0.00    +0.000 HD
ATOM     32  H   UNL     1      48.980   3.131   6.649  0.00  0.00    +0.000 HD
ENDBRANCH  20  29
ENDBRANCH  19  24
ENDBRANCH   1  19
TORSDOF 6
ENDMDL
MODEL 4
REMARK VINA RESULT:    -8.086      5.694      7.941
REMARK INTER + INTRA:         -12.146
REMARK INTER:                 -11.075
REMARK INTRA:                  -1.071
REMARK UNBOUND:                -1.224
REMARK  Name = 
REMARK  6 active torsions:
REMARK  status: ('A' for Active; 'I' for Inactive)
REMARK    1  A    between atoms: C_2  and  C_4
REMARK    2  A    between atoms: N_8  and  C_9
REMARK    3  A    between atoms: C_9  and  C_10
REMARK    4  A    between atoms: C_15  and  C_16
REMARK    5  A    between atoms: C_20  and  O_21
REMARK    6  A    between atoms: O_21  and  C_22
REMARK                            x       y       z     vdW  Elec       q    Type
REMARK                         _______ _______ _______ _____ _____    ______ ____
ROOT
ATOM      1  C   UNL     1      48.373   6.722  14.511  0.00  0.00    +0.000 A 
ATOM      2  C   UNL     1      49.044   7.576  13.632  0.00  0.00    +0.000 A 
ATOM      3  C   UNL     1      48.646   7.645  12.304  0.00  0.00    +0.000 A 
ATOM      4  F   UNL     1      49.301   8.457  11.463  0.00  0.00    +0.000 F 
ATOM      5  C   UNL     1      47.578   6.888  11.830  0.00  0.00    +0.000 A 
ATOM      6  C   UNL     1      46.853   6.049  12.691  0.00  0.00    +0.000 A 
ATOM      7  C   UNL     1      47.275   5.982  14.036  0.00  0.00    +0.000 A 
ENDROOT
BRANCH   6   8
ATOM      8  C   UNL     1      45.668   5.291  12.226  0.00  0.00    +0.000 A 
ATOM      9  C   UNL     1      44.713   4.788  13.125  0.00  0.00    +0.000 A 
ATOM     10  C   UNL     1      43.572   4.119  12.673  0.00  0.00    +0.000 A 
ATOM     11  C   UNL     1      43.357   3.938  11.308  0.00  0.00    +0.000 A 
ATOM     12  C   UNL     1      44.265   4.455  10.391  0.00  0.00    +0.000 A 
ATOM     13  C   UNL     1      45.426   5.089  10.855  0.00  0.00    +0.000 A 
BRANCH  12  14
ATOM     14  O   UNL     1      44.163   4.366   9.037  0.00  0.00    +0.000 OA
BRANCH  14  15
ATOM     15  C   UNL     1      45.092   3.558   8.326  0.00  0.00    +0.000 C 
ATOM     16  F   UNL     1      45.510   2.462   8.992  0.00  0.00    +0.000 F 
ATOM     17  F   UNL     1      44.511   3.144   7.177  0.00  0.00    +0.000 F 
ATOM     18  F   UNL     1      46.170   4.306   8.005  0.00  0.00    +0.000 F 
ENDBRANCH  14  15
ENDBRANCH  12  14
ENDBRANCH   6   8
BRANCH   1  19
ATOM     19  C   UNL     1      48.806   6.616  15.953  0.00  0.00    +0.000 C 
BRANCH  19  24
ATOM     20  C   UNL     1      51.062   2.514  17.389  0.00  0.00    +0.000 A 
ATOM     21  C   UNL     1      51.361   3.852  17.447  0.00  0.00    +0.000 A 
ATOM     22  N   UNL     1      50.469   4.825  17.164  0.00  0.00    +0.000 NA
ATOM     23  C   UNL     1      49.237   4.446  16.800  0.00  0.00    +0.000 A 
ATOM     24  N   UNL     1      48.271   5.403  16.532  0.00  0.00    +0.000 N 
ATOM     25  N   UNL     1      48.859   3.165  16.677  0.00  0.00    +0.000 NA
ATOM     26  C   UNL     1      49.785   2.220  16.972  0.00  0.00    +0.000 A 
ATOM     27  H   UNL     1      47.536   4.948  16.003  0.00  0.00    +0.000 HD
BRANCH  20  29
ATOM     28  N   UNL     1      51.519   0.258  18.154  0.00  0.00    +0.000 N 
ATOM     29  C   UNL     1      52.021   1.451  17.710  0.00  0.00    +0.000 C 
ATOM     30  O   UNL     1      53.223   1.617  17.555  0.00  0.00    +0.000 OA
ATOM     31  H   UNL     1      52.189  -0.492  18.274  0.00  0.00    +0.000 HD
ATOM     32  H   UNL     1      50.549  -0.009  18.050  0.00  0.00    +0.000 HD
ENDBRANCH  20  29
ENDBRANCH  19  24
ENDBRANCH   1  19
TORSDOF 6
ENDMDL
MODEL 5
REMARK VINA RESULT:    -7.825      2.624      5.490
REMARK INTER + INTRA:         -11.793
REMARK INTER:                 -10.881
REMARK INTRA:                  -0.913
REMARK UNBOUND:                -1.224
REMARK  Name = 
REMARK  6 active torsions:
REMARK  status: ('A' for Active; 'I' for Inactive)
REMARK    1  A    between atoms: C_2  and  C_4
REMARK    2  A    between atoms: N_8  and  C_9
REMARK    3  A    between atoms: C_9  and  C_10
REMARK    4  A    between atoms: C_15  and  C_16
REMARK    5  A    between atoms: C_20  and  O_21
REMARK    6  A    between atoms: O_21  and  C_22
REMARK                            x       y       z     vdW  Elec       q    Type
REMARK                         _______ _______ _______ _____ _____    ______ ____
ROOT
ATOM      1  C   UNL     1      44.927   6.119  11.759  0.00  0.00    +0.000 A 
ATOM      2  C   UNL     1      44.742   7.442  11.350  0.00  0.00    +0.000 A 
ATOM      3  C   UNL     1      45.482   8.454  11.944  0.00  0.00    +0.000 A 
ATOM      4  F   UNL     1      45.292   9.722  11.556  0.00  0.00    +0.000 F 
ATOM      5  C   UNL     1      46.420   8.176  12.935  0.00  0.00    +0.000 A 
ATOM      6  C   UNL     1      46.664   6.855  13.346  0.00  0.00    +0.000 A 
ATOM      7  C   UNL     1      45.897   5.838  12.739  0.00  0.00    +0.000 A 
ENDROOT
BRANCH   6   8
ATOM      8  C   UNL     1      47.708   6.530  14.344  0.00  0.00    +0.000 A 
ATOM      9  C   UNL     1      48.939   7.207  14.374  0.00  0.00    +0.000 A 
ATOM     10  C   UNL     1      49.898   6.928  15.352  0.00  0.00    +0.000 A 
ATOM     11  C   UNL     1      49.649   5.963  16.325  0.00  0.00    +0.000 A 
ATOM     12  C   UNL     1      48.427   5.300  16.345  0.00  0.00    +0.000 A 
ATOM     13  C   UNL     1      47.488   5.558  15.337  0.00  0.00    +0.000 A 
BRANCH  12  14
ATOM     14  O   UNL     1      48.051   4.355  17.250  0.00  0.00    +0.000 OA
BRANCH  14  15
ATOM     15  C   UNL     1      48.058   2.986  16.863  0.00  0.00    +0.000 C 
ATOM     16  F   UNL     1      47.833   2.772  15.550  0.00  0.00    +0.000 F 
ATOM     17  F   UNL     1      49.266   2.459  17.165  0.00  0.00    +0.000 F 
ATOM     18  F   UNL     1      47.121   2.324  17.576  0.00  0.00    +0.000 F 
ENDBRANCH  14  15
ENDBRANCH  12  14
ENDBRANCH   6   8
BRANCH   1  19
ATOM     19  C   UNL     1      44.116   5.006  11.141  0.00  0.00    +0.000 C 
BRANCH  19  24
ATOM     20  C   UNL     1      46.277   2.003   7.933  0.00  0.00    +0.000 A 
ATOM     21  C   UNL     1      45.563   1.827   9.092  0.00  0.00    +0.000 A 
ATOM     22  N   UNL     1      44.879   2.819   9.701  0.00  0.00    +0.000 NA
ATOM     23  C   UNL     1      44.919   4.033   9.136  0.00  0.00    +0.000 A 
ATOM     24  N   UNL     1      44.208   5.081   9.700  0.00  0.00    +0.000 N 
ATOM     25  N   UNL     1      45.619   4.315   8.027  0.00  0.00    +0.000 NA
ATOM     26  C   UNL     1      46.291   3.290   7.447  0.00  0.00    +0.000 A 
ATOM     27  H   UNL     1      44.593   5.941   9.326  0.00  0.00    +0.000 HD
BRANCH  20  29
ATOM     28  N   UNL     1      47.799   1.270   6.193  0.00  0.00    +0.000 N 
ATOM     29  C   UNL     1      47.010   0.927   7.257  0.00  0.00    +0.000 C 
ATOM     30  O   UNL     1      46.940  -0.229   7.651  0.00  0.00    +0.000 OA
ATOM     31  H   UNL     1      48.372   0.530   5.805  0.00  0.00    +0.000 HD
ATOM     32  H   UNL     1      48.088   2.220   5.999  0.00  0.00    +0.000 HD
ENDBRANCH  20  29
ENDBRANCH  19  24
ENDBRANCH   1  19
TORSDOF 6
ENDMDL
MODEL 6
REMARK VINA RESULT:    -7.812      5.411      8.545
REMARK INTER + INTRA:         -11.777
REMARK INTER:                 -10.688
REMARK INTRA:                  -1.089
REMARK UNBOUND:                -1.224
REMARK  Name = 
REMARK  6 active torsions:
REMARK  status: ('A' for Active; 'I' for Inactive)
REMARK    1  A    between atoms: C_2  and  C_4
REMARK    2  A    between atoms: N_8  and  C_9
REMARK    3  A    between atoms: C_9  and  C_10
REMARK    4  A    between atoms: C_15  and  C_16
REMARK    5  A    between atoms: C_20  and  O_21
REMARK    6  A    between atoms: O_21  and  C_22
REMARK                            x       y       z     vdW  Elec       q    Type
REMARK                         _______ _______ _______ _____ _____    ______ ____
ROOT
ATOM      1  C   UNL     1      47.728   7.223  13.329  0.00  0.00    +0.000 A 
ATOM      2  C   UNL     1      47.003   8.412  13.447  0.00  0.00    +0.000 A 
ATOM      3  C   UNL     1      45.781   8.538  12.803  0.00  0.00    +0.000 A 
ATOM      4  F   UNL     1      45.096   9.684  12.911  0.00  0.00    +0.000 F 
ATOM      5  C   UNL     1      45.252   7.494  12.049  0.00  0.00    +0.000 A 
ATOM      6  C   UNL     1      45.930   6.270  11.938  0.00  0.00    +0.000 A 
ATOM      7  C   UNL     1      47.176   6.160  12.591  0.00  0.00    +0.000 A 
ENDROOT
BRANCH   6   8
ATOM      8  C   UNL     1      45.351   5.122  11.203  0.00  0.00    +0.000 A 
ATOM      9  C   UNL     1      44.573   4.147  11.849  0.00  0.00    +0.000 A 
ATOM     10  C   UNL     1      43.989   3.095  11.137  0.00  0.00    +0.000 A 
ATOM     11  C   UNL     1      44.168   2.993   9.760  0.00  0.00    +0.000 A 
ATOM     12  C   UNL     1      44.904   3.961   9.085  0.00  0.00    +0.000 A 
ATOM     13  C   UNL     1      45.519   4.989   9.812  0.00  0.00    +0.000 A 
BRANCH  12  14
ATOM     14  O   UNL     1      45.136   3.990   7.745  0.00  0.00    +0.000 OA
BRANCH  14  15
ATOM     15  C   UNL     1      46.336   3.418   7.239  0.00  0.00    +0.000 C 
ATOM     16  F   UNL     1      46.776   2.340   7.921  0.00  0.00    +0.000 F 
ATOM     17  F   UNL     1      46.124   3.035   5.959  0.00  0.00    +0.000 F 
ATOM     18  F   UNL     1      47.306   4.357   7.241  0.00  0.00    +0.000 F 
ENDBRANCH  14  15
ENDBRANCH  12  14
ENDBRANCH   6   8
BRANCH   1  19
ATOM     19  C   UNL     1      49.070   7.075  14.003  0.00  0.00    +0.000 C 
BRANCH  19  24
ATOM     20  C   UNL     1      48.833   5.246  18.539  0.00  0.00    +0.000 A 
ATOM     21  C   UNL     1      49.468   4.876  17.380  0.00  0.00    +0.000 A 
ATOM     22  N   UNL     1      49.548   5.670  16.291  0.00  0.00    +0.000 NA
ATOM     23  C   UNL     1      48.965   6.873  16.361  0.00  0.00    +0.000 A 
ATOM     24  N   UNL     1      49.046   7.744  15.285  0.00  0.00    +0.000 N 
ATOM     25  N   UNL     1      48.289   7.311  17.434  0.00  0.00    +0.000 NA
ATOM     26  C   UNL     1      48.232   6.483  18.505  0.00  0.00    +0.000 A 
ATOM     27  H   UNL     1      48.319   8.440  15.407  0.00  0.00    +0.000 HD
BRANCH  20  29
ATOM     28  N   UNL     1      48.381   3.090  19.555  0.00  0.00    +0.000 N 
ATOM     29  C   UNL     1      48.754   4.395  19.732  0.00  0.00    +0.000 C 
ATOM     30  O   UNL     1      49.042   4.830  20.838  0.00  0.00    +0.000 OA
ATOM     31  H   UNL     1      48.431   2.497  20.376  0.00  0.00    +0.000 HD
ATOM     32  H   UNL     1      48.389   2.627  18.657  0.00  0.00    +0.000 HD
ENDBRANCH  20  29
ENDBRANCH  19  24
ENDBRANCH   1  19
TORSDOF 6
ENDMDL
MODEL 7
REMARK VINA RESULT:    -7.699      3.506      6.056
REMARK INTER + INTRA:         -11.624
REMARK INTER:                 -10.539
REMARK INTRA:                  -1.085
REMARK UNBOUND:                -1.224
REMARK  Name = 
REMARK  6 active torsions:
REMARK  status: ('A' for Active; 'I' for Inactive)
REMARK    1  A    between atoms: C_2  and  C_4
REMARK    2  A    between atoms: N_8  and  C_9
REMARK    3  A    between atoms: C_9  and  C_10
REMARK    4  A    between atoms: C_15  and  C_16
REMARK    5  A    between atoms: C_20  and  O_21
REMARK    6  A    between atoms: O_21  and  C_22
REMARK                            x       y       z     vdW  Elec       q    Type
REMARK                         _______ _______ _______ _____ _____    ______ ____
ROOT
ATOM      1  C   UNL     1      45.707   5.530  11.927  0.00  0.00    +0.000 A 
ATOM      2  C   UNL     1      46.505   6.499  11.315  0.00  0.00    +0.000 A 
ATOM      3  C   UNL     1      47.600   7.015  11.993  0.00  0.00    +0.000 A 
ATOM      4  F   UNL     1      48.356   7.952  11.405  0.00  0.00    +0.000 F 
ATOM      5  C   UNL     1      47.929   6.575  13.272  0.00  0.00    +0.000 A 
ATOM      6  C   UNL     1      47.176   5.574  13.906  0.00  0.00    +0.000 A 
ATOM      7  C   UNL     1      46.061   5.066  13.207  0.00  0.00    +0.000 A 
ENDROOT
BRANCH   6   8
ATOM      8  C   UNL     1      47.552   5.039  15.235  0.00  0.00    +0.000 A 
ATOM      9  C   UNL     1      47.019   3.835  15.725  0.00  0.00    +0.000 A 
ATOM     10  C   UNL     1      47.418   3.312  16.958  0.00  0.00    +0.000 A 
ATOM     11  C   UNL     1      48.363   3.982  17.732  0.00  0.00    +0.000 A 
ATOM     12  C   UNL     1      48.936   5.157  17.260  0.00  0.00    +0.000 A 
ATOM     13  C   UNL     1      48.500   5.694  16.042  0.00  0.00    +0.000 A 
BRANCH  12  14
ATOM     14  O   UNL     1      49.881   5.894  17.905  0.00  0.00    +0.000 OA
BRANCH  14  15
ATOM     15  C   UNL     1      51.234   5.455  17.885  0.00  0.00    +0.000 C 
ATOM     16  F   UNL     1      51.493   4.474  16.995  0.00  0.00    +0.000 F 
ATOM     17  F   UNL     1      52.024   6.508  17.577  0.00  0.00    +0.000 F 
ATOM     18  F   UNL     1      51.573   5.021  19.118  0.00  0.00    +0.000 F 
ENDBRANCH  14  15
ENDBRANCH  12  14
ENDBRANCH   6   8
BRANCH   1  19
ATOM     19  C   UNL     1      44.498   4.973  11.215  0.00  0.00    +0.000 C 
BRANCH  19  24
ATOM     20  C   UNL     1      46.470   2.143   7.739  0.00  0.00    +0.000 A 
ATOM     21  C   UNL     1      45.715   1.910   8.861  0.00  0.00    +0.000 A 
ATOM     22  N   UNL     1      45.105   2.890   9.562  0.00  0.00    +0.000 NA
ATOM     23  C   UNL     1      45.263   4.148   9.130  0.00  0.00    +0.000 A 
ATOM     24  N   UNL     1      44.631   5.189   9.791  0.00  0.00    +0.000 N 
ATOM     25  N   UNL     1      46.011   4.481   8.068  0.00  0.00    +0.000 NA
ATOM     26  C   UNL     1      46.606   3.467   7.392  0.00  0.00    +0.000 A 
ATOM     27  H   UNL     1      45.098   6.046   9.516  0.00  0.00    +0.000 HD
BRANCH  20  29
ATOM     28  N   UNL     1      46.792  -0.212   7.256  0.00  0.00    +0.000 N 
ATOM     29  C   UNL     1      47.123   1.083   6.963  0.00  0.00    +0.000 C 
ATOM     30  O   UNL     1      47.911   1.351   6.066  0.00  0.00    +0.000 OA
ATOM     31  H   UNL     1      47.177  -0.921   6.643  0.00  0.00    +0.000 HD
ATOM     32  H   UNL     1      45.973  -0.469   7.791  0.00  0.00    +0.000 HD
ENDBRANCH  20  29
ENDBRANCH  19  24
ENDBRANCH   1  19
TORSDOF 6
ENDMDL
MODEL 8
REMARK VINA RESULT:    -6.974      5.875      8.094
REMARK INTER + INTRA:         -10.644
REMARK INTER:                  -9.412
REMARK INTRA:                  -1.232
REMARK UNBOUND:                -1.224
REMARK  Name = 
REMARK  6 active torsions:
REMARK  status: ('A' for Active; 'I' for Inactive)
REMARK    1  A    between atoms: C_2  and  C_4
REMARK    2  A    between atoms: N_8  and  C_9
REMARK    3  A    between atoms: C_9  and  C_10
REMARK    4  A    between atoms: C_15  and  C_16
REMARK    5  A    between atoms: C_20  and  O_21
REMARK    6  A    between atoms: O_21  and  C_22
REMARK                            x       y       z     vdW  Elec       q    Type
REMARK                         _______ _______ _______ _____ _____    ______ ____
ROOT
ATOM      1  C   UNL     1      49.589   7.018  15.571  0.00  0.00    +0.000 A 
ATOM      2  C   UNL     1      50.620   7.608  14.835  0.00  0.00    +0.000 A 
ATOM      3  C   UNL     1      50.407   7.948  13.507  0.00  0.00    +0.000 A 
ATOM      4  F   UNL     1      51.403   8.503  12.803  0.00  0.00    +0.000 F 
ATOM      5  C   UNL     1      49.178   7.725  12.892  0.00  0.00    +0.000 A 
ATOM      6  C   UNL     1      48.105   7.172  13.609  0.00  0.00    +0.000 A 
ATOM      7  C   UNL     1      48.339   6.823  14.956  0.00  0.00    +0.000 A 
ENDROOT
BRANCH   6   8
ATOM      8  C   UNL     1      46.767   6.995  12.997  0.00  0.00    +0.000 A 
ATOM      9  C   UNL     1      46.219   7.954  12.129  0.00  0.00    +0.000 A 
ATOM     10  C   UNL     1      44.979   7.754  11.517  0.00  0.00    +0.000 A 
ATOM     11  C   UNL     1      44.255   6.588  11.757  0.00  0.00    +0.000 A 
ATOM     12  C   UNL     1      44.787   5.603  12.583  0.00  0.00    +0.000 A 
ATOM     13  C   UNL     1      46.012   5.830  13.224  0.00  0.00    +0.000 A 
BRANCH  12  14
ATOM     14  O   UNL     1      44.195   4.415  12.881  0.00  0.00    +0.000 OA
BRANCH  14  15
ATOM     15  C   UNL     1      44.527   3.265  12.113  0.00  0.00    +0.000 C 
ATOM     16  F   UNL     1      44.903   3.526  10.844  0.00  0.00    +0.000 F 
ATOM     17  F   UNL     1      45.549   2.621  12.721  0.00  0.00    +0.000 F 
ATOM     18  F   UNL     1      43.463   2.433  12.086  0.00  0.00    +0.000 F 
ENDBRANCH  14  15
ENDBRANCH  12  14
ENDBRANCH   6   8
BRANCH   1  19
ATOM     19  C   UNL     1      49.807   6.621  17.010  0.00  0.00    +0.000 C 
BRANCH  19  24
ATOM     20  C   UNL     1      51.520   2.066  17.555  0.00  0.00    +0.000 A 
ATOM     21  C   UNL     1      51.958   3.313  17.924  0.00  0.00    +0.000 A 
ATOM     22  N   UNL     1      51.194   4.423  17.839  0.00  0.00    +0.000 NA
ATOM     23  C   UNL     1      49.951   4.282  17.360  0.00  0.00    +0.000 A 
ATOM     24  N   UNL     1      49.112   5.382  17.283  0.00  0.00    +0.000 N 
ATOM     25  N   UNL     1      49.445   3.114  16.938  0.00  0.00    +0.000 NA
ATOM     26  C   UNL     1      50.245   2.024  17.041  0.00  0.00    +0.000 A 
ATOM     27  H   UNL     1      48.364   5.145  16.641  0.00  0.00    +0.000 HD
BRANCH  20  29
ATOM     28  N   UNL     1      51.811  -0.211  18.340  0.00  0.00    +0.000 N 
ATOM     29  C   UNL     1      52.339   0.852  17.659  0.00  0.00    +0.000 C 
ATOM     30  O   UNL     1      53.439   0.785  17.128  0.00  0.00    +0.000 OA
ATOM     31  H   UNL     1      52.348  -1.069  18.313  0.00  0.00    +0.000 HD
ATOM     32  H   UNL     1      50.828  -0.295  18.563  0.00  0.00    +0.000 HD
ENDBRANCH  20  29
ENDBRANCH  19  24
ENDBRANCH   1  19
TORSDOF 6
ENDMDL
MODEL 9
REMARK VINA RESULT:    -6.793      4.681      6.820
REMARK INTER + INTRA:         -10.399
REMARK INTER:                  -9.321
REMARK INTRA:                  -1.078
REMARK UNBOUND:                -1.224
REMARK  Name = 
REMARK  6 active torsions:
REMARK  status: ('A' for Active; 'I' for Inactive)
REMARK    1  A    between atoms: C_2  and  C_4
REMARK    2  A    between atoms: N_8  and  C_9
REMARK    3  A    between atoms: C_9  and  C_10
REMARK    4  A    between atoms: C_15  and  C_16
REMARK    5  A    between atoms: C_20  and  O_21
REMARK    6  A    between atoms: O_21  and  C_22
REMARK                            x       y       z     vdW  Elec       q    Type
REMARK                         _______ _______ _______ _____ _____    ______ ____
ROOT
ATOM      1  C   UNL     1      46.030   4.804  12.860  0.00  0.00    +0.000 A 
ATOM      2  C   UNL     1      45.229   4.000  12.044  0.00  0.00    +0.000 A 
ATOM      3  C   UNL     1      44.345   4.592  11.154  0.00  0.00    +0.000 A 
ATOM      4  F   UNL     1      43.571   3.817  10.382  0.00  0.00    +0.000 F 
ATOM      5  C   UNL     1      44.248   5.977  11.046  0.00  0.00    +0.000 A 
ATOM      6  C   UNL     1      45.064   6.818  11.819  0.00  0.00    +0.000 A 
ATOM      7  C   UNL     1      45.952   6.202  12.726  0.00  0.00    +0.000 A 
ENDROOT
BRANCH   6   8
ATOM      8  C   UNL     1      45.031   8.291  11.666  0.00  0.00    +0.000 A 
ATOM      9  C   UNL     1      46.071   9.107  12.141  0.00  0.00    +0.000 A 
ATOM     10  C   UNL     1      46.055  10.491  11.948  0.00  0.00    +0.000 A 
ATOM     11  C   UNL     1      44.996  11.094  11.273  0.00  0.00    +0.000 A 
ATOM     12  C   UNL     1      43.968  10.311  10.760  0.00  0.00    +0.000 A 
ATOM     13  C   UNL     1      43.973   8.929  10.994  0.00  0.00    +0.000 A 
BRANCH  12  14
ATOM     14  O   UNL     1      42.891  10.771  10.066  0.00  0.00    +0.000 OA
BRANCH  14  15
ATOM     15  C   UNL     1      41.672  11.009  10.760  0.00  0.00    +0.000 C 
ATOM     16  F   UNL     1      41.809  11.195  12.089  0.00  0.00    +0.000 F 
ATOM     17  F   UNL     1      41.094  12.118  10.246  0.00  0.00    +0.000 F 
ATOM     18  F   UNL     1      40.839   9.967  10.553  0.00  0.00    +0.000 F 
ENDBRANCH  14  15
ENDBRANCH  12  14
ENDBRANCH   6   8
BRANCH   1  19
ATOM     19  C   UNL     1      46.982   4.179  13.851  0.00  0.00    +0.000 C 
BRANCH  19  24
ATOM     20  C   UNL     1      48.969   4.419  18.320  0.00  0.00    +0.000 A 
ATOM     21  C   UNL     1      49.216   5.035  17.119  0.00  0.00    +0.000 A 
ATOM     22  N   UNL     1      48.384   4.955  16.058  0.00  0.00    +0.000 NA
ATOM     23  C   UNL     1      47.270   4.224  16.202  0.00  0.00    +0.000 A 
ATOM     24  N   UNL     1      46.363   4.135  15.157  0.00  0.00    +0.000 N 
ATOM     25  N   UNL     1      46.959   3.554  17.321  0.00  0.00    +0.000 NA
ATOM     26  C   UNL     1      47.821   3.662  18.362  0.00  0.00    +0.000 A 
ATOM     27  H   UNL     1      45.773   3.332  15.340  0.00  0.00    +0.000 HD
BRANCH  20  29
ATOM     28  N   UNL     1      49.304   4.351  20.721  0.00  0.00    +0.000 N 
ATOM     29  C   UNL     1      49.860   4.514  19.482  0.00  0.00    +0.000 C 
ATOM     30  O   UNL     1      51.061   4.701  19.343  0.00  0.00    +0.000 OA
ATOM     31  H   UNL     1      49.951   4.320  21.500  0.00  0.00    +0.000 HD
ATOM     32  H   UNL     1      48.390   3.944  20.871  0.00  0.00    +0.000 HD
ENDBRANCH  20  29
ENDBRANCH  19  24
ENDBRANCH   1  19
TORSDOF 6
ENDMDL
