MODEL 1
REMARK VINA RESULT:    -8.256      0.000      0.000
REMARK INTER + INTRA:         -12.599
REMARK INTER:                 -11.635
REMARK INTRA:                  -0.964
REMARK UNBOUND:                -0.964
REMARK  Name = 
REMARK  8 active torsions:
REMARK  status: ('A' for Active; 'I' for Inactive)
REMARK    1  A    between atoms: C_1  and  O_2
REMARK    2  A    between atoms: O_2  and  C_3
REMARK    3  A    between atoms: C_7  and  C_8
REMARK    4  A    between atoms: C_8  and  C_9
REMARK    5  A    between atoms: C_9  and  N_10
REMARK    6  A    between atoms: C_14  and  C_15
REMARK    7  A    between atoms: C_15  and  N_16
REMARK    8  A    between atoms: C_17  and  C_19
REMARK                            x       y       z     vdW  Elec       q    Type
REMARK                         _______ _______ _______ _____ _____    ______ ____
ROOT
ATOM      1  N   UNL     1      44.693   2.812  12.242  0.00  0.00    +0.000 N 
ATOM      2  C   UNL     1      45.577   3.831  12.666  0.00  0.00    +0.000 A 
ATOM      3  C   UNL     1      46.619   3.560  13.542  0.00  0.00    +0.000 A 
ATOM      4  N   UNL     1      47.494   4.484  14.015  0.00  0.00    +0.000 NA
ATOM      5  C   UNL     1      47.264   5.747  13.607  0.00  0.00    +0.000 A 
ATOM      6  N   UNL     1      46.245   6.087  12.786  0.00  0.00    +0.000 NA
ATOM      7  N   UNL     1      45.396   5.116  12.316  0.00  0.00    +0.000 NA
ATOM      8  H   UNL     1      45.204   1.939  12.141  0.00  0.00    +0.000 HD
ENDROOT
BRANCH   1   9
ATOM      9  C   UNL     1      44.001   3.165  10.990  0.00  0.00    +0.000 C 
BRANCH   9  10
ATOM     10  C   UNL     1      44.257   2.101   9.922  0.00  0.00    +0.000 C 
BRANCH  10  15
ATOM     11  C   UNL     1      46.907   1.962   7.381  0.00  0.00    +0.000 A 
ATOM     12  C   UNL     1      47.105   3.275   6.989  0.00  0.00    +0.000 A 
ATOM     13  C   UNL     1      46.357   4.264   7.615  0.00  0.00    +0.000 A 
ATOM     14  C   UNL     1      45.430   3.904   8.593  0.00  0.00    +0.000 A 
ATOM     15  C   UNL     1      45.276   2.558   8.910  0.00  0.00    +0.000 A 
ATOM     16  N   UNL     1      46.018   1.587   8.327  0.00  0.00    +0.000 NA
BRANCH  11  18
ATOM     17  C   UNL     1      47.643   1.136   5.326  0.00  0.00    +0.000 C 
ATOM     18  O   UNL     1      47.669   1.002   6.745  0.00  0.00    +0.000 OA
ENDBRANCH  11  18
ENDBRANCH  10  15
ENDBRANCH   9  10
ENDBRANCH   1   9
BRANCH   5  19
ATOM     19  C   UNL     1      48.185   6.854  14.063  0.00  0.00    +0.000 C 
BRANCH  19  20
ATOM     20  N   UNL     1      48.139   7.074  15.499  0.00  0.00    +0.000 N 
ATOM     21  C   UNL     1      49.166   6.667  16.309  0.00  0.00    +0.000 C 
ATOM     22  O   UNL     1      50.194   6.174  15.851  0.00  0.00    +0.000 OA
ATOM     23  H   UNL     1      47.220   7.234  15.905  0.00  0.00    +0.000 HD
BRANCH  21  24
ATOM     24  C   UNL     1      49.003   6.899  17.749  0.00  0.00    +0.000 A 
ATOM     25  C   UNL     1      49.016   8.197  18.243  0.00  0.00    +0.000 A 
ATOM     26  S   UNL     1      48.795   8.289  19.932  0.00  0.00    +0.000 S 
ATOM     27  C   UNL     1      48.722   6.597  20.071  0.00  0.00    +0.000 A 
ATOM     28  N   UNL     1      48.576   5.993  21.288  0.00  0.00    +0.000 NA
ATOM     29  C   UNL     1      48.564   4.702  21.242  0.00  0.00    +0.000 A 
ATOM     30  N   UNL     1      48.675   3.960  20.098  0.00  0.00    +0.000 N 
ATOM     31  C   UNL     1      48.775   4.523  18.849  0.00  0.00    +0.000 A 
ATOM     32  O   UNL     1      48.790   3.834  17.838  0.00  0.00    +0.000 OA
ATOM     33  C   UNL     1      48.829   5.971  18.839  0.00  0.00    +0.000 A 
ATOM     34  H   UNL     1      48.634   2.951  20.129  0.00  0.00    +0.000 HD
ENDBRANCH  21  24
ENDBRANCH  19  20
ENDBRANCH   5  19
TORSDOF 7
ENDMDL
MODEL 2
REMARK VINA RESULT:    -7.961      2.192      2.658
REMARK INTER + INTRA:         -12.183
REMARK INTER:                 -11.166
REMARK INTRA:                  -1.017
REMARK UNBOUND:                -0.964
REMARK  Name = 
REMARK  8 active torsions:
REMARK  status: ('A' for Active; 'I' for Inactive)
REMARK    1  A    between atoms: C_1  and  O_2
REMARK    2  A    between atoms: O_2  and  C_3
REMARK    3  A    between atoms: C_7  and  C_8
REMARK    4  A    between atoms: C_8  and  C_9
REMARK    5  A    between atoms: C_9  and  N_10
REMARK    6  A    between atoms: C_14  and  C_15
REMARK    7  A    between atoms: C_15  and  N_16
REMARK    8  A    between atoms: C_17  and  C_19
REMARK                            x       y       z     vdW  Elec       q    Type
REMARK                         _______ _______ _______ _____ _____    ______ ____
ROOT
ATOM      1  N   UNL     1      43.936   5.229  10.221  0.00  0.00    +0.000 N 
ATOM      2  C   UNL     1      44.796   5.968  11.065  0.00  0.00    +0.000 A 
ATOM      3  C   UNL     1      44.295   6.896  11.967  0.00  0.00    +0.000 A 
ATOM      4  N   UNL     1      45.052   7.662  12.793  0.00  0.00    +0.000 NA
ATOM      5  C   UNL     1      46.384   7.502  12.656  0.00  0.00    +0.000 A 
ATOM      6  N   UNL     1      46.940   6.645  11.771  0.00  0.00    +0.000 NA
ATOM      7  N   UNL     1      46.134   5.875  10.970  0.00  0.00    +0.000 NA
ATOM      8  H   UNL     1      43.074   5.014  10.717  0.00  0.00    +0.000 HD
ENDROOT
BRANCH   1   9
ATOM      9  C   UNL     1      44.574   3.999   9.719  0.00  0.00    +0.000 C 
BRANCH   9  10
ATOM     10  C   UNL     1      44.889   4.132   8.229  0.00  0.00    +0.000 C 
BRANCH  10  15
ATOM     11  C   UNL     1      46.940   2.047   6.004  0.00  0.00    +0.000 A 
ATOM     12  C   UNL     1      47.181   0.884   6.716  0.00  0.00    +0.000 A 
ATOM     13  C   UNL     1      46.614   0.759   7.977  0.00  0.00    +0.000 A 
ATOM     14  C   UNL     1      45.843   1.804   8.487  0.00  0.00    +0.000 A 
ATOM     15  C   UNL     1      45.670   2.949   7.715  0.00  0.00    +0.000 A 
ATOM     16  N   UNL     1      46.195   3.073   6.474  0.00  0.00    +0.000 NA
BRANCH  11  18
ATOM     17  C   UNL     1      47.103   1.085   3.885  0.00  0.00    +0.000 C 
ATOM     18  O   UNL     1      47.513   2.140   4.751  0.00  0.00    +0.000 OA
ENDBRANCH  11  18
ENDBRANCH  10  15
ENDBRANCH   9  10
ENDBRANCH   1   9
BRANCH   5  19
ATOM     19  C   UNL     1      47.321   8.296  13.535  0.00  0.00    +0.000 C 
BRANCH  19  20
ATOM     20  N   UNL     1      47.692   7.591  14.751  0.00  0.00    +0.000 N 
ATOM     21  C   UNL     1      48.886   6.923  14.843  0.00  0.00    +0.000 C 
ATOM     22  O   UNL     1      49.717   6.958  13.940  0.00  0.00    +0.000 OA
ATOM     23  H   UNL     1      46.934   7.342  15.381  0.00  0.00    +0.000 HD
BRANCH  21  24
ATOM     24  C   UNL     1      49.146   6.210  16.098  0.00  0.00    +0.000 A 
ATOM     25  C   UNL     1      50.168   6.638  16.934  0.00  0.00    +0.000 A 
ATOM     26  S   UNL     1      50.323   5.710  18.358  0.00  0.00    +0.000 S 
ATOM     27  C   UNL     1      49.062   4.673  17.885  0.00  0.00    +0.000 A 
ATOM     28  N   UNL     1      48.695   3.607  18.659  0.00  0.00    +0.000 NA
ATOM     29  C   UNL     1      47.741   2.893  18.160  0.00  0.00    +0.000 A 
ATOM     30  N   UNL     1      47.116   3.146  16.969  0.00  0.00    +0.000 N 
ATOM     31  C   UNL     1      47.418   4.230  16.183  0.00  0.00    +0.000 A 
ATOM     32  O   UNL     1      46.786   4.476  15.164  0.00  0.00    +0.000 OA
ATOM     33  C   UNL     1      48.506   5.051  16.674  0.00  0.00    +0.000 A 
ATOM     34  H   UNL     1      46.359   2.559  16.648  0.00  0.00    +0.000 HD
ENDBRANCH  21  24
ENDBRANCH  19  20
ENDBRANCH   5  19
TORSDOF 7
ENDMDL
MODEL 3
REMARK VINA RESULT:    -7.840      3.652      4.538
REMARK INTER + INTRA:         -12.011
REMARK INTER:                 -11.161
REMARK INTRA:                  -0.850
REMARK UNBOUND:                -0.964
REMARK  Name = 
REMARK  8 active torsions:
REMARK  status: ('A' for Active; 'I' for Inactive)
REMARK    1  A    between atoms: C_1  and  O_2
REMARK    2  A    between atoms: O_2  and  C_3
REMARK    3  A    between atoms: C_7  and  C_8
REMARK    4  A    between atoms: C_8  and  C_9
REMARK    5  A    between atoms: C_9  and  N_10
REMARK    6  A    between atoms: C_14  and  C_15
REMARK    7  A    between atoms: C_15  and  N_16
REMARK    8  A    between atoms: C_17  and  C_19
REMARK                            x       y       z     vdW  Elec       q    Type
REMARK                         _______ _______ _______ _____ _____    ______ ____
ROOT
ATOM      1  N   UNL     1      46.464   5.880  12.656  0.00  0.00    +0.000 N 
ATOM      2  C   UNL     1      46.955   5.401  13.893  0.00  0.00    +0.000 A 
ATOM      3  C   UNL     1      48.020   6.021  14.531  0.00  0.00    +0.000 A 
ATOM      4  N   UNL     1      48.565   5.611  15.704  0.00  0.00    +0.000 NA
ATOM      5  C   UNL     1      48.024   4.491  16.223  0.00  0.00    +0.000 A 
ATOM      6  N   UNL     1      47.011   3.816  15.635  0.00  0.00    +0.000 NA
ATOM      7  N   UNL     1      46.477   4.280  14.458  0.00  0.00    +0.000 NA
ATOM      8  H   UNL     1      46.525   6.895  12.635  0.00  0.00    +0.000 HD
ENDROOT
BRANCH   1   9
ATOM      9  C   UNL     1      45.085   5.431  12.397  0.00  0.00    +0.000 C 
BRANCH   9  10
ATOM     10  C   UNL     1      44.663   5.799  10.974  0.00  0.00    +0.000 C 
BRANCH  10  15
ATOM     11  C   UNL     1      45.828   3.944   8.023  0.00  0.00    +0.000 A 
ATOM     12  C   UNL     1      45.420   2.637   8.231  0.00  0.00    +0.000 A 
ATOM     13  C   UNL     1      44.694   2.353   9.380  0.00  0.00    +0.000 A 
ATOM     14  C   UNL     1      44.418   3.378  10.285  0.00  0.00    +0.000 A 
ATOM     15  C   UNL     1      44.886   4.659  10.012  0.00  0.00    +0.000 A 
ATOM     16  N   UNL     1      45.572   4.955   8.883  0.00  0.00    +0.000 NA
BRANCH  11  18
ATOM     17  C   UNL     1      46.915   3.003   6.186  0.00  0.00    +0.000 C 
ATOM     18  O   UNL     1      46.544   4.196   6.870  0.00  0.00    +0.000 OA
ENDBRANCH  11  18
ENDBRANCH  10  15
ENDBRANCH   9  10
ENDBRANCH   1   9
BRANCH   5  19
ATOM     19  C   UNL     1      48.547   3.952  17.534  0.00  0.00    +0.000 C 
BRANCH  19  20
ATOM     20  N   UNL     1      49.950   3.577  17.474  0.00  0.00    +0.000 N 
ATOM     21  C   UNL     1      50.835   4.000  18.430  0.00  0.00    +0.000 C 
ATOM     22  O   UNL     1      50.469   4.642  19.411  0.00  0.00    +0.000 OA
ATOM     23  H   UNL     1      50.302   3.282  16.567  0.00  0.00    +0.000 HD
BRANCH  21  24
ATOM     24  C   UNL     1      52.236   3.600  18.255  0.00  0.00    +0.000 A 
ATOM     25  C   UNL     1      53.248   4.525  18.473  0.00  0.00    +0.000 A 
ATOM     26  S   UNL     1      54.816   3.892  18.243  0.00  0.00    +0.000 S 
ATOM     27  C   UNL     1      54.197   2.373  17.796  0.00  0.00    +0.000 A 
ATOM     28  N   UNL     1      55.027   1.351  17.428  0.00  0.00    +0.000 NA
ATOM     29  C   UNL     1      54.415   0.266  17.088  0.00  0.00    +0.000 A 
ATOM     30  N   UNL     1      53.056   0.103  17.088  0.00  0.00    +0.000 N 
ATOM     31  C   UNL     1      52.186   1.084  17.495  0.00  0.00    +0.000 A 
ATOM     32  O   UNL     1      50.981   0.881  17.562  0.00  0.00    +0.000 OA
ATOM     33  C   UNL     1      52.813   2.339  17.856  0.00  0.00    +0.000 A 
ATOM     34  H   UNL     1      52.641  -0.783  16.833  0.00  0.00    +0.000 HD
ENDBRANCH  21  24
ENDBRANCH  19  20
ENDBRANCH   5  19
TORSDOF 7
ENDMDL
MODEL 4
REMARK VINA RESULT:    -7.760      3.229      9.017
REMARK INTER + INTRA:         -11.899
REMARK INTER:                 -10.429
REMARK INTRA:                  -1.470
REMARK UNBOUND:                -0.964
REMARK  Name = 
REMARK  8 active torsions:
REMARK  status: ('A' for Active; 'I' for Inactive)
REMARK    1  A    between atoms: C_1  and  O_2
REMARK    2  A    between atoms: O_2  and  C_3
REMARK    3  A    between atoms: C_7  and  C_8
REMARK    4  A    between atoms: C_8  and  C_9
REMARK    5  A    between atoms: C_9  and  N_10
REMARK    6  A    between atoms: C_14  and  C_15
REMARK    7  A    between atoms: C_15  and  N_16
REMARK    8  A    between atoms: C_17  and  C_19
REMARK                            x       y       z     vdW  Elec       q    Type
REMARK                         _______ _______ _______ _____ _____    ______ ____
ROOT
ATOM      1  N   UNL     1      50.461   7.821  16.723  0.00  0.00    +0.000 N 
ATOM      2  C   UNL     1      49.797   7.822  15.475  0.00  0.00    +0.000 A 
ATOM      3  C   UNL     1      49.223   8.979  14.968  0.00  0.00    +0.000 A 
ATOM      4  N   UNL     1      48.549   9.059  13.793  0.00  0.00    +0.000 NA
ATOM      5  C   UNL     1      48.419   7.892  13.130  0.00  0.00    +0.000 A 
ATOM      6  N   UNL     1      48.919   6.722  13.586  0.00  0.00    +0.000 NA
ATOM      7  N   UNL     1      49.612   6.693  14.770  0.00  0.00    +0.000 NA
ATOM      8  H   UNL     1      50.945   8.706  16.852  0.00  0.00    +0.000 HD
ENDROOT
BRANCH   1   9
ATOM      9  C   UNL     1      51.393   6.687  16.855  0.00  0.00    +0.000 C 
BRANCH   9  10
ATOM     10  C   UNL     1      51.003   5.813  18.047  0.00  0.00    +0.000 C 
BRANCH  10  15
ATOM     11  C   UNL     1      48.294   3.672  16.791  0.00  0.00    +0.000 A 
ATOM     12  C   UNL     1      48.836   2.400  16.725  0.00  0.00    +0.000 A 
ATOM     13  C   UNL     1      50.147   2.225  17.147  0.00  0.00    +0.000 A 
ATOM     14  C   UNL     1      50.872   3.326  17.602  0.00  0.00    +0.000 A 
ATOM     15  C   UNL     1      50.258   4.576  17.613  0.00  0.00    +0.000 A 
ATOM     16  N   UNL     1      48.973   4.755  17.230  0.00  0.00    +0.000 NA
BRANCH  11  18
ATOM     17  C   UNL     1      46.893   4.169  14.992  0.00  0.00    +0.000 C 
ATOM     18  O   UNL     1      46.986   3.814  16.369  0.00  0.00    +0.000 OA
ENDBRANCH  11  18
ENDBRANCH  10  15
ENDBRANCH   9  10
ENDBRANCH   1   9
BRANCH   5  19
ATOM     19  C   UNL     1      47.697   7.868  11.804  0.00  0.00    +0.000 C 
BRANCH  19  20
ATOM     20  N   UNL     1      46.961   6.634  11.582  0.00  0.00    +0.000 N 
ATOM     21  C   UNL     1      45.597   6.592  11.716  0.00  0.00    +0.000 C 
ATOM     22  O   UNL     1      44.939   7.602  11.951  0.00  0.00    +0.000 OA
ATOM     23  H   UNL     1      47.493   5.770  11.644  0.00  0.00    +0.000 HD
BRANCH  21  24
ATOM     24  C   UNL     1      44.955   5.289  11.511  0.00  0.00    +0.000 A 
ATOM     25  C   UNL     1      44.219   4.714  12.538  0.00  0.00    +0.000 A 
ATOM     26  S   UNL     1      43.526   3.210  12.127  0.00  0.00    +0.000 S 
ATOM     27  C   UNL     1      44.224   3.250  10.577  0.00  0.00    +0.000 A 
ATOM     28  N   UNL     1      44.053   2.218   9.698  0.00  0.00    +0.000 NA
ATOM     29  C   UNL     1      44.664   2.373   8.570  0.00  0.00    +0.000 A 
ATOM     30  N   UNL     1      45.421   3.463   8.237  0.00  0.00    +0.000 N 
ATOM     31  C   UNL     1      45.582   4.544   9.068  0.00  0.00    +0.000 A 
ATOM     32  O   UNL     1      46.198   5.540   8.710  0.00  0.00    +0.000 OA
ATOM     33  C   UNL     1      44.948   4.412  10.364  0.00  0.00    +0.000 A 
ATOM     34  H   UNL     1      45.854   3.534   7.327  0.00  0.00    +0.000 HD
ENDBRANCH  21  24
ENDBRANCH  19  20
ENDBRANCH   5  19
TORSDOF 7
ENDMDL
MODEL 5
REMARK VINA RESULT:    -7.645      2.284      3.538
REMARK INTER + INTRA:         -11.738
REMARK INTER:                 -10.443
REMARK INTRA:                  -1.295
REMARK UNBOUND:                -0.964
REMARK  Name = 
REMARK  8 active torsions:
REMARK  status: ('A' for Active; 'I' for Inactive)
REMARK    1  A    between atoms: C_1  and  O_2
REMARK    2  A    between atoms: O_2  and  C_3
REMARK    3  A    between atoms: C_7  and  C_8
REMARK    4  A    between atoms: C_8  and  C_9
REMARK    5  A    between atoms: C_9  and  N_10
REMARK    6  A    between atoms: C_14  and  C_15
REMARK    7  A    between atoms: C_15  and  N_16
REMARK    8  A    between atoms: C_17  and  C_19
REMARK                            x       y       z     vdW  Elec       q    Type
REMARK                         _______ _______ _______ _____ _____    ______ ____
ROOT
ATOM      1  N   UNL     1      45.697   5.510  11.926  0.00  0.00    +0.000 N 
ATOM      2  C   UNL     1      46.387   5.367  13.152  0.00  0.00    +0.000 A 
ATOM      3  C   UNL     1      47.551   6.078  13.408  0.00  0.00    +0.000 A 
ATOM      4  N   UNL     1      48.284   5.979  14.545  0.00  0.00    +0.000 NA
ATOM      5  C   UNL     1      47.829   5.081  15.441  0.00  0.00    +0.000 A 
ATOM      6  N   UNL     1      46.725   4.328  15.239  0.00  0.00    +0.000 NA
ATOM      7  N   UNL     1      46.002   4.476  14.081  0.00  0.00    +0.000 NA
ATOM      8  H   UNL     1      45.762   6.474  11.609  0.00  0.00    +0.000 HD
ENDROOT
BRANCH   1   9
ATOM      9  C   UNL     1      44.289   5.086  12.030  0.00  0.00    +0.000 C 
BRANCH   9  10
ATOM     10  C   UNL     1      43.645   5.033  10.644  0.00  0.00    +0.000 C 
BRANCH  10  15
ATOM     11  C   UNL     1      45.755   3.747   7.924  0.00  0.00    +0.000 A 
ATOM     12  C   UNL     1      45.743   2.371   8.074  0.00  0.00    +0.000 A 
ATOM     13  C   UNL     1      44.976   1.831   9.098  0.00  0.00    +0.000 A 
ATOM     14  C   UNL     1      44.264   2.683   9.942  0.00  0.00    +0.000 A 
ATOM     15  C   UNL     1      44.350   4.057   9.736  0.00  0.00    +0.000 A 
ATOM     16  N   UNL     1      45.073   4.595   8.727  0.00  0.00    +0.000 NA
BRANCH  11  18
ATOM     17  C   UNL     1      46.918   3.251   5.964  0.00  0.00    +0.000 C 
ATOM     18  O   UNL     1      46.523   4.254   6.895  0.00  0.00    +0.000 OA
ENDBRANCH  11  18
ENDBRANCH  10  15
ENDBRANCH   9  10
ENDBRANCH   1   9
BRANCH   5  19
ATOM     19  C   UNL     1      48.563   4.899  16.748  0.00  0.00    +0.000 C 
BRANCH  19  20
ATOM     20  N   UNL     1      48.575   6.101  17.564  0.00  0.00    +0.000 N 
ATOM     21  C   UNL     1      47.603   6.326  18.504  0.00  0.00    +0.000 C 
ATOM     22  O   UNL     1      46.734   5.493  18.748  0.00  0.00    +0.000 OA
ATOM     23  H   UNL     1      49.111   6.888  17.207  0.00  0.00    +0.000 HD
BRANCH  21  24
ATOM     24  C   UNL     1      47.682   7.590  19.245  0.00  0.00    +0.000 A 
ATOM     25  C   UNL     1      47.622   7.579  20.632  0.00  0.00    +0.000 A 
ATOM     26  S   UNL     1      47.747   9.129  21.335  0.00  0.00    +0.000 S 
ATOM     27  C   UNL     1      47.838   9.874  19.810  0.00  0.00    +0.000 A 
ATOM     28  N   UNL     1      47.924  11.233  19.691  0.00  0.00    +0.000 NA
ATOM     29  C   UNL     1      47.957  11.659  18.472  0.00  0.00    +0.000 A 
ATOM     30  N   UNL     1      47.921  10.856  17.364  0.00  0.00    +0.000 N 
ATOM     31  C   UNL     1      47.883   9.486  17.435  0.00  0.00    +0.000 A 
ATOM     32  O   UNL     1      47.934   8.792  16.428  0.00  0.00    +0.000 OA
ATOM     33  C   UNL     1      47.809   8.950  18.779  0.00  0.00    +0.000 A 
ATOM     34  H   UNL     1      47.974  11.253  16.436  0.00  0.00    +0.000 HD
ENDBRANCH  21  24
ENDBRANCH  19  20
ENDBRANCH   5  19
TORSDOF 7
ENDMDL
MODEL 6
REMARK VINA RESULT:    -7.455      2.144      2.339
REMARK INTER + INTRA:         -11.470
REMARK INTER:                 -10.407
REMARK INTRA:                  -1.063
REMARK UNBOUND:                -0.964
REMARK  Name = 
REMARK  8 active torsions:
REMARK  status: ('A' for Active; 'I' for Inactive)
REMARK    1  A    between atoms: C_1  and  O_2
REMARK    2  A    between atoms: O_2  and  C_3
REMARK    3  A    between atoms: C_7  and  C_8
REMARK    4  A    between atoms: C_8  and  C_9
REMARK    5  A    between atoms: C_9  and  N_10
REMARK    6  A    between atoms: C_14  and  C_15
REMARK    7  A    between atoms: C_15  and  N_16
REMARK    8  A    between atoms: C_17  and  C_19
REMARK                            x       y       z     vdW  Elec       q    Type
REMARK                         _______ _______ _______ _____ _____    ______ ____
ROOT
ATOM      1  N   UNL     1      44.429   3.480  12.531  0.00  0.00    +0.000 N 
ATOM      2  C   UNL     1      45.472   4.430  12.626  0.00  0.00    +0.000 A 
ATOM      3  C   UNL     1      46.500   4.278  13.546  0.00  0.00    +0.000 A 
ATOM      4  N   UNL     1      47.522   5.154  13.718  0.00  0.00    +0.000 NA
ATOM      5  C   UNL     1      47.465   6.255  12.943  0.00  0.00    +0.000 A 
ATOM      6  N   UNL     1      46.472   6.485  12.055  0.00  0.00    +0.000 NA
ATOM      7  N   UNL     1      45.469   5.561  11.901  0.00  0.00    +0.000 NA
ATOM      8  H   UNL     1      44.799   2.549  12.702  0.00  0.00    +0.000 HD
ENDROOT
BRANCH   1   9
ATOM      9  C   UNL     1      43.742   3.541  11.229  0.00  0.00    +0.000 C 
BRANCH   9  10
ATOM     10  C   UNL     1      44.061   2.297  10.399  0.00  0.00    +0.000 C 
BRANCH  10  15
ATOM     11  C   UNL     1      46.514   1.792   7.710  0.00  0.00    +0.000 A 
ATOM     12  C   UNL     1      46.710   3.045   7.156  0.00  0.00    +0.000 A 
ATOM     13  C   UNL     1      46.031   4.120   7.714  0.00  0.00    +0.000 A 
ATOM     14  C   UNL     1      45.171   3.902   8.791  0.00  0.00    +0.000 A 
ATOM     15  C   UNL     1      45.013   2.606   9.271  0.00  0.00    +0.000 A 
ATOM     16  N   UNL     1      45.688   1.553   8.754  0.00  0.00    +0.000 NA
BRANCH  11  18
ATOM     17  C   UNL     1      47.586   1.012   5.790  0.00  0.00    +0.000 C 
ATOM     18  O   UNL     1      47.206   0.743   7.137  0.00  0.00    +0.000 OA
ENDBRANCH  11  18
ENDBRANCH  10  15
ENDBRANCH   9  10
ENDBRANCH   1   9
BRANCH   5  19
ATOM     19  C   UNL     1      48.559   7.291  13.043  0.00  0.00    +0.000 C 
BRANCH  19  20
ATOM     20  N   UNL     1      49.649   6.883  13.915  0.00  0.00    +0.000 N 
ATOM     21  C   UNL     1      49.779   7.406  15.174  0.00  0.00    +0.000 C 
ATOM     22  O   UNL     1      48.946   8.176  15.644  0.00  0.00    +0.000 OA
ATOM     23  H   UNL     1      50.459   6.466  13.464  0.00  0.00    +0.000 HD
BRANCH  21  24
ATOM     24  C   UNL     1      50.936   6.959  15.957  0.00  0.00    +0.000 A 
ATOM     25  C   UNL     1      52.120   7.683  15.912  0.00  0.00    +0.000 A 
ATOM     26  S   UNL     1      53.357   7.036  16.893  0.00  0.00    +0.000 S 
ATOM     27  C   UNL     1      52.371   5.738  17.377  0.00  0.00    +0.000 A 
ATOM     28  N   UNL     1      52.842   4.765  18.213  0.00  0.00    +0.000 NA
ATOM     29  C   UNL     1      51.991   3.829  18.472  0.00  0.00    +0.000 A 
ATOM     30  N   UNL     1      50.714   3.778  17.981  0.00  0.00    +0.000 N 
ATOM     31  C   UNL     1      50.182   4.756  17.179  0.00  0.00    +0.000 A 
ATOM     32  O   UNL     1      49.011   4.724  16.823  0.00  0.00    +0.000 OA
ATOM     33  C   UNL     1      51.103   5.817  16.825  0.00  0.00    +0.000 A 
ATOM     34  H   UNL     1      50.089   3.027  18.243  0.00  0.00    +0.000 HD
ENDBRANCH  21  24
ENDBRANCH  19  20
ENDBRANCH   5  19
TORSDOF 7
ENDMDL
MODEL 7
REMARK VINA RESULT:    -7.210      2.628      3.310
REMARK INTER + INTRA:         -11.124
REMARK INTER:                 -10.020
REMARK INTRA:                  -1.104
REMARK UNBOUND:                -0.964
REMARK  Name = 
REMARK  8 active torsions:
REMARK  status: ('A' for Active; 'I' for Inactive)
REMARK    1  A    between atoms: C_1  and  O_2
REMARK    2  A    between atoms: O_2  and  C_3
REMARK    3  A    between atoms: C_7  and  C_8
REMARK    4  A    between atoms: C_8  and  C_9
REMARK    5  A    between atoms: C_9  and  N_10
REMARK    6  A    between atoms: C_14  and  C_15
REMARK    7  A    between atoms: C_15  and  N_16
REMARK    8  A    between atoms: C_17  and  C_19
REMARK                            x       y       z     vdW  Elec       q    Type
REMARK                         _______ _______ _______ _____ _____    ______ ____
ROOT
ATOM      1  N   UNL     1      45.660   5.848  11.291  0.00  0.00    +0.000 N 
ATOM      2  C   UNL     1      46.467   6.254  12.378  0.00  0.00    +0.000 A 
ATOM      3  C   UNL     1      46.937   7.557  12.476  0.00  0.00    +0.000 A 
ATOM      4  N   UNL     1      47.735   8.020  13.472  0.00  0.00    +0.000 NA
ATOM      5  C   UNL     1      48.102   7.097  14.383  0.00  0.00    +0.000 A 
ATOM      6  N   UNL     1      47.713   5.804  14.327  0.00  0.00    +0.000 NA
ATOM      7  N   UNL     1      46.889   5.385  13.312  0.00  0.00    +0.000 NA
ATOM      8  H   UNL     1      45.048   6.612  11.016  0.00  0.00    +0.000 HD
ENDROOT
BRANCH   1   9
ATOM      9  C   UNL     1      44.881   4.636  11.602  0.00  0.00    +0.000 C 
BRANCH   9  10
ATOM     10  C   UNL     1      43.989   4.258  10.420  0.00  0.00    +0.000 C 
BRANCH  10  15
ATOM     11  C   UNL     1      46.020   3.422   7.474  0.00  0.00    +0.000 A 
ATOM     12  C   UNL     1      46.185   2.048   7.524  0.00  0.00    +0.000 A 
ATOM     13  C   UNL     1      45.571   1.353   8.556  0.00  0.00    +0.000 A 
ATOM     14  C   UNL     1      44.829   2.054   9.507  0.00  0.00    +0.000 A 
ATOM     15  C   UNL     1      44.733   3.438   9.397  0.00  0.00    +0.000 A 
ATOM     16  N   UNL     1      45.305   4.125   8.381  0.00  0.00    +0.000 NA
BRANCH  11  18
ATOM     17  C   UNL     1      47.103   3.198   5.420  0.00  0.00    +0.000 C 
ATOM     18  O   UNL     1      46.639   4.086   6.433  0.00  0.00    +0.000 OA
ENDBRANCH  11  18
ENDBRANCH  10  15
ENDBRANCH   9  10
ENDBRANCH   1   9
BRANCH   5  19
ATOM     19  C   UNL     1      48.980   7.507  15.542  0.00  0.00    +0.000 C 
BRANCH  19  20
ATOM     20  N   UNL     1      49.891   6.456  15.962  0.00  0.00    +0.000 N 
ATOM     21  C   UNL     1      50.237   6.306  17.280  0.00  0.00    +0.000 C 
ATOM     22  O   UNL     1      49.736   6.998  18.162  0.00  0.00    +0.000 OA
ATOM     23  H   UNL     1      50.493   6.062  15.243  0.00  0.00    +0.000 HD
BRANCH  21  24
ATOM     24  C   UNL     1      51.196   5.241  17.593  0.00  0.00    +0.000 A 
ATOM     25  C   UNL     1      52.462   5.568  18.057  0.00  0.00    +0.000 A 
ATOM     26  S   UNL     1      53.443   4.212  18.389  0.00  0.00    +0.000 S 
ATOM     27  C   UNL     1      52.228   3.139  17.878  0.00  0.00    +0.000 A 
ATOM     28  N   UNL     1      52.434   1.788  17.872  0.00  0.00    +0.000 NA
ATOM     29  C   UNL     1      51.433   1.100  17.432  0.00  0.00    +0.000 A 
ATOM     30  N   UNL     1      50.246   1.632  17.007  0.00  0.00    +0.000 N 
ATOM     31  C   UNL     1      49.976   2.978  17.041  0.00  0.00    +0.000 A 
ATOM     32  O   UNL     1      48.876   3.417  16.732  0.00  0.00    +0.000 OA
ATOM     33  C   UNL     1      51.076   3.806  17.493  0.00  0.00    +0.000 A 
ATOM     34  H   UNL     1      49.493   1.034  16.697  0.00  0.00    +0.000 HD
ENDBRANCH  21  24
ENDBRANCH  19  20
ENDBRANCH   5  19
TORSDOF 7
ENDMDL
MODEL 8
REMARK VINA RESULT:    -7.125      1.796      2.298
REMARK INTER + INTRA:         -11.005
REMARK INTER:                 -10.106
REMARK INTRA:                  -0.899
REMARK UNBOUND:                -0.964
REMARK  Name = 
REMARK  8 active torsions:
REMARK  status: ('A' for Active; 'I' for Inactive)
REMARK    1  A    between atoms: C_1  and  O_2
REMARK    2  A    between atoms: O_2  and  C_3
REMARK    3  A    between atoms: C_7  and  C_8
REMARK    4  A    between atoms: C_8  and  C_9
REMARK    5  A    between atoms: C_9  and  N_10
REMARK    6  A    between atoms: C_14  and  C_15
REMARK    7  A    between atoms: C_15  and  N_16
REMARK    8  A    between atoms: C_17  and  C_19
REMARK                            x       y       z     vdW  Elec       q    Type
REMARK                         _______ _______ _______ _____ _____    ______ ____
ROOT
ATOM      1  N   UNL     1      44.805   6.654  11.689  0.00  0.00    +0.000 N 
ATOM      2  C   UNL     1      46.035   6.812  12.367  0.00  0.00    +0.000 A 
ATOM      3  C   UNL     1      46.427   8.046  12.866  0.00  0.00    +0.000 A 
ATOM      4  N   UNL     1      47.600   8.286  13.505  0.00  0.00    +0.000 NA
ATOM      5  C   UNL     1      48.426   7.225  13.599  0.00  0.00    +0.000 A 
ATOM      6  N   UNL     1      48.123   6.005  13.102  0.00  0.00    +0.000 NA
ATOM      7  N   UNL     1      46.916   5.803  12.480  0.00  0.00    +0.000 NA
ATOM      8  H   UNL     1      44.103   7.258  12.111  0.00  0.00    +0.000 HD
ENDROOT
BRANCH   1   9
ATOM      9  C   UNL     1      44.353   5.252  11.679  0.00  0.00    +0.000 C 
BRANCH   9  10
ATOM     10  C   UNL     1      43.611   4.940  10.379  0.00  0.00    +0.000 C 
BRANCH  10  15
ATOM     11  C   UNL     1      45.780   3.624   7.721  0.00  0.00    +0.000 A 
ATOM     12  C   UNL     1      45.852   2.261   7.952  0.00  0.00    +0.000 A 
ATOM     13  C   UNL     1      45.125   1.738   9.013  0.00  0.00    +0.000 A 
ATOM     14  C   UNL     1      44.368   2.594   9.811  0.00  0.00    +0.000 A 
ATOM     15  C   UNL     1      44.369   3.956   9.524  0.00  0.00    +0.000 A 
ATOM     16  N   UNL     1      45.052   4.476   8.478  0.00  0.00    +0.000 NA
BRANCH  11  18
ATOM     17  C   UNL     1      47.008   3.079   5.813  0.00  0.00    +0.000 C 
ATOM     18  O   UNL     1      46.510   4.115   6.656  0.00  0.00    +0.000 OA
ENDBRANCH  11  18
ENDBRANCH  10  15
ENDBRANCH   9  10
ENDBRANCH   1   9
BRANCH   5  19
ATOM     19  C   UNL     1      49.753   7.377  14.303  0.00  0.00    +0.000 C 
BRANCH  19  20
ATOM     20  N   UNL     1      49.614   7.678  15.718  0.00  0.00    +0.000 N 
ATOM     21  C   UNL     1      49.912   6.740  16.672  0.00  0.00    +0.000 C 
ATOM     22  O   UNL     1      50.380   5.644  16.377  0.00  0.00    +0.000 OA
ATOM     23  H   UNL     1      49.003   8.454  15.959  0.00  0.00    +0.000 HD
BRANCH  21  24
ATOM     24  C   UNL     1      49.697   7.131  18.070  0.00  0.00    +0.000 A 
ATOM     25  C   UNL     1      50.543   8.058  18.664  0.00  0.00    +0.000 A 
ATOM     26  S   UNL     1      50.143   8.412  20.284  0.00  0.00    +0.000 S 
ATOM     27  C   UNL     1      48.854   7.303  20.266  0.00  0.00    +0.000 A 
ATOM     28  N   UNL     1      48.093   7.084  21.380  0.00  0.00    +0.000 NA
ATOM     29  C   UNL     1      47.169   6.195  21.226  0.00  0.00    +0.000 A 
ATOM     30  N   UNL     1      46.928   5.513  20.064  0.00  0.00    +0.000 N 
ATOM     31  C   UNL     1      47.633   5.734  18.908  0.00  0.00    +0.000 A 
ATOM     32  O   UNL     1      47.341   5.168  17.863  0.00  0.00    +0.000 OA
ATOM     33  C   UNL     1      48.709   6.697  19.028  0.00  0.00    +0.000 A 
ATOM     34  H   UNL     1      46.171   4.846  20.004  0.00  0.00    +0.000 HD
ENDBRANCH  21  24
ENDBRANCH  19  20
ENDBRANCH   5  19
TORSDOF 7
ENDMDL
MODEL 9
REMARK VINA RESULT:    -6.885      3.844      9.900
REMARK INTER + INTRA:         -10.666
REMARK INTER:                  -9.300
REMARK INTRA:                  -1.365
REMARK UNBOUND:                -0.964
REMARK  Name = 
REMARK  8 active torsions:
REMARK  status: ('A' for Active; 'I' for Inactive)
REMARK    1  A    between atoms: C_1  and  O_2
REMARK    2  A    between atoms: O_2  and  C_3
REMARK    3  A    between atoms: C_7  and  C_8
REMARK    4  A    between atoms: C_8  and  C_9
REMARK    5  A    between atoms: C_9  and  N_10
REMARK    6  A    between atoms: C_14  and  C_15
REMARK    7  A    between atoms: C_15  and  N_16
REMARK    8  A    between atoms: C_17  and  C_19
REMARK                            x       y       z     vdW  Elec       q    Type
REMARK                         _______ _______ _______ _____ _____    ______ ____
ROOT
ATOM      1  N   UNL     1      50.404   3.989  18.651  0.00  0.00    +0.000 N 
ATOM      2  C   UNL     1      49.902   4.804  17.611  0.00  0.00    +0.000 A 
ATOM      3  C   UNL     1      48.668   4.548  17.029  0.00  0.00    +0.000 A 
ATOM      4  N   UNL     1      48.127   5.266  16.013  0.00  0.00    +0.000 NA
ATOM      5  C   UNL     1      48.903   6.262  15.542  0.00  0.00    +0.000 A 
ATOM      6  N   UNL     1      50.130   6.541  16.035  0.00  0.00    +0.000 NA
ATOM      7  N   UNL     1      50.629   5.801  17.078  0.00  0.00    +0.000 NA
ATOM      8  H   UNL     1      49.637   3.683  19.244  0.00  0.00    +0.000 HD
ENDROOT
BRANCH   1   9
ATOM      9  C   UNL     1      51.439   4.677  19.444  0.00  0.00    +0.000 C 
BRANCH   9  10
ATOM     10  C   UNL     1      51.047   4.705  20.922  0.00  0.00    +0.000 C 
BRANCH  10  15
ATOM     11  C   UNL     1      48.485   7.316  20.581  0.00  0.00    +0.000 A 
ATOM     12  C   UNL     1      47.457   6.930  21.423  0.00  0.00    +0.000 A 
ATOM     13  C   UNL     1      47.624   5.772  22.171  0.00  0.00    +0.000 A 
ATOM     14  C   UNL     1      48.802   5.035  22.037  0.00  0.00    +0.000 A 
ATOM     15  C   UNL     1      49.775   5.482  21.148  0.00  0.00    +0.000 A 
ATOM     16  N   UNL     1      49.636   6.623  20.434  0.00  0.00    +0.000 NA
BRANCH  11  18
ATOM     17  C   UNL     1      49.310   8.684  18.880  0.00  0.00    +0.000 C 
ATOM     18  O   UNL     1      48.291   8.475  19.854  0.00  0.00    +0.000 OA
ENDBRANCH  11  18
ENDBRANCH  10  15
ENDBRANCH   9  10
ENDBRANCH   1   9
BRANCH   5  19
ATOM     19  C   UNL     1      48.393   7.132  14.418  0.00  0.00    +0.000 C 
BRANCH  19  20
ATOM     20  N   UNL     1      47.136   6.662  13.862  0.00  0.00    +0.000 N 
ATOM     21  C   UNL     1      46.911   6.677  12.510  0.00  0.00    +0.000 C 
ATOM     22  O   UNL     1      47.784   7.012  11.714  0.00  0.00    +0.000 OA
ATOM     23  H   UNL     1      46.342   6.633  14.496  0.00  0.00    +0.000 HD
BRANCH  21  24
ATOM     24  C   UNL     1      45.594   6.220  12.055  0.00  0.00    +0.000 A 
ATOM     25  C   UNL     1      44.701   7.129  11.505  0.00  0.00    +0.000 A 
ATOM     26  S   UNL     1      43.225   6.429  11.012  0.00  0.00    +0.000 S 
ATOM     27  C   UNL     1      43.706   4.894  11.561  0.00  0.00    +0.000 A 
ATOM     28  N   UNL     1      42.870   3.817  11.472  0.00  0.00    +0.000 NA
ATOM     29  C   UNL     1      43.359   2.723  11.954  0.00  0.00    +0.000 A 
ATOM     30  N   UNL     1      44.605   2.602  12.508  0.00  0.00    +0.000 N 
ATOM     31  C   UNL     1      45.497   3.644  12.575  0.00  0.00    +0.000 A 
ATOM     32  O   UNL     1      46.633   3.486  13.001  0.00  0.00    +0.000 OA
ATOM     33  C   UNL     1      44.990   4.909  12.081  0.00  0.00    +0.000 A 
ATOM     34  H   UNL     1      44.937   1.709  12.845  0.00  0.00    +0.000 HD
ENDBRANCH  21  24
ENDBRANCH  19  20
ENDBRANCH   5  19
TORSDOF 7
ENDMDL
