MODEL 1
REMARK VINA RESULT:    -5.724      0.000      0.000
REMARK INTER + INTRA:          -7.110
REMARK INTER:                  -6.895
REMARK INTRA:                  -0.215
REMARK UNBOUND:                -0.215
REMARK  Name = 
REMARK  4 active torsions:
REMARK  status: ('A' for Active; 'I' for Inactive)
REMARK    1  A    between atoms: N_1  and  C_2
REMARK    2  A    between atoms: C_2  and  C_3
REMARK    3  A    between atoms: C_6  and  C_7
REMARK    4  A    between atoms: C_8  and  C_9
REMARK                            x       y       z     vdW  Elec       q    Type
REMARK                         _______ _______ _______ _____ _____    ______ ____
ROOT
ATOM      1  C   UNL     1      48.655   4.571  18.394  0.00  0.00    +0.000 A 
ATOM      2  C   UNL     1      49.005   5.544  17.453  0.00  0.00    +0.000 A 
ATOM      3  C   UNL     1      48.412   5.538  16.191  0.00  0.00    +0.000 A 
ATOM      4  C   UNL     1      47.482   4.550  15.909  0.00  0.00    +0.000 A 
ATOM      5  N   UNL     1      47.137   3.575  16.778  0.00  0.00    +0.000 NA
ATOM      6  C   UNL     1      47.732   3.608  17.994  0.00  0.00    +0.000 A 
ENDROOT
BRANCH   4   7
ATOM      7  C   UNL     1      46.762   4.543  14.672  0.00  0.00    +0.000 C 
ATOM      8  C   UNL     1      46.105   4.548  13.665  0.00  0.00    +0.000 C 
BRANCH   8   9
ATOM      9  C   UNL     1      45.268   4.557  12.502  0.00  0.00    +0.000 A 
ATOM     10  C   UNL     1      44.395   5.627  12.280  0.00  0.00    +0.000 A 
ATOM     11  C   UNL     1      43.543   5.622  11.173  0.00  0.00    +0.000 A 
ATOM     12  C   UNL     1      43.562   4.547  10.286  0.00  0.00    +0.000 A 
ATOM     13  C   UNL     1      44.438   3.483  10.506  0.00  0.00    +0.000 A 
ATOM     14 CL   UNL     1      44.453   2.154   9.413  0.00  0.00    +0.000 Cl
ATOM     15  C   UNL     1      45.295   3.485  11.608  0.00  0.00    +0.000 A 
ENDBRANCH   8   9
ENDBRANCH   4   7
BRANCH   1  16
ATOM     16  C   UNL     1      49.250   4.566  19.774  0.00  0.00    +0.000 C 
BRANCH  16  17
ATOM     17  N   UNL     1      48.441   3.786  20.705  0.00  0.00    +0.000 NA
ATOM     18  H   UNL     1      48.029   2.994  20.214  0.00  0.00    +0.000 HD
ATOM     19  H   UNL     1      47.659   4.357  21.029  0.00  0.00    +0.000 HD
ENDBRANCH  16  17
ENDBRANCH   1  16
TORSDOF 4
ENDMDL
MODEL 2
REMARK VINA RESULT:    -5.681      3.876      8.001
REMARK INTER + INTRA:          -7.058
REMARK INTER:                  -6.845
REMARK INTRA:                  -0.213
REMARK UNBOUND:                -0.215
REMARK  Name = 
REMARK  4 active torsions:
REMARK  status: ('A' for Active; 'I' for Inactive)
REMARK    1  A    between atoms: N_1  and  C_2
REMARK    2  A    between atoms: C_2  and  C_3
REMARK    3  A    between atoms: C_6  and  C_7
REMARK    4  A    between atoms: C_8  and  C_9
REMARK                            x       y       z     vdW  Elec       q    Type
REMARK                         _______ _______ _______ _____ _____    ______ ____
ROOT
ATOM      1  C   UNL     1      45.120   4.498  11.130  0.00  0.00    +0.000 A 
ATOM      2  C   UNL     1      45.740   5.677  11.555  0.00  0.00    +0.000 A 
ATOM      3  C   UNL     1      46.334   5.737  12.815  0.00  0.00    +0.000 A 
ATOM      4  C   UNL     1      46.287   4.607  13.616  0.00  0.00    +0.000 A 
ATOM      5  N   UNL     1      45.675   3.458  13.256  0.00  0.00    +0.000 NA
ATOM      6  C   UNL     1      45.106   3.433  12.027  0.00  0.00    +0.000 A 
ENDROOT
BRANCH   4   7
ATOM      7  C   UNL     1      46.961   4.566  14.877  0.00  0.00    +0.000 C 
ATOM      8  C   UNL     1      47.504   4.587  15.949  0.00  0.00    +0.000 C 
BRANCH   8   9
ATOM      9  C   UNL     1      48.132   4.675  17.235  0.00  0.00    +0.000 A 
ATOM     10  C   UNL     1      49.398   4.112  17.432  0.00  0.00    +0.000 A 
ATOM     11  C   UNL     1      49.997   4.153  18.693  0.00  0.00    +0.000 A 
ATOM     12  C   UNL     1      49.333   4.757  19.760  0.00  0.00    +0.000 A 
ATOM     13  C   UNL     1      48.073   5.324  19.559  0.00  0.00    +0.000 A 
ATOM     14 CL   UNL     1      47.253   6.062  20.879  0.00  0.00    +0.000 Cl
ATOM     15  C   UNL     1      47.471   5.289  18.300  0.00  0.00    +0.000 A 
ENDBRANCH   8   9
ENDBRANCH   4   7
BRANCH   1  16
ATOM     16  C   UNL     1      44.498   4.386   9.766  0.00  0.00    +0.000 C 
BRANCH  16  17
ATOM     17  N   UNL     1      45.353   4.968   8.736  0.00  0.00    +0.000 NA
ATOM     18  H   UNL     1      44.893   4.889   7.831  0.00  0.00    +0.000 HD
ATOM     19  H   UNL     1      46.213   4.423   8.668  0.00  0.00    +0.000 HD
ENDBRANCH  16  17
ENDBRANCH   1  16
TORSDOF 4
ENDMDL
MODEL 3
REMARK VINA RESULT:    -5.422      6.345      9.368
REMARK INTER + INTRA:          -6.746
REMARK INTER:                  -6.537
REMARK INTRA:                  -0.209
REMARK UNBOUND:                -0.215
REMARK  Name = 
REMARK  4 active torsions:
REMARK  status: ('A' for Active; 'I' for Inactive)
REMARK    1  A    between atoms: N_1  and  C_2
REMARK    2  A    between atoms: C_2  and  C_3
REMARK    3  A    between atoms: C_6  and  C_7
REMARK    4  A    between atoms: C_8  and  C_9
REMARK                            x       y       z     vdW  Elec       q    Type
REMARK                         _______ _______ _______ _____ _____    ______ ____
ROOT
ATOM      1  C   UNL     1      47.205   1.449   5.338  0.00  0.00    +0.000 A 
ATOM      2  C   UNL     1      47.112   0.771   6.558  0.00  0.00    +0.000 A 
ATOM      3  C   UNL     1      46.599   1.421   7.679  0.00  0.00    +0.000 A 
ATOM      4  C   UNL     1      46.194   2.740   7.544  0.00  0.00    +0.000 A 
ATOM      5  N   UNL     1      46.292   3.440   6.393  0.00  0.00    +0.000 NA
ATOM      6  C   UNL     1      46.796   2.780   5.323  0.00  0.00    +0.000 A 
ENDROOT
BRANCH   4   7
ATOM      7  C   UNL     1      45.566   3.435   8.625  0.00  0.00    +0.000 C 
ATOM      8  C   UNL     1      45.092   4.019   9.564  0.00  0.00    +0.000 C 
BRANCH   8   9
ATOM      9  C   UNL     1      44.584   4.703  10.716  0.00  0.00    +0.000 A 
ATOM     10  C   UNL     1      43.406   4.259  11.327  0.00  0.00    +0.000 A 
ATOM     11  C   UNL     1      42.879   4.947  12.422  0.00  0.00    +0.000 A 
ATOM     12  C   UNL     1      43.529   6.080  12.910  0.00  0.00    +0.000 A 
ATOM     13  C   UNL     1      44.708   6.516  12.304  0.00  0.00    +0.000 A 
ATOM     14 CL   UNL     1      45.503   7.919  12.904  0.00  0.00    +0.000 Cl
ATOM     15  C   UNL     1      45.241   5.830  11.211  0.00  0.00    +0.000 A 
ENDBRANCH   8   9
ENDBRANCH   4   7
BRANCH   1  16
ATOM     16  C   UNL     1      47.722   0.770   4.101  0.00  0.00    +0.000 C 
BRANCH  16  17
ATOM     17  N   UNL     1      46.656   0.529   3.134  0.00  0.00    +0.000 NA
ATOM     18  H   UNL     1      45.766   0.825   3.532  0.00  0.00    +0.000 HD
ATOM     19  H   UNL     1      46.575  -0.474   2.969  0.00  0.00    +0.000 HD
ENDBRANCH  16  17
ENDBRANCH   1  16
TORSDOF 4
ENDMDL
MODEL 4
REMARK VINA RESULT:    -5.057      5.920      9.366
REMARK INTER + INTRA:          -6.307
REMARK INTER:                  -6.095
REMARK INTRA:                  -0.212
REMARK UNBOUND:                -0.215
REMARK  Name = 
REMARK  4 active torsions:
REMARK  status: ('A' for Active; 'I' for Inactive)
REMARK    1  A    between atoms: N_1  and  C_2
REMARK    2  A    between atoms: C_2  and  C_3
REMARK    3  A    between atoms: C_6  and  C_7
REMARK    4  A    between atoms: C_8  and  C_9
REMARK                            x       y       z     vdW  Elec       q    Type
REMARK                         _______ _______ _______ _____ _____    ______ ____
ROOT
ATOM      1  C   UNL     1      47.238   1.192   5.291  0.00  0.00    +0.000 A 
ATOM      2  C   UNL     1      46.989   2.527   4.959  0.00  0.00    +0.000 A 
ATOM      3  C   UNL     1      46.558   3.419   5.940  0.00  0.00    +0.000 A 
ATOM      4  C   UNL     1      46.389   2.943   7.231  0.00  0.00    +0.000 A 
ATOM      5  N   UNL     1      46.591   1.657   7.587  0.00  0.00    +0.000 NA
ATOM      6  C   UNL     1      47.006   0.814   6.612  0.00  0.00    +0.000 A 
ENDROOT
BRANCH   4   7
ATOM      7  C   UNL     1      46.047   3.824   8.305  0.00  0.00    +0.000 C 
ATOM      8  C   UNL     1      45.747   4.515   9.242  0.00  0.00    +0.000 C 
BRANCH   8   9
ATOM      9  C   UNL     1      45.367   5.284  10.391  0.00  0.00    +0.000 A 
ATOM     10  C   UNL     1      46.023   6.488  10.672  0.00  0.00    +0.000 A 
ATOM     11  C   UNL     1      45.690   7.220  11.813  0.00  0.00    +0.000 A 
ATOM     12  C   UNL     1      44.702   6.752  12.677  0.00  0.00    +0.000 A 
ATOM     13  C   UNL     1      44.044   5.554  12.391  0.00  0.00    +0.000 A 
ATOM     14 CL   UNL     1      42.829   4.975  13.464  0.00  0.00    +0.000 Cl
ATOM     15  C   UNL     1      44.370   4.820  11.250  0.00  0.00    +0.000 A 
ENDBRANCH   8   9
ENDBRANCH   4   7
BRANCH   1  16
ATOM     16  C   UNL     1      47.734   0.209   4.267  0.00  0.00    +0.000 C 
BRANCH  16  17
ATOM     17  N   UNL     1      47.044   0.368   2.991  0.00  0.00    +0.000 NA
ATOM     18  H   UNL     1      46.177   0.883   3.138  0.00  0.00    +0.000 HD
ATOM     19  H   UNL     1      46.773  -0.551   2.640  0.00  0.00    +0.000 HD
ENDBRANCH  16  17
ENDBRANCH   1  16
TORSDOF 4
ENDMDL
MODEL 5
REMARK VINA RESULT:    -5.015      5.627      7.679
REMARK INTER + INTRA:          -6.256
REMARK INTER:                  -6.048
REMARK INTRA:                  -0.208
REMARK UNBOUND:                -0.215
REMARK  Name = 
REMARK  4 active torsions:
REMARK  status: ('A' for Active; 'I' for Inactive)
REMARK    1  A    between atoms: N_1  and  C_2
REMARK    2  A    between atoms: C_2  and  C_3
REMARK    3  A    between atoms: C_6  and  C_7
REMARK    4  A    between atoms: C_8  and  C_9
REMARK                            x       y       z     vdW  Elec       q    Type
REMARK                         _______ _______ _______ _____ _____    ______ ____
ROOT
ATOM      1  C   UNL     1      44.410   4.330  11.845  0.00  0.00    +0.000 A 
ATOM      2  C   UNL     1      45.152   4.529  13.013  0.00  0.00    +0.000 A 
ATOM      3  C   UNL     1      46.231   5.412  13.011  0.00  0.00    +0.000 A 
ATOM      4  C   UNL     1      46.536   6.071  11.830  0.00  0.00    +0.000 A 
ATOM      5  N   UNL     1      45.864   5.886  10.673  0.00  0.00    +0.000 NA
ATOM      6  C   UNL     1      44.823   5.020  10.708  0.00  0.00    +0.000 A 
ENDROOT
BRANCH   4   7
ATOM      7  C   UNL     1      47.565   7.064  11.782  0.00  0.00    +0.000 C 
ATOM      8  C   UNL     1      48.445   7.877  11.686  0.00  0.00    +0.000 C 
BRANCH   8   9
ATOM      9  C   UNL     1      49.515   8.816  11.516  0.00  0.00    +0.000 A 
ATOM     10  C   UNL     1      49.232  10.181  11.401  0.00  0.00    +0.000 A 
ATOM     11  C   UNL     1      50.265  11.098  11.190  0.00  0.00    +0.000 A 
ATOM     12  C   UNL     1      51.582  10.652  11.093  0.00  0.00    +0.000 A 
ATOM     13  C   UNL     1      51.862   9.290  11.215  0.00  0.00    +0.000 A 
ATOM     14 CL   UNL     1      53.488   8.742  11.087  0.00  0.00    +0.000 Cl
ATOM     15  C   UNL     1      50.835   8.370  11.430  0.00  0.00    +0.000 A 
ENDBRANCH   8   9
ENDBRANCH   4   7
BRANCH   1  16
ATOM     16  C   UNL     1      43.221   3.410  11.818  0.00  0.00    +0.000 C 
BRANCH  16  17
ATOM     17  N   UNL     1      43.523   2.123  12.437  0.00  0.00    +0.000 NA
ATOM     18  H   UNL     1      44.331   1.707  11.975  0.00  0.00    +0.000 HD
ATOM     19  H   UNL     1      42.744   1.484  12.277  0.00  0.00    +0.000 HD
ENDBRANCH  16  17
ENDBRANCH   1  16
TORSDOF 4
ENDMDL
MODEL 6
REMARK VINA RESULT:    -4.832      3.927      7.925
REMARK INTER + INTRA:          -6.036
REMARK INTER:                  -5.817
REMARK INTRA:                  -0.219
REMARK UNBOUND:                -0.215
REMARK  Name = 
REMARK  4 active torsions:
REMARK  status: ('A' for Active; 'I' for Inactive)
REMARK    1  A    between atoms: N_1  and  C_2
REMARK    2  A    between atoms: C_2  and  C_3
REMARK    3  A    between atoms: C_6  and  C_7
REMARK    4  A    between atoms: C_8  and  C_9
REMARK                            x       y       z     vdW  Elec       q    Type
REMARK                         _______ _______ _______ _____ _____    ______ ____
ROOT
ATOM      1  C   UNL     1      44.892   4.117  11.055  0.00  0.00    +0.000 A 
ATOM      2  C   UNL     1      45.416   5.413  11.014  0.00  0.00    +0.000 A 
ATOM      3  C   UNL     1      46.201   5.881  12.067  0.00  0.00    +0.000 A 
ATOM      4  C   UNL     1      46.438   5.030  13.135  0.00  0.00    +0.000 A 
ATOM      5  N   UNL     1      45.928   3.783  13.228  0.00  0.00    +0.000 NA
ATOM      6  C   UNL     1      45.168   3.359  12.190  0.00  0.00    +0.000 A 
ENDROOT
BRANCH   4   7
ATOM      7  C   UNL     1      47.315   5.408  14.201  0.00  0.00    +0.000 C 
ATOM      8  C   UNL     1      48.007   5.757  15.120  0.00  0.00    +0.000 C 
BRANCH   8   9
ATOM      9  C   UNL     1      48.782   6.214  16.236  0.00  0.00    +0.000 A 
ATOM     10  C   UNL     1      48.978   7.585  16.433  0.00  0.00    +0.000 A 
ATOM     11  C   UNL     1      49.769   8.037  17.492  0.00  0.00    +0.000 A 
ATOM     12  C   UNL     1      50.367   7.120  18.355  0.00  0.00    +0.000 A 
ATOM     13  C   UNL     1      50.164   5.753  18.159  0.00  0.00    +0.000 A 
ATOM     14 CL   UNL     1      50.910   4.623  19.223  0.00  0.00    +0.000 Cl
ATOM     15  C   UNL     1      49.371   5.295  17.106  0.00  0.00    +0.000 A 
ENDBRANCH   8   9
ENDBRANCH   4   7
BRANCH   1  16
ATOM     16  C   UNL     1      44.068   3.569   9.923  0.00  0.00    +0.000 C 
BRANCH  16  17
ATOM     17  N   UNL     1      44.176   4.399   8.728  0.00  0.00    +0.000 NA
ATOM     18  H   UNL     1      43.321   4.942   8.616  0.00  0.00    +0.000 HD
ATOM     19  H   UNL     1      44.240   3.797   7.907  0.00  0.00    +0.000 HD
ENDBRANCH  16  17
ENDBRANCH   1  16
TORSDOF 4
ENDMDL
MODEL 7
REMARK VINA RESULT:    -4.567      4.269      5.150
REMARK INTER + INTRA:          -5.716
REMARK INTER:                  -5.509
REMARK INTRA:                  -0.207
REMARK UNBOUND:                -0.215
REMARK  Name = 
REMARK  4 active torsions:
REMARK  status: ('A' for Active; 'I' for Inactive)
REMARK    1  A    between atoms: N_1  and  C_2
REMARK    2  A    between atoms: C_2  and  C_3
REMARK    3  A    between atoms: C_6  and  C_7
REMARK    4  A    between atoms: C_8  and  C_9
REMARK                            x       y       z     vdW  Elec       q    Type
REMARK                         _______ _______ _______ _____ _____    ______ ____
ROOT
ATOM      1  C   UNL     1      49.094  10.274  14.196  0.00  0.00    +0.000 A 
ATOM      2  C   UNL     1      48.689  10.597  12.898  0.00  0.00    +0.000 A 
ATOM      3  C   UNL     1      48.023   9.651  12.120  0.00  0.00    +0.000 A 
ATOM      4  C   UNL     1      47.783   8.402  12.670  0.00  0.00    +0.000 A 
ATOM      5  N   UNL     1      48.182   8.039  13.909  0.00  0.00    +0.000 NA
ATOM      6  C   UNL     1      48.828   8.980  14.638  0.00  0.00    +0.000 A 
ENDROOT
BRANCH   4   7
ATOM      7  C   UNL     1      47.018   7.418  11.967  0.00  0.00    +0.000 C 
ATOM      8  C   UNL     1      46.404   6.548  11.408  0.00  0.00    +0.000 C 
BRANCH   8   9
ATOM      9  C   UNL     1      45.712   5.467  10.772  0.00  0.00    +0.000 A 
ATOM     10  C   UNL     1      45.812   5.292   9.388  0.00  0.00    +0.000 A 
ATOM     11  C   UNL     1      45.104   4.268   8.754  0.00  0.00    +0.000 A 
ATOM     12  C   UNL     1      44.294   3.416   9.503  0.00  0.00    +0.000 A 
ATOM     13  C   UNL     1      44.201   3.588  10.885  0.00  0.00    +0.000 A 
ATOM     14 CL   UNL     1      43.193   2.539  11.806  0.00  0.00    +0.000 Cl
ATOM     15  C   UNL     1      44.909   4.607  11.524  0.00  0.00    +0.000 A 
ENDBRANCH   8   9
ENDBRANCH   4   7
BRANCH   1  16
ATOM     16  C   UNL     1      49.785  11.279  15.075  0.00  0.00    +0.000 C 
BRANCH  16  17
ATOM     17  N   UNL     1      48.834  12.199  15.690  0.00  0.00    +0.000 NA
ATOM     18  H   UNL     1      48.902  12.128  16.704  0.00  0.00    +0.000 HD
ATOM     19  H   UNL     1      47.886  11.911  15.448  0.00  0.00    +0.000 HD
ENDBRANCH  16  17
ENDBRANCH   1  16
TORSDOF 4
ENDMDL
MODEL 8
REMARK VINA RESULT:    -4.561      4.502      7.855
REMARK INTER + INTRA:          -5.710
REMARK INTER:                  -5.503
REMARK INTRA:                  -0.207
REMARK UNBOUND:                -0.215
REMARK  Name = 
REMARK  4 active torsions:
REMARK  status: ('A' for Active; 'I' for Inactive)
REMARK    1  A    between atoms: N_1  and  C_2
REMARK    2  A    between atoms: C_2  and  C_3
REMARK    3  A    between atoms: C_6  and  C_7
REMARK    4  A    between atoms: C_8  and  C_9
REMARK                            x       y       z     vdW  Elec       q    Type
REMARK                         _______ _______ _______ _____ _____    ______ ____
ROOT
ATOM      1  C   UNL     1      44.837   3.789  11.327  0.00  0.00    +0.000 A 
ATOM      2  C   UNL     1      45.039   5.084  10.839  0.00  0.00    +0.000 A 
ATOM      3  C   UNL     1      45.851   5.974  11.541  0.00  0.00    +0.000 A 
ATOM      4  C   UNL     1      46.438   5.536  12.718  0.00  0.00    +0.000 A 
ATOM      5  N   UNL     1      46.247   4.304  13.238  0.00  0.00    +0.000 NA
ATOM      6  C   UNL     1      45.451   3.465  12.533  0.00  0.00    +0.000 A 
ENDROOT
BRANCH   4   7
ATOM      7  C   UNL     1      47.362   6.361  13.435  0.00  0.00    +0.000 C 
ATOM      8  C   UNL     1      48.112   7.034  14.090  0.00  0.00    +0.000 C 
BRANCH   8   9
ATOM      9  C   UNL     1      48.970   7.822  14.925  0.00  0.00    +0.000 A 
ATOM     10  C   UNL     1      50.131   7.256  15.463  0.00  0.00    +0.000 A 
ATOM     11  C   UNL     1      50.949   8.004  16.313  0.00  0.00    +0.000 A 
ATOM     12  C   UNL     1      50.608   9.318  16.629  0.00  0.00    +0.000 A 
ATOM     13  C   UNL     1      49.453   9.882  16.086  0.00  0.00    +0.000 A 
ATOM     14 CL   UNL     1      49.032  11.503  16.484  0.00  0.00    +0.000 Cl
ATOM     15  C   UNL     1      48.634   9.142  15.232  0.00  0.00    +0.000 A 
ENDBRANCH   8   9
ENDBRANCH   4   7
BRANCH   1  16
ATOM     16  C   UNL     1      43.993   2.794  10.580  0.00  0.00    +0.000 C 
BRANCH  16  17
ATOM     17  N   UNL     1      43.142   2.027  11.483  0.00  0.00    +0.000 NA
ATOM     18  H   UNL     1      42.192   2.393  11.445  0.00  0.00    +0.000 HD
ATOM     19  H   UNL     1      43.461   2.165  12.442  0.00  0.00    +0.000 HD
ENDBRANCH  16  17
ENDBRANCH   1  16
TORSDOF 4
ENDMDL
MODEL 9
REMARK VINA RESULT:    -4.382      4.959      5.529
REMARK INTER + INTRA:          -5.493
REMARK INTER:                  -5.285
REMARK INTRA:                  -0.208
REMARK UNBOUND:                -0.215
REMARK  Name = 
REMARK  4 active torsions:
REMARK  status: ('A' for Active; 'I' for Inactive)
REMARK    1  A    between atoms: N_1  and  C_2
REMARK    2  A    between atoms: C_2  and  C_3
REMARK    3  A    between atoms: C_6  and  C_7
REMARK    4  A    between atoms: C_8  and  C_9
REMARK                            x       y       z     vdW  Elec       q    Type
REMARK                         _______ _______ _______ _____ _____    ______ ____
ROOT
ATOM      1  C   UNL     1      47.986   4.259  16.354  0.00  0.00    +0.000 A 
ATOM      2  C   UNL     1      48.718   5.407  16.672  0.00  0.00    +0.000 A 
ATOM      3  C   UNL     1      48.753   6.479  15.782  0.00  0.00    +0.000 A 
ATOM      4  C   UNL     1      48.050   6.366  14.592  0.00  0.00    +0.000 A 
ATOM      5  N   UNL     1      47.355   5.265  14.234  0.00  0.00    +0.000 NA
ATOM      6  C   UNL     1      47.343   4.240  15.120  0.00  0.00    +0.000 A 
ENDROOT
BRANCH   4   7
ATOM      7  C   UNL     1      47.959   7.464  13.679  0.00  0.00    +0.000 C 
ATOM      8  C   UNL     1      47.923   8.418  12.947  0.00  0.00    +0.000 C 
BRANCH   8   9
ATOM      9  C   UNL     1      47.916   9.588  12.120  0.00  0.00    +0.000 A 
ATOM     10  C   UNL     1      46.731  10.310  11.945  0.00  0.00    +0.000 A 
ATOM     11  C   UNL     1      46.705  11.426  11.104  0.00  0.00    +0.000 A 
ATOM     12  C   UNL     1      47.862  11.821  10.436  0.00  0.00    +0.000 A 
ATOM     13  C   UNL     1      49.045  11.102  10.618  0.00  0.00    +0.000 A 
ATOM     14 CL   UNL     1      50.471  11.589   9.786  0.00  0.00    +0.000 Cl
ATOM     15  C   UNL     1      49.078   9.989  11.460  0.00  0.00    +0.000 A 
ENDBRANCH   8   9
ENDBRANCH   4   7
BRANCH   1  16
ATOM     16  C   UNL     1      47.900   3.096  17.304  0.00  0.00    +0.000 C 
BRANCH  16  17
ATOM     17  N   UNL     1      46.526   2.850  17.728  0.00  0.00    +0.000 NA
ATOM     18  H   UNL     1      45.887   3.135  16.988  0.00  0.00    +0.000 HD
ATOM     19  H   UNL     1      46.313   3.442  18.531  0.00  0.00    +0.000 HD
ENDBRANCH  16  17
ENDBRANCH   1  16
TORSDOF 4
ENDMDL
