MODEL 1
REMARK VINA RESULT:    -7.836      0.000      0.000
REMARK INTER + INTRA:         -10.133
REMARK INTER:                  -9.668
REMARK INTRA:                  -0.465
REMARK UNBOUND:                -0.465
REMARK  Name = 
REMARK  4 active torsions:
REMARK  status: ('A' for Active; 'I' for Inactive)
REMARK    1  A    between atoms: C_6  and  N_7
REMARK    2  A    between atoms: N_7  and  C_8
REMARK    3  A    between atoms: C_8  and  C_9
REMARK    4  A    between atoms: C_13  and  C_14
REMARK                            x       y       z     vdW  Elec       q    Type
REMARK                         _______ _______ _______ _____ _____    ______ ____
ROOT
ATOM      1  C   UNL     1      45.409   4.131  12.342  0.00  0.00    +0.000 A 
ATOM      2  C   UNL     1      45.590   5.423  11.889  0.00  0.00    +0.000 A 
ATOM      3  C   UNL     1      46.426   6.216  12.640  0.00  0.00    +0.000 A 
ATOM      4  N   UNL     1      47.055   5.792  13.746  0.00  0.00    +0.000 NA
ATOM      5  C   UNL     1      46.841   4.513  14.121  0.00  0.00    +0.000 A 
ATOM      6  N   UNL     1      46.033   3.662  13.449  0.00  0.00    +0.000 NA
ENDROOT
BRANCH   5   7
ATOM      7  C   UNL     1      47.501   4.014  15.356  0.00  0.00    +0.000 A 
ATOM      8  C   UNL     1      47.704   4.839  16.467  0.00  0.00    +0.000 A 
ATOM      9  C   UNL     1      48.346   4.334  17.597  0.00  0.00    +0.000 A 
ATOM     10  C   UNL     1      48.773   3.014  17.601  0.00  0.00    +0.000 A 
ATOM     11  C   UNL     1      48.539   2.250  16.472  0.00  0.00    +0.000 A 
ATOM     12  N   UNL     1      47.921   2.714  15.366  0.00  0.00    +0.000 NA
ENDBRANCH   5   7
BRANCH   1  13
ATOM     13  C   UNL     1      44.485   3.182  11.602  0.00  0.00    +0.000 C 
BRANCH  13  14
ATOM     14  N   UNL     1      44.248   3.631  10.232  0.00  0.00    +0.000 N 
ATOM     15  H   UNL     1      43.278   3.571   9.941  0.00  0.00    +0.000 HD
BRANCH  14  21
ATOM     16 CL   UNL     1      46.706  -0.039   7.663  0.00  0.00    +0.000 Cl
ATOM     17  C   UNL     1      46.327   1.620   7.925  0.00  0.00    +0.000 A 
ATOM     18  C   UNL     1      46.851   2.590   7.074  0.00  0.00    +0.000 A 
ATOM     19  C   UNL     1      46.532   3.926   7.289  0.00  0.00    +0.000 A 
ATOM     20  C   UNL     1      45.697   4.285   8.353  0.00  0.00    +0.000 A 
ATOM     21  C   UNL     1      45.168   3.325   9.228  0.00  0.00    +0.000 A 
ATOM     22  C   UNL     1      45.486   1.981   8.982  0.00  0.00    +0.000 A 
ENDBRANCH  14  21
ENDBRANCH  13  14
ENDBRANCH   1  13
TORSDOF 4
ENDMDL
MODEL 2
REMARK VINA RESULT:    -7.546      3.552      6.994
REMARK INTER + INTRA:          -9.775
REMARK INTER:                  -9.130
REMARK INTRA:                  -0.645
REMARK UNBOUND:                -0.465
REMARK  Name = 
REMARK  4 active torsions:
REMARK  status: ('A' for Active; 'I' for Inactive)
REMARK    1  A    between atoms: C_6  and  N_7
REMARK    2  A    between atoms: N_7  and  C_8
REMARK    3  A    between atoms: C_8  and  C_9
REMARK    4  A    between atoms: C_13  and  C_14
REMARK                            x       y       z     vdW  Elec       q    Type
REMARK                         _______ _______ _______ _____ _____    ______ ____
ROOT
ATOM      1  C   UNL     1      43.705   5.050  11.021  0.00  0.00    +0.000 A 
ATOM      2  C   UNL     1      43.043   4.119  11.799  0.00  0.00    +0.000 A 
ATOM      3  C   UNL     1      43.227   2.802  11.455  0.00  0.00    +0.000 A 
ATOM      4  N   UNL     1      44.005   2.402  10.437  0.00  0.00    +0.000 NA
ATOM      5  C   UNL     1      44.632   3.366   9.730  0.00  0.00    +0.000 A 
ATOM      6  N   UNL     1      44.507   4.687   9.992  0.00  0.00    +0.000 NA
ENDROOT
BRANCH   5   7
ATOM      7  C   UNL     1      45.483   2.964   8.579  0.00  0.00    +0.000 A 
ATOM      8  C   UNL     1      45.978   1.663   8.449  0.00  0.00    +0.000 A 
ATOM      9  C   UNL     1      46.790   1.336   7.363  0.00  0.00    +0.000 A 
ATOM     10  C   UNL     1      47.093   2.312   6.425  0.00  0.00    +0.000 A 
ATOM     11  C   UNL     1      46.569   3.578   6.610  0.00  0.00    +0.000 A 
ATOM     12  N   UNL     1      45.782   3.920   7.651  0.00  0.00    +0.000 NA
ENDBRANCH   5   7
BRANCH   1  13
ATOM     13  C   UNL     1      43.547   6.533  11.299  0.00  0.00    +0.000 C 
BRANCH  13  14
ATOM     14  N   UNL     1      44.256   6.924  12.515  0.00  0.00    +0.000 N 
ATOM     15  H   UNL     1      43.905   7.776  12.940  0.00  0.00    +0.000 HD
BRANCH  14  21
ATOM     16 CL   UNL     1      48.843   8.953  11.541  0.00  0.00    +0.000 Cl
ATOM     17  C   UNL     1      47.858   7.711  12.213  0.00  0.00    +0.000 A 
ATOM     18  C   UNL     1      48.452   6.659  12.907  0.00  0.00    +0.000 A 
ATOM     19  C   UNL     1      47.648   5.666  13.453  0.00  0.00    +0.000 A 
ATOM     20  C   UNL     1      46.258   5.726  13.301  0.00  0.00    +0.000 A 
ATOM     21  C   UNL     1      45.641   6.771  12.597  0.00  0.00    +0.000 A 
ATOM     22  C   UNL     1      46.469   7.773  12.070  0.00  0.00    +0.000 A 
ENDBRANCH  14  21
ENDBRANCH  13  14
ENDBRANCH   1  13
TORSDOF 4
ENDMDL
MODEL 3
REMARK VINA RESULT:    -7.504      2.027      3.459
REMARK INTER + INTRA:          -9.724
REMARK INTER:                  -9.081
REMARK INTRA:                  -0.643
REMARK UNBOUND:                -0.465
REMARK  Name = 
REMARK  4 active torsions:
REMARK  status: ('A' for Active; 'I' for Inactive)
REMARK    1  A    between atoms: C_6  and  N_7
REMARK    2  A    between atoms: N_7  and  C_8
REMARK    3  A    between atoms: C_8  and  C_9
REMARK    4  A    between atoms: C_13  and  C_14
REMARK                            x       y       z     vdW  Elec       q    Type
REMARK                         _______ _______ _______ _____ _____    ______ ____
ROOT
ATOM      1  C   UNL     1      45.434   4.867  11.878  0.00  0.00    +0.000 A 
ATOM      2  C   UNL     1      45.508   3.803  12.756  0.00  0.00    +0.000 A 
ATOM      3  C   UNL     1      46.565   3.817  13.635  0.00  0.00    +0.000 A 
ATOM      4  N   UNL     1      47.485   4.793  13.676  0.00  0.00    +0.000 NA
ATOM      5  C   UNL     1      47.341   5.808  12.797  0.00  0.00    +0.000 A 
ATOM      6  N   UNL     1      46.337   5.877  11.893  0.00  0.00    +0.000 NA
ENDROOT
BRANCH   5   7
ATOM      7  C   UNL     1      48.353   6.895  12.795  0.00  0.00    +0.000 A 
ATOM      8  C   UNL     1      48.374   7.880  11.802  0.00  0.00    +0.000 A 
ATOM      9  C   UNL     1      49.355   8.870  11.828  0.00  0.00    +0.000 A 
ATOM     10  C   UNL     1      50.299   8.863  12.845  0.00  0.00    +0.000 A 
ATOM     11  C   UNL     1      50.222   7.864  13.798  0.00  0.00    +0.000 A 
ATOM     12  N   UNL     1      49.283   6.894  13.796  0.00  0.00    +0.000 NA
ENDBRANCH   5   7
BRANCH   1  13
ATOM     13  C   UNL     1      44.322   4.935  10.848  0.00  0.00    +0.000 C 
BRANCH  13  14
ATOM     14  N   UNL     1      44.204   3.680  10.110  0.00  0.00    +0.000 N 
ATOM     15  H   UNL     1      43.883   2.900  10.673  0.00  0.00    +0.000 HD
BRANCH  14  21
ATOM     16 CL   UNL     1      46.689  -0.078   7.700  0.00  0.00    +0.000 Cl
ATOM     17  C   UNL     1      46.335   1.593   7.922  0.00  0.00    +0.000 A 
ATOM     18  C   UNL     1      46.916   2.539   7.080  0.00  0.00    +0.000 A 
ATOM     19  C   UNL     1      46.617   3.884   7.264  0.00  0.00    +0.000 A 
ATOM     20  C   UNL     1      45.745   4.276   8.285  0.00  0.00    +0.000 A 
ATOM     21  C   UNL     1      45.159   3.340   9.150  0.00  0.00    +0.000 A 
ATOM     22  C   UNL     1      45.459   1.987   8.937  0.00  0.00    +0.000 A 
ENDBRANCH  14  21
ENDBRANCH  13  14
ENDBRANCH   1  13
TORSDOF 4
ENDMDL
MODEL 4
REMARK VINA RESULT:    -7.418      3.479      4.037
REMARK INTER + INTRA:          -9.618
REMARK INTER:                  -9.133
REMARK INTRA:                  -0.485
REMARK UNBOUND:                -0.465
REMARK  Name = 
REMARK  4 active torsions:
REMARK  status: ('A' for Active; 'I' for Inactive)
REMARK    1  A    between atoms: C_6  and  N_7
REMARK    2  A    between atoms: N_7  and  C_8
REMARK    3  A    between atoms: C_8  and  C_9
REMARK    4  A    between atoms: C_13  and  C_14
REMARK                            x       y       z     vdW  Elec       q    Type
REMARK                         _______ _______ _______ _____ _____    ______ ____
ROOT
ATOM      1  C   UNL     1      44.216   4.093  10.898  0.00  0.00    +0.000 A 
ATOM      2  C   UNL     1      43.289   3.802  11.881  0.00  0.00    +0.000 A 
ATOM      3  C   UNL     1      43.291   4.629  12.978  0.00  0.00    +0.000 A 
ATOM      4  N   UNL     1      44.120   5.674  13.120  0.00  0.00    +0.000 NA
ATOM      5  C   UNL     1      44.990   5.906  12.113  0.00  0.00    +0.000 A 
ATOM      6  N   UNL     1      45.064   5.144  10.998  0.00  0.00    +0.000 NA
ENDROOT
BRANCH   5   7
ATOM      7  C   UNL     1      45.942   7.040  12.244  0.00  0.00    +0.000 A 
ATOM      8  C   UNL     1      47.273   6.935  11.826  0.00  0.00    +0.000 A 
ATOM      9  C   UNL     1      48.136   8.018  11.987  0.00  0.00    +0.000 A 
ATOM     10  C   UNL     1      47.658   9.188  12.560  0.00  0.00    +0.000 A 
ATOM     11  C   UNL     1      46.332   9.228  12.948  0.00  0.00    +0.000 A 
ATOM     12  N   UNL     1      45.476   8.195  12.805  0.00  0.00    +0.000 NA
ENDBRANCH   5   7
BRANCH   1  13
ATOM     13  C   UNL     1      44.316   3.226   9.657  0.00  0.00    +0.000 C 
BRANCH  13  14
ATOM     14  N   UNL     1      45.196   3.827   8.658  0.00  0.00    +0.000 N 
ATOM     15  H   UNL     1      44.787   4.618   8.173  0.00  0.00    +0.000 HD
BRANCH  14  21
ATOM     16 CL   UNL     1      46.916  -0.893   7.728  0.00  0.00    +0.000 Cl
ATOM     17  C   UNL     1      46.809   0.777   7.323  0.00  0.00    +0.000 A 
ATOM     18  C   UNL     1      47.424   1.247   6.165  0.00  0.00    +0.000 A 
ATOM     19  C   UNL     1      47.325   2.596   5.844  0.00  0.00    +0.000 A 
ATOM     20  C   UNL     1      46.617   3.466   6.680  0.00  0.00    +0.000 A 
ATOM     21  C   UNL     1      46.000   3.015   7.856  0.00  0.00    +0.000 A 
ATOM     22  C   UNL     1      46.096   1.647   8.152  0.00  0.00    +0.000 A 
ENDBRANCH  14  21
ENDBRANCH  13  14
ENDBRANCH   1  13
TORSDOF 4
ENDMDL
MODEL 5
REMARK VINA RESULT:    -7.392      2.323      4.324
REMARK INTER + INTRA:          -9.585
REMARK INTER:                  -8.941
REMARK INTRA:                  -0.644
REMARK UNBOUND:                -0.465
REMARK  Name = 
REMARK  4 active torsions:
REMARK  status: ('A' for Active; 'I' for Inactive)
REMARK    1  A    between atoms: C_6  and  N_7
REMARK    2  A    between atoms: N_7  and  C_8
REMARK    3  A    between atoms: C_8  and  C_9
REMARK    4  A    between atoms: C_13  and  C_14
REMARK                            x       y       z     vdW  Elec       q    Type
REMARK                         _______ _______ _______ _____ _____    ______ ____
ROOT
ATOM      1  C   UNL     1      44.786   3.927  11.500  0.00  0.00    +0.000 A 
ATOM      2  C   UNL     1      45.507   3.282  12.487  0.00  0.00    +0.000 A 
ATOM      3  C   UNL     1      46.241   4.089  13.324  0.00  0.00    +0.000 A 
ATOM      4  N   UNL     1      46.272   5.427  13.228  0.00  0.00    +0.000 NA
ATOM      5  C   UNL     1      45.532   5.988  12.248  0.00  0.00    +0.000 A 
ATOM      6  N   UNL     1      44.783   5.275  11.375  0.00  0.00    +0.000 NA
ENDROOT
BRANCH   5   7
ATOM      7  C   UNL     1      45.559   7.465  12.094  0.00  0.00    +0.000 A 
ATOM      8  C   UNL     1      46.600   8.241  12.615  0.00  0.00    +0.000 A 
ATOM      9  C   UNL     1      46.574   9.627  12.463  0.00  0.00    +0.000 A 
ATOM     10  C   UNL     1      45.512  10.216  11.794  0.00  0.00    +0.000 A 
ATOM     11  C   UNL     1      44.516   9.394  11.299  0.00  0.00    +0.000 A 
ATOM     12  N   UNL     1      44.517   8.051  11.432  0.00  0.00    +0.000 NA
ENDBRANCH   5   7
BRANCH   1  13
ATOM     13  C   UNL     1      43.964   3.128  10.506  0.00  0.00    +0.000 C 
BRANCH  13  14
ATOM     14  N   UNL     1      44.246   3.537   9.132  0.00  0.00    +0.000 N 
ATOM     15  H   UNL     1      43.419   3.627   8.552  0.00  0.00    +0.000 HD
BRANCH  14  21
ATOM     16 CL   UNL     1      46.851  -0.629   7.731  0.00  0.00    +0.000 Cl
ATOM     17  C   UNL     1      46.618   1.077   7.716  0.00  0.00    +0.000 A 
ATOM     18  C   UNL     1      47.469   1.883   6.962  0.00  0.00    +0.000 A 
ATOM     19  C   UNL     1      47.267   3.258   6.950  0.00  0.00    +0.000 A 
ATOM     20  C   UNL     1      46.223   3.820   7.692  0.00  0.00    +0.000 A 
ATOM     21  C   UNL     1      45.362   3.028   8.466  0.00  0.00    +0.000 A 
ATOM     22  C   UNL     1      45.571   1.641   8.450  0.00  0.00    +0.000 A 
ENDBRANCH  14  21
ENDBRANCH  13  14
ENDBRANCH   1  13
TORSDOF 4
ENDMDL
MODEL 6
REMARK VINA RESULT:    -7.275      3.453      7.080
REMARK INTER + INTRA:          -9.441
REMARK INTER:                  -8.879
REMARK INTRA:                  -0.562
REMARK UNBOUND:                -0.465
REMARK  Name = 
REMARK  4 active torsions:
REMARK  status: ('A' for Active; 'I' for Inactive)
REMARK    1  A    between atoms: C_6  and  N_7
REMARK    2  A    between atoms: N_7  and  C_8
REMARK    3  A    between atoms: C_8  and  C_9
REMARK    4  A    between atoms: C_13  and  C_14
REMARK                            x       y       z     vdW  Elec       q    Type
REMARK                         _______ _______ _______ _____ _____    ______ ____
ROOT
ATOM      1  C   UNL     1      44.429   4.817  11.963  0.00  0.00    +0.000 A 
ATOM      2  C   UNL     1      43.446   3.974  12.444  0.00  0.00    +0.000 A 
ATOM      3  C   UNL     1      43.197   2.848  11.696  0.00  0.00    +0.000 A 
ATOM      4  N   UNL     1      43.854   2.546  10.566  0.00  0.00    +0.000 NA
ATOM      5  C   UNL     1      44.811   3.410  10.165  0.00  0.00    +0.000 A 
ATOM      6  N   UNL     1      45.123   4.544  10.833  0.00  0.00    +0.000 NA
ENDROOT
BRANCH   5   7
ATOM      7  C   UNL     1      45.546   3.122   8.905  0.00  0.00    +0.000 A 
ATOM      8  C   UNL     1      45.949   1.827   8.567  0.00  0.00    +0.000 A 
ATOM      9  C   UNL     1      46.654   1.607   7.384  0.00  0.00    +0.000 A 
ATOM     10  C   UNL     1      46.943   2.683   6.557  0.00  0.00    +0.000 A 
ATOM     11  C   UNL     1      46.513   3.938   6.946  0.00  0.00    +0.000 A 
ATOM     12  N   UNL     1      45.831   4.178   8.085  0.00  0.00    +0.000 NA
ENDBRANCH   5   7
BRANCH   1  13
ATOM     13  C   UNL     1      44.764   6.102  12.699  0.00  0.00    +0.000 C 
BRANCH  13  14
ATOM     14  N   UNL     1      45.945   5.938  13.544  0.00  0.00    +0.000 N 
ATOM     15  H   UNL     1      45.739   5.906  14.537  0.00  0.00    +0.000 HD
BRANCH  14  21
ATOM     16 CL   UNL     1      50.606   7.344  15.094  0.00  0.00    +0.000 Cl
ATOM     17  C   UNL     1      49.387   7.251  13.882  0.00  0.00    +0.000 A 
ATOM     18  C   UNL     1      49.650   7.733  12.601  0.00  0.00    +0.000 A 
ATOM     19  C   UNL     1      48.661   7.646  11.628  0.00  0.00    +0.000 A 
ATOM     20  C   UNL     1      47.418   7.083  11.938  0.00  0.00    +0.000 A 
ATOM     21  C   UNL     1      47.130   6.602  13.224  0.00  0.00    +0.000 A 
ATOM     22  C   UNL     1      48.147   6.682  14.187  0.00  0.00    +0.000 A 
ENDBRANCH  14  21
ENDBRANCH  13  14
ENDBRANCH   1  13
TORSDOF 4
ENDMDL
MODEL 7
REMARK VINA RESULT:    -7.049      3.983      7.088
REMARK INTER + INTRA:          -9.162
REMARK INTER:                  -8.534
REMARK INTRA:                  -0.628
REMARK UNBOUND:                -0.465
REMARK  Name = 
REMARK  4 active torsions:
REMARK  status: ('A' for Active; 'I' for Inactive)
REMARK    1  A    between atoms: C_6  and  N_7
REMARK    2  A    between atoms: N_7  and  C_8
REMARK    3  A    between atoms: C_8  and  C_9
REMARK    4  A    between atoms: C_13  and  C_14
REMARK                            x       y       z     vdW  Elec       q    Type
REMARK                         _______ _______ _______ _____ _____    ______ ____
ROOT
ATOM      1  C   UNL     1      44.062   5.993  11.298  0.00  0.00    +0.000 A 
ATOM      2  C   UNL     1      43.078   5.313  11.988  0.00  0.00    +0.000 A 
ATOM      3  C   UNL     1      42.887   3.999  11.632  0.00  0.00    +0.000 A 
ATOM      4  N   UNL     1      43.601   3.375  10.683  0.00  0.00    +0.000 NA
ATOM      5  C   UNL     1      44.556   4.099  10.060  0.00  0.00    +0.000 A 
ATOM      6  N   UNL     1      44.812   5.397  10.340  0.00  0.00    +0.000 NA
ENDROOT
BRANCH   5   7
ATOM      7  C   UNL     1      45.352   3.450   8.986  0.00  0.00    +0.000 A 
ATOM      8  C   UNL     1      45.555   2.067   8.953  0.00  0.00    +0.000 A 
ATOM      9  C   UNL     1      46.326   1.504   7.937  0.00  0.00    +0.000 A 
ATOM     10  C   UNL     1      46.881   2.329   6.970  0.00  0.00    +0.000 A 
ATOM     11  C   UNL     1      46.639   3.688   7.057  0.00  0.00    +0.000 A 
ATOM     12  N   UNL     1      45.898   4.258   8.029  0.00  0.00    +0.000 NA
ENDBRANCH   5   7
BRANCH   1  13
ATOM     13  C   UNL     1      44.335   7.456  11.594  0.00  0.00    +0.000 C 
BRANCH  13  14
ATOM     14  N   UNL     1      45.234   7.608  12.736  0.00  0.00    +0.000 N 
ATOM     15  H   UNL     1      44.899   8.258  13.440  0.00  0.00    +0.000 HD
BRANCH  14  21
ATOM     16 CL   UNL     1      49.280  10.355  11.256  0.00  0.00    +0.000 Cl
ATOM     17  C   UNL     1      48.593   8.914  11.903  0.00  0.00    +0.000 A 
ATOM     18  C   UNL     1      49.427   7.876  12.310  0.00  0.00    +0.000 A 
ATOM     19  C   UNL     1      48.863   6.720  12.837  0.00  0.00    +0.000 A 
ATOM     20  C   UNL     1      47.473   6.607  12.953  0.00  0.00    +0.000 A 
ATOM     21  C   UNL     1      46.616   7.638  12.539  0.00  0.00    +0.000 A 
ATOM     22  C   UNL     1      47.205   8.802  12.027  0.00  0.00    +0.000 A 
ENDBRANCH  14  21
ENDBRANCH  13  14
ENDBRANCH   1  13
TORSDOF 4
ENDMDL
MODEL 8
REMARK VINA RESULT:    -6.969      2.547      4.486
REMARK INTER + INTRA:          -9.063
REMARK INTER:                  -8.348
REMARK INTRA:                  -0.715
REMARK UNBOUND:                -0.465
REMARK  Name = 
REMARK  4 active torsions:
REMARK  status: ('A' for Active; 'I' for Inactive)
REMARK    1  A    between atoms: C_6  and  N_7
REMARK    2  A    between atoms: N_7  and  C_8
REMARK    3  A    between atoms: C_8  and  C_9
REMARK    4  A    between atoms: C_13  and  C_14
REMARK                            x       y       z     vdW  Elec       q    Type
REMARK                         _______ _______ _______ _____ _____    ______ ____
ROOT
ATOM      1  C   UNL     1      45.267   5.605  12.581  0.00  0.00    +0.000 A 
ATOM      2  C   UNL     1      45.685   4.616  13.452  0.00  0.00    +0.000 A 
ATOM      3  C   UNL     1      46.989   4.696  13.876  0.00  0.00    +0.000 A 
ATOM      4  N   UNL     1      47.835   5.667  13.499  0.00  0.00    +0.000 NA
ATOM      5  C   UNL     1      47.354   6.606  12.657  0.00  0.00    +0.000 A 
ATOM      6  N   UNL     1      46.087   6.607  12.183  0.00  0.00    +0.000 NA
ENDROOT
BRANCH   5   7
ATOM      7  C   UNL     1      48.267   7.684  12.197  0.00  0.00    +0.000 A 
ATOM      8  C   UNL     1      49.604   7.429  11.876  0.00  0.00    +0.000 A 
ATOM      9  C   UNL     1      50.431   8.475  11.468  0.00  0.00    +0.000 A 
ATOM     10  C   UNL     1      49.910   9.758  11.385  0.00  0.00    +0.000 A 
ATOM     11  C   UNL     1      48.579   9.943  11.712  0.00  0.00    +0.000 A 
ATOM     12  N   UNL     1      47.759   8.949  12.111  0.00  0.00    +0.000 NA
ENDBRANCH   5   7
BRANCH   1  13
ATOM     13  C   UNL     1      43.853   5.594  12.030  0.00  0.00    +0.000 C 
BRANCH  13  14
ATOM     14  N   UNL     1      43.852   5.571  10.569  0.00  0.00    +0.000 N 
ATOM     15  H   UNL     1      43.046   6.025  10.152  0.00  0.00    +0.000 HD
BRANCH  14  21
ATOM     16 CL   UNL     1      46.807   3.695   6.848  0.00  0.00    +0.000 Cl
ATOM     17  C   UNL     1      45.723   3.471   8.167  0.00  0.00    +0.000 A 
ATOM     18  C   UNL     1      45.402   2.182   8.584  0.00  0.00    +0.000 A 
ATOM     19  C   UNL     1      44.532   2.012   9.655  0.00  0.00    +0.000 A 
ATOM     20  C   UNL     1      43.986   3.128  10.299  0.00  0.00    +0.000 A 
ATOM     21  C   UNL     1      44.288   4.434   9.887  0.00  0.00    +0.000 A 
ATOM     22  C   UNL     1      45.183   4.584   8.817  0.00  0.00    +0.000 A 
ENDBRANCH  14  21
ENDBRANCH  13  14
ENDBRANCH   1  13
TORSDOF 4
ENDMDL
MODEL 9
REMARK VINA RESULT:    -6.711      4.713      7.603
REMARK INTER + INTRA:          -8.744
REMARK INTER:                  -8.194
REMARK INTRA:                  -0.550
REMARK UNBOUND:                -0.465
REMARK  Name = 
REMARK  4 active torsions:
REMARK  status: ('A' for Active; 'I' for Inactive)
REMARK    1  A    between atoms: C_6  and  N_7
REMARK    2  A    between atoms: N_7  and  C_8
REMARK    3  A    between atoms: C_8  and  C_9
REMARK    4  A    between atoms: C_13  and  C_14
REMARK                            x       y       z     vdW  Elec       q    Type
REMARK                         _______ _______ _______ _____ _____    ______ ____
ROOT
ATOM      1  C   UNL     1      44.795   6.206  11.644  0.00  0.00    +0.000 A 
ATOM      2  C   UNL     1      43.496   5.941  12.032  0.00  0.00    +0.000 A 
ATOM      3  C   UNL     1      42.873   4.899  11.388  0.00  0.00    +0.000 A 
ATOM      4  N   UNL     1      43.461   4.153  10.441  0.00  0.00    +0.000 NA
ATOM      5  C   UNL     1      44.737   4.461  10.123  0.00  0.00    +0.000 A 
ATOM      6  N   UNL     1      45.428   5.470  10.699  0.00  0.00    +0.000 NA
ENDROOT
BRANCH   5   7
ATOM      7  C   UNL     1      45.415   3.673   9.061  0.00  0.00    +0.000 A 
ATOM      8  C   UNL     1      45.482   2.276   9.110  0.00  0.00    +0.000 A 
ATOM      9  C   UNL     1      46.147   1.580   8.101  0.00  0.00    +0.000 A 
ATOM     10  C   UNL     1      46.732   2.286   7.061  0.00  0.00    +0.000 A 
ATOM     11  C   UNL     1      46.627   3.665   7.069  0.00  0.00    +0.000 A 
ATOM     12  N   UNL     1      45.991   4.363   8.033  0.00  0.00    +0.000 NA
ENDBRANCH   5   7
BRANCH   1  13
ATOM     13  C   UNL     1      45.565   7.353  12.273  0.00  0.00    +0.000 C 
BRANCH  13  14
ATOM     14  N   UNL     1      44.693   8.494  12.540  0.00  0.00    +0.000 N 
ATOM     15  H   UNL     1      43.773   8.238  12.883  0.00  0.00    +0.000 HD
BRANCH  14  21
ATOM     16 CL   UNL     1      47.216  12.629  10.917  0.00  0.00    +0.000 Cl
ATOM     17  C   UNL     1      45.880  11.547  10.822  0.00  0.00    +0.000 A 
ATOM     18  C   UNL     1      44.914  11.729   9.835  0.00  0.00    +0.000 A 
ATOM     19  C   UNL     1      43.844  10.845   9.762  0.00  0.00    +0.000 A 
ATOM     20  C   UNL     1      43.743   9.789  10.674  0.00  0.00    +0.000 A 
ATOM     21  C   UNL     1      44.699   9.595  11.682  0.00  0.00    +0.000 A 
ATOM     22  C   UNL     1      45.781  10.487  11.727  0.00  0.00    +0.000 A 
ENDBRANCH  14  21
ENDBRANCH  13  14
ENDBRANCH   1  13
TORSDOF 4
ENDMDL
