MODEL 1
REMARK VINA RESULT:    -8.560      0.000      0.000
REMARK INTER + INTRA:         -11.584
REMARK INTER:                 -11.061
REMARK INTRA:                  -0.522
REMARK UNBOUND:                -0.522
REMARK  Name = 
REMARK  5 active torsions:
REMARK  status: ('A' for Active; 'I' for Inactive)
REMARK    1  A    between atoms: C_2  and  C_18
REMARK    2  A    between atoms: N_3  and  C_4
REMARK    3  A    between atoms: C_4  and  C_5
REMARK    4  A    between atoms: C_8  and  C_9
REMARK    5  A    between atoms: C_9  and  C_10
REMARK                            x       y       z     vdW  Elec       q    Type
REMARK                         _______ _______ _______ _____ _____    ______ ____
ROOT
ATOM      1  O   UNL     1      48.523   6.792  12.732  0.00  0.00    +0.000 OA
ATOM      2  C   UNL     1      47.816   6.686  13.730  0.00  0.00    +0.000 C 
ATOM      3  N   UNL     1      46.456   6.849  13.689  0.00  0.00    +0.000 N 
ATOM      4  H   UNL     1      45.932   6.920  14.555  0.00  0.00    +0.000 HD
ENDROOT
BRANCH   2   5
ATOM      5  C   UNL     1      48.390   6.322  15.032  0.00  0.00    +0.000 A 
ATOM      6  C   UNL     1      49.360   7.135  15.604  0.00  0.00    +0.000 A 
ATOM      7  S   UNL     1      49.918   6.577  17.115  0.00  0.00    +0.000 S 
ATOM      8  C   UNL     1      48.852   5.249  17.080  0.00  0.00    +0.000 A 
ATOM      9  N   UNL     1      48.790   4.377  18.120  0.00  0.00    +0.000 NA
ATOM     10  C   UNL     1      47.906   3.444  17.980  0.00  0.00    +0.000 A 
ATOM     11  N   UNL     1      47.099   3.291  16.884  0.00  0.00    +0.000 N 
ATOM     12  C   UNL     1      47.187   4.098  15.777  0.00  0.00    +0.000 A 
ATOM     13  O   UNL     1      46.555   3.846  14.756  0.00  0.00    +0.000 OA
ATOM     14  C   UNL     1      48.113   5.210  15.912  0.00  0.00    +0.000 A 
ATOM     15  H   UNL     1      46.457   2.516  16.821  0.00  0.00    +0.000 HD
ENDBRANCH   2   5
BRANCH   3  16
ATOM     16  C   UNL     1      45.756   7.212  12.485  0.00  0.00    +0.000 C 
BRANCH  16  17
ATOM     17  C   UNL     1      45.430   6.010  11.640  0.00  0.00    +0.000 A 
ATOM     18  C   UNL     1      45.711   6.019  10.269  0.00  0.00    +0.000 A 
ATOM     19  C   UNL     1      45.462   4.891   9.486  0.00  0.00    +0.000 A 
ATOM     20  C   UNL     1      44.930   3.727  10.059  0.00  0.00    +0.000 A 
ATOM     21  C   UNL     1      44.608   3.732  11.423  0.00  0.00    +0.000 A 
ATOM     22  C   UNL     1      44.842   4.869  12.203  0.00  0.00    +0.000 A 
BRANCH  20  23
ATOM     23  C   UNL     1      44.706   2.489   9.219  0.00  0.00    +0.000 C 
BRANCH  23  24
ATOM     24  C   UNL     1      45.753   2.213   8.159  0.00  0.00    +0.000 A 
ATOM     25  C   UNL     1      46.024   3.138   7.151  0.00  0.00    +0.000 A 
ATOM     26  C   UNL     1      46.900   2.791   6.126  0.00  0.00    +0.000 A 
ATOM     27  C   UNL     1      47.489   1.535   6.129  0.00  0.00    +0.000 A 
ATOM     28  C   UNL     1      47.185   0.678   7.171  0.00  0.00    +0.000 A 
ATOM     29  N   UNL     1      46.332   0.983   8.175  0.00  0.00    +0.000 NA
ENDBRANCH  23  24
ENDBRANCH  20  23
ENDBRANCH  16  17
ENDBRANCH   3  16
TORSDOF 5
ENDMDL
MODEL 2
REMARK VINA RESULT:    -8.529      3.095      5.229
REMARK INTER + INTRA:         -11.544
REMARK INTER:                 -10.649
REMARK INTRA:                  -0.895
REMARK UNBOUND:                -0.522
REMARK  Name = 
REMARK  5 active torsions:
REMARK  status: ('A' for Active; 'I' for Inactive)
REMARK    1  A    between atoms: C_2  and  C_18
REMARK    2  A    between atoms: N_3  and  C_4
REMARK    3  A    between atoms: C_4  and  C_5
REMARK    4  A    between atoms: C_8  and  C_9
REMARK    5  A    between atoms: C_9  and  C_10
REMARK                            x       y       z     vdW  Elec       q    Type
REMARK                         _______ _______ _______ _____ _____    ______ ____
ROOT
ATOM      1  O   UNL     1      45.340   2.913  12.591  0.00  0.00    +0.000 OA
ATOM      2  C   UNL     1      45.508   3.928  11.920  0.00  0.00    +0.000 C 
ATOM      3  N   UNL     1      45.169   3.998  10.594  0.00  0.00    +0.000 N 
ATOM      4  H   UNL     1      45.476   4.789  10.038  0.00  0.00    +0.000 HD
ENDROOT
BRANCH   2   5
ATOM      5  C   UNL     1      46.039   5.158  12.523  0.00  0.00    +0.000 A 
ATOM      6  C   UNL     1      47.178   5.094  13.316  0.00  0.00    +0.000 A 
ATOM      7  S   UNL     1      47.667   6.606  13.934  0.00  0.00    +0.000 S 
ATOM      8  C   UNL     1      46.397   7.407  13.130  0.00  0.00    +0.000 A 
ATOM      9  N   UNL     1      46.266   8.757  13.206  0.00  0.00    +0.000 NA
ATOM     10  C   UNL     1      45.286   9.237  12.511  0.00  0.00    +0.000 A 
ATOM     11  N   UNL     1      44.415   8.485  11.768  0.00  0.00    +0.000 N 
ATOM     12  C   UNL     1      44.460   7.114  11.731  0.00  0.00    +0.000 A 
ATOM     13  O   UNL     1      43.578   6.465  11.178  0.00  0.00    +0.000 OA
ATOM     14  C   UNL     1      45.588   6.527  12.435  0.00  0.00    +0.000 A 
ATOM     15  H   UNL     1      43.647   8.919  11.280  0.00  0.00    +0.000 HD
ENDBRANCH   2   5
BRANCH   3  16
ATOM     16  C   UNL     1      44.644   2.871   9.869  0.00  0.00    +0.000 C 
BRANCH  16  17
ATOM     17  C   UNL     1      45.442   2.580   8.626  0.00  0.00    +0.000 A 
ATOM     18  C   UNL     1      46.026   1.322   8.445  0.00  0.00    +0.000 A 
ATOM     19  C   UNL     1      46.722   1.024   7.273  0.00  0.00    +0.000 A 
ATOM     20  C   UNL     1      46.844   1.978   6.253  0.00  0.00    +0.000 A 
ATOM     21  C   UNL     1      46.296   3.252   6.452  0.00  0.00    +0.000 A 
ATOM     22  C   UNL     1      45.614   3.555   7.634  0.00  0.00    +0.000 A 
BRANCH  20  23
ATOM     23  C   UNL     1      47.556   1.637   4.962  0.00  0.00    +0.000 C 
BRANCH  23  24
ATOM     24  C   UNL     1      46.813   0.708   4.025  0.00  0.00    +0.000 A 
ATOM     25  C   UNL     1      47.063  -0.665   4.018  0.00  0.00    +0.000 A 
ATOM     26  C   UNL     1      46.452  -1.463   3.054  0.00  0.00    +0.000 A 
ATOM     27  C   UNL     1      45.605  -0.879   2.123  0.00  0.00    +0.000 A 
ATOM     28  C   UNL     1      45.393   0.485   2.203  0.00  0.00    +0.000 A 
ATOM     29  N   UNL     1      45.978   1.287   3.122  0.00  0.00    +0.000 NA
ENDBRANCH  23  24
ENDBRANCH  20  23
ENDBRANCH  16  17
ENDBRANCH   3  16
TORSDOF 5
ENDMDL
MODEL 3
REMARK VINA RESULT:    -8.410      2.578      4.346
REMARK INTER + INTRA:         -11.391
REMARK INTER:                 -10.590
REMARK INTRA:                  -0.801
REMARK UNBOUND:                -0.522
REMARK  Name = 
REMARK  5 active torsions:
REMARK  status: ('A' for Active; 'I' for Inactive)
REMARK    1  A    between atoms: C_2  and  C_18
REMARK    2  A    between atoms: N_3  and  C_4
REMARK    3  A    between atoms: C_4  and  C_5
REMARK    4  A    between atoms: C_8  and  C_9
REMARK    5  A    between atoms: C_9  and  C_10
REMARK                            x       y       z     vdW  Elec       q    Type
REMARK                         _______ _______ _______ _____ _____    ______ ____
ROOT
ATOM      1  O   UNL     1      43.980   4.841  12.561  0.00  0.00    +0.000 OA
ATOM      2  C   UNL     1      44.681   5.486  11.786  0.00  0.00    +0.000 C 
ATOM      3  N   UNL     1      44.828   5.142  10.468  0.00  0.00    +0.000 N 
ATOM      4  H   UNL     1      45.540   5.596   9.906  0.00  0.00    +0.000 HD
ENDROOT
BRANCH   2   5
ATOM      5  C   UNL     1      45.366   6.710  12.220  0.00  0.00    +0.000 A 
ATOM      6  C   UNL     1      44.914   7.944  11.771  0.00  0.00    +0.000 A 
ATOM      7  S   UNL     1      45.813   9.263  12.370  0.00  0.00    +0.000 S 
ATOM      8  C   UNL     1      46.814   8.235  13.287  0.00  0.00    +0.000 A 
ATOM      9  N   UNL     1      47.789   8.742  14.086  0.00  0.00    +0.000 NA
ATOM     10  C   UNL     1      48.442   7.852  14.759  0.00  0.00    +0.000 A 
ATOM     11  N   UNL     1      48.224   6.502  14.684  0.00  0.00    +0.000 N 
ATOM     12  C   UNL     1      47.308   5.942  13.829  0.00  0.00    +0.000 A 
ATOM     13  O   UNL     1      47.240   4.727  13.679  0.00  0.00    +0.000 OA
ATOM     14  C   UNL     1      46.494   6.903  13.103  0.00  0.00    +0.000 A 
ATOM     15  H   UNL     1      48.797   5.857  15.207  0.00  0.00    +0.000 HD
ENDBRANCH   2   5
BRANCH   3  16
ATOM     16  C   UNL     1      44.220   3.967   9.903  0.00  0.00    +0.000 C 
BRANCH  16  17
ATOM     17  C   UNL     1      45.107   3.312   8.877  0.00  0.00    +0.000 A 
ATOM     18  C   UNL     1      45.714   4.083   7.880  0.00  0.00    +0.000 A 
ATOM     19  C   UNL     1      46.580   3.496   6.957  0.00  0.00    +0.000 A 
ATOM     20  C   UNL     1      46.862   2.124   7.015  0.00  0.00    +0.000 A 
ATOM     21  C   UNL     1      46.223   1.344   7.987  0.00  0.00    +0.000 A 
ATOM     22  C   UNL     1      45.341   1.931   8.901  0.00  0.00    +0.000 A 
BRANCH  20  23
ATOM     23  C   UNL     1      47.840   1.498   6.045  0.00  0.00    +0.000 C 
BRANCH  23  24
ATOM     24  C   UNL     1      47.232   0.870   4.808  0.00  0.00    +0.000 A 
ATOM     25  C   UNL     1      46.475   1.625   3.911  0.00  0.00    +0.000 A 
ATOM     26  C   UNL     1      45.829   0.983   2.857  0.00  0.00    +0.000 A 
ATOM     27  C   UNL     1      45.955  -0.392   2.717  0.00  0.00    +0.000 A 
ATOM     28  C   UNL     1      46.736  -1.070   3.636  0.00  0.00    +0.000 A 
ATOM     29  N   UNL     1      47.368  -0.476   4.673  0.00  0.00    +0.000 NA
ENDBRANCH  23  24
ENDBRANCH  20  23
ENDBRANCH  16  17
ENDBRANCH   3  16
TORSDOF 5
ENDMDL
MODEL 4
REMARK VINA RESULT:    -8.112      1.753      2.265
REMARK INTER + INTRA:         -11.005
REMARK INTER:                 -10.283
REMARK INTRA:                  -0.722
REMARK UNBOUND:                -0.522
REMARK  Name = 
REMARK  5 active torsions:
REMARK  status: ('A' for Active; 'I' for Inactive)
REMARK    1  A    between atoms: C_2  and  C_18
REMARK    2  A    between atoms: N_3  and  C_4
REMARK    3  A    between atoms: C_4  and  C_5
REMARK    4  A    between atoms: C_8  and  C_9
REMARK    5  A    between atoms: C_9  and  C_10
REMARK                            x       y       z     vdW  Elec       q    Type
REMARK                         _______ _______ _______ _____ _____    ______ ____
ROOT
ATOM      1  O   UNL     1      49.019   6.401  14.711  0.00  0.00    +0.000 OA
ATOM      2  C   UNL     1      48.021   5.804  15.107  0.00  0.00    +0.000 C 
ATOM      3  N   UNL     1      46.841   5.802  14.412  0.00  0.00    +0.000 N 
ATOM      4  H   UNL     1      46.000   5.442  14.851  0.00  0.00    +0.000 HD
ENDROOT
BRANCH   2   5
ATOM      5  C   UNL     1      48.054   5.003  16.338  0.00  0.00    +0.000 A 
ATOM      6  C   UNL     1      47.729   3.653  16.285  0.00  0.00    +0.000 A 
ATOM      7  S   UNL     1      47.821   2.866  17.794  0.00  0.00    +0.000 S 
ATOM      8  C   UNL     1      48.341   4.292  18.567  0.00  0.00    +0.000 A 
ATOM      9  N   UNL     1      48.648   4.295  19.891  0.00  0.00    +0.000 NA
ATOM     10  C   UNL     1      49.072   5.432  20.336  0.00  0.00    +0.000 A 
ATOM     11  N   UNL     1      49.193   6.569  19.582  0.00  0.00    +0.000 N 
ATOM     12  C   UNL     1      48.816   6.632  18.264  0.00  0.00    +0.000 A 
ATOM     13  O   UNL     1      48.797   7.700  17.660  0.00  0.00    +0.000 OA
ATOM     14  C   UNL     1      48.401   5.362  17.693  0.00  0.00    +0.000 A 
ATOM     15  H   UNL     1      49.493   7.436  20.001  0.00  0.00    +0.000 HD
ENDBRANCH   2   5
BRANCH   3  16
ATOM     16  C   UNL     1      46.659   6.546  13.194  0.00  0.00    +0.000 C 
BRANCH  16  17
ATOM     17  C   UNL     1      46.071   5.697  12.098  0.00  0.00    +0.000 A 
ATOM     18  C   UNL     1      46.065   6.161  10.778  0.00  0.00    +0.000 A 
ATOM     19  C   UNL     1      45.572   5.360   9.747  0.00  0.00    +0.000 A 
ATOM     20  C   UNL     1      45.079   4.075  10.014  0.00  0.00    +0.000 A 
ATOM     21  C   UNL     1      45.046   3.627  11.341  0.00  0.00    +0.000 A 
ATOM     22  C   UNL     1      45.524   4.437  12.376  0.00  0.00    +0.000 A 
BRANCH  20  23
ATOM     23  C   UNL     1      44.591   3.189   8.889  0.00  0.00    +0.000 C 
BRANCH  23  24
ATOM     24  C   UNL     1      45.668   2.580   8.015  0.00  0.00    +0.000 A 
ATOM     25  C   UNL     1      46.113   3.223   6.860  0.00  0.00    +0.000 A 
ATOM     26  C   UNL     1      47.010   2.570   6.018  0.00  0.00    +0.000 A 
ATOM     27  C   UNL     1      47.447   1.295   6.348  0.00  0.00    +0.000 A 
ATOM     28  C   UNL     1      46.975   0.728   7.518  0.00  0.00    +0.000 A 
ATOM     29  N   UNL     1      46.098   1.334   8.350  0.00  0.00    +0.000 NA
ENDBRANCH  23  24
ENDBRANCH  20  23
ENDBRANCH  16  17
ENDBRANCH   3  16
TORSDOF 5
ENDMDL
MODEL 5
REMARK VINA RESULT:    -8.037      1.539      2.222
REMARK INTER + INTRA:         -10.909
REMARK INTER:                 -10.723
REMARK INTRA:                  -0.186
REMARK UNBOUND:                -0.522
REMARK  Name = 
REMARK  5 active torsions:
REMARK  status: ('A' for Active; 'I' for Inactive)
REMARK    1  A    between atoms: C_2  and  C_18
REMARK    2  A    between atoms: N_3  and  C_4
REMARK    3  A    between atoms: C_4  and  C_5
REMARK    4  A    between atoms: C_8  and  C_9
REMARK    5  A    between atoms: C_9  and  C_10
REMARK                            x       y       z     vdW  Elec       q    Type
REMARK                         _______ _______ _______ _____ _____    ______ ____
ROOT
ATOM      1  O   UNL     1      46.674   3.208  13.959  0.00  0.00    +0.000 OA
ATOM      2  C   UNL     1      46.485   4.382  14.265  0.00  0.00    +0.000 C 
ATOM      3  N   UNL     1      45.355   5.064  13.899  0.00  0.00    +0.000 N 
ATOM      4  H   UNL     1      45.311   6.070  14.025  0.00  0.00    +0.000 HD
ENDROOT
BRANCH   2   5
ATOM      5  C   UNL     1      47.447   5.115  15.099  0.00  0.00    +0.000 A 
ATOM      6  C   UNL     1      48.182   6.153  14.542  0.00  0.00    +0.000 A 
ATOM      7  S   UNL     1      49.248   6.904  15.641  0.00  0.00    +0.000 S 
ATOM      8  C   UNL     1      48.735   5.894  16.913  0.00  0.00    +0.000 A 
ATOM      9  N   UNL     1      49.234   6.045  18.167  0.00  0.00    +0.000 NA
ATOM     10  C   UNL     1      48.724   5.243  19.043  0.00  0.00    +0.000 A 
ATOM     11  N   UNL     1      47.779   4.289  18.771  0.00  0.00    +0.000 N 
ATOM     12  C   UNL     1      47.310   4.047  17.504  0.00  0.00    +0.000 A 
ATOM     13  O   UNL     1      46.578   3.091  17.271  0.00  0.00    +0.000 OA
ATOM     14  C   UNL     1      47.796   4.970  16.493  0.00  0.00    +0.000 A 
ATOM     15  H   UNL     1      47.451   3.667  19.494  0.00  0.00    +0.000 HD
ENDBRANCH   2   5
BRANCH   3  16
ATOM     16  C   UNL     1      44.328   4.477  13.079  0.00  0.00    +0.000 C 
BRANCH  16  17
ATOM     17  C   UNL     1      44.740   4.399  11.632  0.00  0.00    +0.000 A 
ATOM     18  C   UNL     1      44.312   3.329  10.838  0.00  0.00    +0.000 A 
ATOM     19  C   UNL     1      44.643   3.275   9.483  0.00  0.00    +0.000 A 
ATOM     20  C   UNL     1      45.405   4.292   8.893  0.00  0.00    +0.000 A 
ATOM     21  C   UNL     1      45.870   5.340   9.697  0.00  0.00    +0.000 A 
ATOM     22  C   UNL     1      45.552   5.386  11.058  0.00  0.00    +0.000 A 
BRANCH  20  23
ATOM     23  C   UNL     1      45.721   4.256   7.414  0.00  0.00    +0.000 C 
BRANCH  23  24
ATOM     24  C   UNL     1      46.271   2.946   6.887  0.00  0.00    +0.000 A 
ATOM     25  C   UNL     1      46.519   1.871   7.740  0.00  0.00    +0.000 A 
ATOM     26  C   UNL     1      47.143   0.732   7.236  0.00  0.00    +0.000 A 
ATOM     27  C   UNL     1      47.500   0.688   5.896  0.00  0.00    +0.000 A 
ATOM     28  C   UNL     1      47.206   1.786   5.109  0.00  0.00    +0.000 A 
ATOM     29  N   UNL     1      46.610   2.908   5.571  0.00  0.00    +0.000 NA
ENDBRANCH  23  24
ENDBRANCH  20  23
ENDBRANCH  16  17
ENDBRANCH   3  16
TORSDOF 5
ENDMDL
MODEL 6
REMARK VINA RESULT:    -7.932      1.460      2.265
REMARK INTER + INTRA:         -10.773
REMARK INTER:                  -9.786
REMARK INTRA:                  -0.988
REMARK UNBOUND:                -0.522
REMARK  Name = 
REMARK  5 active torsions:
REMARK  status: ('A' for Active; 'I' for Inactive)
REMARK    1  A    between atoms: C_2  and  C_18
REMARK    2  A    between atoms: N_3  and  C_4
REMARK    3  A    between atoms: C_4  and  C_5
REMARK    4  A    between atoms: C_8  and  C_9
REMARK    5  A    between atoms: C_9  and  C_10
REMARK                            x       y       z     vdW  Elec       q    Type
REMARK                         _______ _______ _______ _____ _____    ______ ____
ROOT
ATOM      1  O   UNL     1      50.025   7.252  14.525  0.00  0.00    +0.000 OA
ATOM      2  C   UNL     1      49.067   7.002  15.251  0.00  0.00    +0.000 C 
ATOM      3  N   UNL     1      47.787   7.375  14.934  0.00  0.00    +0.000 N 
ATOM      4  H   UNL     1      47.055   7.300  15.631  0.00  0.00    +0.000 HD
ENDROOT
BRANCH   2   5
ATOM      5  C   UNL     1      49.233   6.231  16.490  0.00  0.00    +0.000 A 
ATOM      6  C   UNL     1      50.071   6.713  17.488  0.00  0.00    +0.000 A 
ATOM      7  S   UNL     1      50.150   5.707  18.861  0.00  0.00    +0.000 S 
ATOM      8  C   UNL     1      49.035   4.609  18.189  0.00  0.00    +0.000 A 
ATOM      9  N   UNL     1      48.623   3.518  18.886  0.00  0.00    +0.000 NA
ATOM     10  C   UNL     1      47.742   2.796  18.274  0.00  0.00    +0.000 A 
ATOM     11  N   UNL     1      47.255   3.056  17.020  0.00  0.00    +0.000 N 
ATOM     12  C   UNL     1      47.704   4.099  16.249  0.00  0.00    +0.000 A 
ATOM     13  O   UNL     1      47.358   4.216  15.078  0.00  0.00    +0.000 OA
ATOM     14  C   UNL     1      48.642   4.985  16.917  0.00  0.00    +0.000 A 
ATOM     15  H   UNL     1      46.597   2.429  16.583  0.00  0.00    +0.000 HD
ENDBRANCH   2   5
BRANCH   3  16
ATOM     16  C   UNL     1      47.473   8.138  13.755  0.00  0.00    +0.000 C 
BRANCH  16  17
ATOM     17  C   UNL     1      46.622   7.357  12.789  0.00  0.00    +0.000 A 
ATOM     18  C   UNL     1      46.926   6.021  12.507  0.00  0.00    +0.000 A 
ATOM     19  C   UNL     1      46.113   5.273  11.655  0.00  0.00    +0.000 A 
ATOM     20  C   UNL     1      44.975   5.844  11.070  0.00  0.00    +0.000 A 
ATOM     21  C   UNL     1      44.694   7.193  11.318  0.00  0.00    +0.000 A 
ATOM     22  C   UNL     1      45.518   7.948  12.159  0.00  0.00    +0.000 A 
BRANCH  20  23
ATOM     23  C   UNL     1      44.067   5.017  10.186  0.00  0.00    +0.000 C 
BRANCH  23  24
ATOM     24  C   UNL     1      44.759   4.032   9.266  0.00  0.00    +0.000 A 
ATOM     25  C   UNL     1      44.721   2.660   9.515  0.00  0.00    +0.000 A 
ATOM     26  C   UNL     1      45.476   1.802   8.718  0.00  0.00    +0.000 A 
ATOM     27  C   UNL     1      46.246   2.329   7.691  0.00  0.00    +0.000 A 
ATOM     28  C   UNL     1      46.219   3.698   7.495  0.00  0.00    +0.000 A 
ATOM     29  N   UNL     1      45.503   4.556   8.257  0.00  0.00    +0.000 NA
ENDBRANCH  23  24
ENDBRANCH  20  23
ENDBRANCH  16  17
ENDBRANCH   3  16
TORSDOF 5
ENDMDL
MODEL 7
REMARK VINA RESULT:    -7.899      1.886      3.442
REMARK INTER + INTRA:         -10.731
REMARK INTER:                  -9.892
REMARK INTRA:                  -0.838
REMARK UNBOUND:                -0.522
REMARK  Name = 
REMARK  5 active torsions:
REMARK  status: ('A' for Active; 'I' for Inactive)
REMARK    1  A    between atoms: C_2  and  C_18
REMARK    2  A    between atoms: N_3  and  C_4
REMARK    3  A    between atoms: C_4  and  C_5
REMARK    4  A    between atoms: C_8  and  C_9
REMARK    5  A    between atoms: C_9  and  C_10
REMARK                            x       y       z     vdW  Elec       q    Type
REMARK                         _______ _______ _______ _____ _____    ______ ____
ROOT
ATOM      1  O   UNL     1      47.487   4.425  14.628  0.00  0.00    +0.000 OA
ATOM      2  C   UNL     1      47.460   5.596  14.260  0.00  0.00    +0.000 C 
ATOM      3  N   UNL     1      46.351   6.162  13.689  0.00  0.00    +0.000 N 
ATOM      4  H   UNL     1      46.421   7.073  13.249  0.00  0.00    +0.000 HD
ENDROOT
BRANCH   2   5
ATOM      5  C   UNL     1      48.613   6.483  14.462  0.00  0.00    +0.000 A 
ATOM      6  C   UNL     1      49.173   6.600  15.728  0.00  0.00    +0.000 A 
ATOM      7  S   UNL     1      50.505   7.662  15.793  0.00  0.00    +0.000 S 
ATOM      8  C   UNL     1      50.408   7.973  14.121  0.00  0.00    +0.000 A 
ATOM      9  N   UNL     1      51.309   8.786  13.510  0.00  0.00    +0.000 NA
ATOM     10  C   UNL     1      51.144   8.898  12.232  0.00  0.00    +0.000 A 
ATOM     11  N   UNL     1      50.147   8.289  11.518  0.00  0.00    +0.000 N 
ATOM     12  C   UNL     1      49.168   7.528  12.107  0.00  0.00    +0.000 A 
ATOM     13  O   UNL     1      48.207   7.120  11.462  0.00  0.00    +0.000 OA
ATOM     14  C   UNL     1      49.348   7.309  13.532  0.00  0.00    +0.000 A 
ATOM     15  H   UNL     1      50.050   8.450  10.527  0.00  0.00    +0.000 HD
ENDBRANCH   2   5
BRANCH   3  16
ATOM     16  C   UNL     1      45.150   5.414  13.424  0.00  0.00    +0.000 C 
BRANCH  16  17
ATOM     17  C   UNL     1      45.095   4.924  12.002  0.00  0.00    +0.000 A 
ATOM     18  C   UNL     1      44.510   3.687  11.708  0.00  0.00    +0.000 A 
ATOM     19  C   UNL     1      44.405   3.248  10.388  0.00  0.00    +0.000 A 
ATOM     20  C   UNL     1      44.879   4.038   9.332  0.00  0.00    +0.000 A 
ATOM     21  C   UNL     1      45.503   5.257   9.629  0.00  0.00    +0.000 A 
ATOM     22  C   UNL     1      45.623   5.689  10.953  0.00  0.00    +0.000 A 
BRANCH  20  23
ATOM     23  C   UNL     1      44.720   3.583   7.898  0.00  0.00    +0.000 C 
BRANCH  23  24
ATOM     24  C   UNL     1      45.912   2.868   7.296  0.00  0.00    +0.000 A 
ATOM     25  C   UNL     1      46.504   3.316   6.114  0.00  0.00    +0.000 A 
ATOM     26  C   UNL     1      47.515   2.557   5.529  0.00  0.00    +0.000 A 
ATOM     27  C   UNL     1      47.917   1.375   6.134  0.00  0.00    +0.000 A 
ATOM     28  C   UNL     1      47.295   1.005   7.313  0.00  0.00    +0.000 A 
ATOM     29  N   UNL     1      46.306   1.716   7.901  0.00  0.00    +0.000 NA
ENDBRANCH  23  24
ENDBRANCH  20  23
ENDBRANCH  16  17
ENDBRANCH   3  16
TORSDOF 5
ENDMDL
MODEL 8
REMARK VINA RESULT:    -7.603      2.266      3.761
REMARK INTER + INTRA:         -10.348
REMARK INTER:                  -9.797
REMARK INTRA:                  -0.551
REMARK UNBOUND:                -0.522
REMARK  Name = 
REMARK  5 active torsions:
REMARK  status: ('A' for Active; 'I' for Inactive)
REMARK    1  A    between atoms: C_2  and  C_18
REMARK    2  A    between atoms: N_3  and  C_4
REMARK    3  A    between atoms: C_4  and  C_5
REMARK    4  A    between atoms: C_8  and  C_9
REMARK    5  A    between atoms: C_9  and  C_10
REMARK                            x       y       z     vdW  Elec       q    Type
REMARK                         _______ _______ _______ _____ _____    ______ ____
ROOT
ATOM      1  O   UNL     1      48.051   5.031  13.609  0.00  0.00    +0.000 OA
ATOM      2  C   UNL     1      47.450   6.099  13.692  0.00  0.00    +0.000 C 
ATOM      3  N   UNL     1      46.083   6.176  13.671  0.00  0.00    +0.000 N 
ATOM      4  H   UNL     1      45.632   7.080  13.574  0.00  0.00    +0.000 HD
ENDROOT
BRANCH   2   5
ATOM      5  C   UNL     1      48.172   7.364  13.874  0.00  0.00    +0.000 A 
ATOM      6  C   UNL     1      49.390   7.367  14.544  0.00  0.00    +0.000 A 
ATOM      7  S   UNL     1      50.101   8.912  14.666  0.00  0.00    +0.000 S 
ATOM      8  C   UNL     1      48.827   9.628  13.791  0.00  0.00    +0.000 A 
ATOM      9  N   UNL     1      48.841  10.955  13.498  0.00  0.00    +0.000 NA
ATOM     10  C   UNL     1      47.835  11.354  12.791  0.00  0.00    +0.000 A 
ATOM     11  N   UNL     1      46.807  10.552  12.373  0.00  0.00    +0.000 N 
ATOM     12  C   UNL     1      46.710   9.227  12.717  0.00  0.00    +0.000 A 
ATOM     13  O   UNL     1      45.705   8.574  12.452  0.00  0.00    +0.000 OA
ATOM     14  C   UNL     1      47.853   8.708  13.449  0.00  0.00    +0.000 A 
ATOM     15  H   UNL     1      46.030  10.936  11.857  0.00  0.00    +0.000 HD
ENDBRANCH   2   5
BRANCH   3  16
ATOM     16  C   UNL     1      45.245   5.020  13.493  0.00  0.00    +0.000 C 
BRANCH  16  17
ATOM     17  C   UNL     1      45.048   4.686  12.039  0.00  0.00    +0.000 A 
ATOM     18  C   UNL     1      45.530   5.550  11.049  0.00  0.00    +0.000 A 
ATOM     19  C   UNL     1      45.401   5.224   9.698  0.00  0.00    +0.000 A 
ATOM     20  C   UNL     1      44.790   4.024   9.308  0.00  0.00    +0.000 A 
ATOM     21  C   UNL     1      44.270   3.179  10.297  0.00  0.00    +0.000 A 
ATOM     22  C   UNL     1      44.384   3.514  11.650  0.00  0.00    +0.000 A 
BRANCH  20  23
ATOM     23  C   UNL     1      44.695   3.648   7.846  0.00  0.00    +0.000 C 
BRANCH  23  24
ATOM     24  C   UNL     1      45.891   2.913   7.274  0.00  0.00    +0.000 A 
ATOM     25  C   UNL     1      46.507   3.338   6.097  0.00  0.00    +0.000 A 
ATOM     26  C   UNL     1      47.519   2.561   5.539  0.00  0.00    +0.000 A 
ATOM     27  C   UNL     1      47.898   1.384   6.167  0.00  0.00    +0.000 A 
ATOM     28  C   UNL     1      47.253   1.036   7.341  0.00  0.00    +0.000 A 
ATOM     29  N   UNL     1      46.262   1.765   7.901  0.00  0.00    +0.000 NA
ENDBRANCH  23  24
ENDBRANCH  20  23
ENDBRANCH  16  17
ENDBRANCH   3  16
TORSDOF 5
ENDMDL
MODEL 9
REMARK VINA RESULT:    -7.562      2.359      3.188
REMARK INTER + INTRA:         -10.295
REMARK INTER:                  -9.277
REMARK INTRA:                  -1.017
REMARK UNBOUND:                -0.522
REMARK  Name = 
REMARK  5 active torsions:
REMARK  status: ('A' for Active; 'I' for Inactive)
REMARK    1  A    between atoms: C_2  and  C_18
REMARK    2  A    between atoms: N_3  and  C_4
REMARK    3  A    between atoms: C_4  and  C_5
REMARK    4  A    between atoms: C_8  and  C_9
REMARK    5  A    between atoms: C_9  and  C_10
REMARK                            x       y       z     vdW  Elec       q    Type
REMARK                         _______ _______ _______ _____ _____    ______ ____
ROOT
ATOM      1  O   UNL     1      50.106   6.835  14.995  0.00  0.00    +0.000 OA
ATOM      2  C   UNL     1      49.054   6.822  15.629  0.00  0.00    +0.000 C 
ATOM      3  N   UNL     1      47.863   7.221  15.083  0.00  0.00    +0.000 N 
ATOM      4  H   UNL     1      47.055   7.354  15.682  0.00  0.00    +0.000 HD
ENDROOT
BRANCH   2   5
ATOM      5  C   UNL     1      49.005   6.321  17.008  0.00  0.00    +0.000 A 
ATOM      6  C   UNL     1      49.423   5.025  17.281  0.00  0.00    +0.000 A 
ATOM      7  S   UNL     1      49.309   4.600  18.928  0.00  0.00    +0.000 S 
ATOM      8  C   UNL     1      48.734   6.148  19.344  0.00  0.00    +0.000 A 
ATOM      9  N   UNL     1      48.475   6.472  20.638  0.00  0.00    +0.000 NA
ATOM     10  C   UNL     1      48.089   7.693  20.814  0.00  0.00    +0.000 A 
ATOM     11  N   UNL     1      47.917   8.610  19.812  0.00  0.00    +0.000 N 
ATOM     12  C   UNL     1      48.086   8.302  18.485  0.00  0.00    +0.000 A 
ATOM     13  O   UNL     1      47.781   9.100  17.604  0.00  0.00    +0.000 OA
ATOM     14  C   UNL     1      48.592   6.962  18.235  0.00  0.00    +0.000 A 
ATOM     15  H   UNL     1      47.574   9.536  20.013  0.00  0.00    +0.000 HD
ENDBRANCH   2   5
BRANCH   3  16
ATOM     16  C   UNL     1      47.759   7.739  13.745  0.00  0.00    +0.000 C 
BRANCH  16  17
ATOM     17  C   UNL     1      46.799   6.939  12.904  0.00  0.00    +0.000 A 
ATOM     18  C   UNL     1      46.025   7.574  11.927  0.00  0.00    +0.000 A 
ATOM     19  C   UNL     1      45.173   6.835  11.106  0.00  0.00    +0.000 A 
ATOM     20  C   UNL     1      45.080   5.443  11.242  0.00  0.00    +0.000 A 
ATOM     21  C   UNL     1      45.823   4.812  12.248  0.00  0.00    +0.000 A 
ATOM     22  C   UNL     1      46.664   5.556  13.082  0.00  0.00    +0.000 A 
BRANCH  20  23
ATOM     23  C   UNL     1      44.193   4.637  10.318  0.00  0.00    +0.000 C 
BRANCH  23  24
ATOM     24  C   UNL     1      44.911   3.785   9.292  0.00  0.00    +0.000 A 
ATOM     25  C   UNL     1      45.013   2.402   9.443  0.00  0.00    +0.000 A 
ATOM     26  C   UNL     1      45.790   1.674   8.544  0.00  0.00    +0.000 A 
ATOM     27  C   UNL     1      46.441   2.337   7.514  0.00  0.00    +0.000 A 
ATOM     28  C   UNL     1      46.278   3.708   7.419  0.00  0.00    +0.000 A 
ATOM     29  N   UNL     1      45.538   4.442   8.280  0.00  0.00    +0.000 NA
ENDBRANCH  23  24
ENDBRANCH  20  23
ENDBRANCH  16  17
ENDBRANCH   3  16
TORSDOF 5
ENDMDL
