MODEL 1
REMARK VINA RESULT:    -7.824      0.000      0.000
REMARK INTER + INTRA:         -11.707
REMARK INTER:                 -10.797
REMARK INTRA:                  -0.910
REMARK UNBOUND:                -0.910
REMARK  Name = 
REMARK  8 active torsions:
REMARK  status: ('A' for Active; 'I' for Inactive)
REMARK    1  A    between atoms: C_1  and  C_2
REMARK    2  A    between atoms: C_4  and  O_5
REMARK    3  A    between atoms: O_5  and  C_6
REMARK    4  A    between atoms: C_6  and  C_7
REMARK    5  A    between atoms: C_7  and  C_8
REMARK    6  A    between atoms: C_12  and  C_13
REMARK    7  A    between atoms: C_13  and  N_14
REMARK    8  A    between atoms: C_18  and  C_19
REMARK                            x       y       z     vdW  Elec       q    Type
REMARK                         _______ _______ _______ _____ _____    ______ ____
ROOT
ATOM      1  O   UNL     1      43.892   3.331  10.405  0.00  0.00    +0.000 OA
ENDROOT
BRANCH   1   5
ATOM      2  C   UNL     1      46.586   0.153   7.718  0.00  0.00    +0.000 C 
ATOM      3  C   UNL     1      46.129   1.560   7.988  0.00  0.00    +0.000 A 
ATOM      4  C   UNL     1      45.236   1.769   9.060  0.00  0.00    +0.000 A 
ATOM      5  C   UNL     1      44.768   3.043   9.387  0.00  0.00    +0.000 A 
ATOM      6  C   UNL     1      45.202   4.131   8.631  0.00  0.00    +0.000 A 
ATOM      7  C   UNL     1      46.087   3.948   7.559  0.00  0.00    +0.000 A 
ATOM      8  C   UNL     1      46.562   2.667   7.230  0.00  0.00    +0.000 A 
BRANCH   8   9
ATOM      9  C   UNL     1      47.485   2.493   6.063  0.00  0.00    +0.000 C 
ATOM     10  N   UNL     1      48.827   2.585   6.302  0.00  0.00    +0.000 N 
ATOM     11  O   UNL     1      47.086   2.257   4.929  0.00  0.00    +0.000 OA
ATOM     12  H   UNL     1      49.226   2.583   7.228  0.00  0.00    +0.000 HD
ATOM     13  H   UNL     1      49.438   2.378   5.522  0.00  0.00    +0.000 HD
ENDBRANCH   8   9
ENDBRANCH   1   5
BRANCH   1  14
ATOM     14  C   UNL     1      43.437   4.687  10.469  0.00  0.00    +0.000 C 
BRANCH  14  15
ATOM     15  C   UNL     1      43.515   5.209  11.903  0.00  0.00    +0.000 C 
BRANCH  15  16
ATOM     16  C   UNL     1      44.949   5.458  12.312  0.00  0.00    +0.000 A 
ATOM     17  C   UNL     1      45.772   6.297  11.550  0.00  0.00    +0.000 A 
ATOM     18  C   UNL     1      47.081   6.564  11.959  0.00  0.00    +0.000 A 
ATOM     19  C   UNL     1      47.581   5.995  13.132  0.00  0.00    +0.000 A 
ATOM     20  C   UNL     1      46.776   5.155  13.911  0.00  0.00    +0.000 A 
ATOM     21  C   UNL     1      45.460   4.896  13.491  0.00  0.00    +0.000 A 
BRANCH  20  22
ATOM     22  C   UNL     1      47.323   4.511  15.162  0.00  0.00    +0.000 C 
BRANCH  22  23
ATOM     23  N   UNL     1      47.616   3.096  14.963  0.00  0.00    +0.000 NA
ATOM     24  H   UNL     1      48.360   2.825  15.605  0.00  0.00    +0.000 HD
ATOM     25  H   UNL     1      47.984   2.964  14.024  0.00  0.00    +0.000 HD
ENDBRANCH  22  23
ENDBRANCH  20  22
ENDBRANCH  15  16
ENDBRANCH  14  15
ENDBRANCH   1  14
TORSDOF 7
ENDMDL
MODEL 2
REMARK VINA RESULT:    -7.564      1.998      2.549
REMARK INTER + INTRA:         -11.348
REMARK INTER:                 -10.519
REMARK INTRA:                  -0.830
REMARK UNBOUND:                -0.910
REMARK  Name = 
REMARK  8 active torsions:
REMARK  status: ('A' for Active; 'I' for Inactive)
REMARK    1  A    between atoms: C_1  and  C_2
REMARK    2  A    between atoms: C_4  and  O_5
REMARK    3  A    between atoms: O_5  and  C_6
REMARK    4  A    between atoms: C_6  and  C_7
REMARK    5  A    between atoms: C_7  and  C_8
REMARK    6  A    between atoms: C_12  and  C_13
REMARK    7  A    between atoms: C_13  and  N_14
REMARK    8  A    between atoms: C_18  and  C_19
REMARK                            x       y       z     vdW  Elec       q    Type
REMARK                         _______ _______ _______ _____ _____    ______ ____
ROOT
ATOM      1  O   UNL     1      43.609   3.262  10.242  0.00  0.00    +0.000 OA
ENDROOT
BRANCH   1   5
ATOM      2  C   UNL     1      46.630   0.187   7.792  0.00  0.00    +0.000 C 
ATOM      3  C   UNL     1      46.081   1.572   8.002  0.00  0.00    +0.000 A 
ATOM      4  C   UNL     1      45.115   1.752   9.015  0.00  0.00    +0.000 A 
ATOM      5  C   UNL     1      44.558   3.004   9.284  0.00  0.00    +0.000 A 
ATOM      6  C   UNL     1      44.976   4.099   8.529  0.00  0.00    +0.000 A 
ATOM      7  C   UNL     1      45.933   3.944   7.516  0.00  0.00    +0.000 A 
ATOM      8  C   UNL     1      46.496   2.686   7.245  0.00  0.00    +0.000 A 
BRANCH   8   9
ATOM      9  C   UNL     1      47.496   2.540   6.138  0.00  0.00    +0.000 C 
ATOM     10  N   UNL     1      48.817   2.672   6.461  0.00  0.00    +0.000 N 
ATOM     11  O   UNL     1      47.176   2.294   4.982  0.00  0.00    +0.000 OA
ATOM     12  H   UNL     1      49.157   2.682   7.411  0.00  0.00    +0.000 HD
ATOM     13  H   UNL     1      49.481   2.485   5.721  0.00  0.00    +0.000 HD
ENDBRANCH   8   9
ENDBRANCH   1   5
BRANCH   1  14
ATOM     14  C   UNL     1      43.821   2.633  11.512  0.00  0.00    +0.000 C 
BRANCH  14  15
ATOM     15  C   UNL     1      43.583   3.629  12.646  0.00  0.00    +0.000 C 
BRANCH  15  16
ATOM     16  C   UNL     1      44.547   4.790  12.558  0.00  0.00    +0.000 A 
ATOM     17  C   UNL     1      45.880   4.644  12.963  0.00  0.00    +0.000 A 
ATOM     18  C   UNL     1      46.778   5.705  12.832  0.00  0.00    +0.000 A 
ATOM     19  C   UNL     1      46.356   6.922  12.298  0.00  0.00    +0.000 A 
ATOM     20  C   UNL     1      45.029   7.093  11.884  0.00  0.00    +0.000 A 
ATOM     21  C   UNL     1      44.134   6.017  12.017  0.00  0.00    +0.000 A 
BRANCH  20  22
ATOM     22  C   UNL     1      44.560   8.418  11.336  0.00  0.00    +0.000 C 
BRANCH  22  23
ATOM     23  N   UNL     1      43.144   8.392  10.986  0.00  0.00    +0.000 NA
ATOM     24  H   UNL     1      42.778   9.342  11.035  0.00  0.00    +0.000 HD
ATOM     25  H   UNL     1      42.640   7.854  11.687  0.00  0.00    +0.000 HD
ENDBRANCH  22  23
ENDBRANCH  20  22
ENDBRANCH  15  16
ENDBRANCH  14  15
ENDBRANCH   1  14
TORSDOF 7
ENDMDL
MODEL 3
REMARK VINA RESULT:    -6.938      2.442      6.671
REMARK INTER + INTRA:         -10.485
REMARK INTER:                  -9.643
REMARK INTRA:                  -0.841
REMARK UNBOUND:                -0.910
REMARK  Name = 
REMARK  8 active torsions:
REMARK  status: ('A' for Active; 'I' for Inactive)
REMARK    1  A    between atoms: C_1  and  C_2
REMARK    2  A    between atoms: C_4  and  O_5
REMARK    3  A    between atoms: O_5  and  C_6
REMARK    4  A    between atoms: C_6  and  C_7
REMARK    5  A    between atoms: C_7  and  C_8
REMARK    6  A    between atoms: C_12  and  C_13
REMARK    7  A    between atoms: C_13  and  N_14
REMARK    8  A    between atoms: C_18  and  C_19
REMARK                            x       y       z     vdW  Elec       q    Type
REMARK                         _______ _______ _______ _____ _____    ______ ____
ROOT
ATOM      1  O   UNL     1      44.791   3.265  12.626  0.00  0.00    +0.000 OA
ENDROOT
BRANCH   1   5
ATOM      2  C   UNL     1      45.288   8.143  11.897  0.00  0.00    +0.000 C 
ATOM      3  C   UNL     1      45.783   6.868  12.523  0.00  0.00    +0.000 A 
ATOM      4  C   UNL     1      45.054   5.686  12.276  0.00  0.00    +0.000 A 
ATOM      5  C   UNL     1      45.447   4.457  12.810  0.00  0.00    +0.000 A 
ATOM      6  C   UNL     1      46.592   4.407  13.604  0.00  0.00    +0.000 A 
ATOM      7  C   UNL     1      47.331   5.569  13.866  0.00  0.00    +0.000 A 
ATOM      8  C   UNL     1      46.939   6.806  13.327  0.00  0.00    +0.000 A 
BRANCH   8   9
ATOM      9  C   UNL     1      47.729   8.040  13.645  0.00  0.00    +0.000 C 
ATOM     10  N   UNL     1      47.353   8.763  14.742  0.00  0.00    +0.000 N 
ATOM     11  O   UNL     1      48.690   8.403  12.979  0.00  0.00    +0.000 OA
ATOM     12  H   UNL     1      46.705   8.421  15.435  0.00  0.00    +0.000 HD
ATOM     13  H   UNL     1      47.949   9.542  14.992  0.00  0.00    +0.000 HD
ENDBRANCH   8   9
ENDBRANCH   1   5
BRANCH   1  14
ATOM     14  C   UNL     1      43.681   3.299  11.721  0.00  0.00    +0.000 C 
BRANCH  14  15
ATOM     15  C   UNL     1      43.843   2.231  10.640  0.00  0.00    +0.000 C 
BRANCH  15  16
ATOM     16  C   UNL     1      44.733   2.722   9.521  0.00  0.00    +0.000 A 
ATOM     17  C   UNL     1      44.777   4.082   9.189  0.00  0.00    +0.000 A 
ATOM     18  C   UNL     1      45.638   4.537   8.188  0.00  0.00    +0.000 A 
ATOM     19  C   UNL     1      46.463   3.641   7.509  0.00  0.00    +0.000 A 
ATOM     20  C   UNL     1      46.439   2.276   7.824  0.00  0.00    +0.000 A 
ATOM     21  C   UNL     1      45.571   1.830   8.835  0.00  0.00    +0.000 A 
BRANCH  20  22
ATOM     22  C   UNL     1      47.305   1.298   7.070  0.00  0.00    +0.000 C 
BRANCH  22  23
ATOM     23  N   UNL     1      48.443   1.954   6.435  0.00  0.00    +0.000 NA
ATOM     24  H   UNL     1      48.418   2.946   6.667  0.00  0.00    +0.000 HD
ATOM     25  H   UNL     1      48.340   1.892   5.425  0.00  0.00    +0.000 HD
ENDBRANCH  22  23
ENDBRANCH  20  22
ENDBRANCH  15  16
ENDBRANCH  14  15
ENDBRANCH   1  14
TORSDOF 7
ENDMDL
MODEL 4
REMARK VINA RESULT:    -6.862      1.197      1.814
REMARK INTER + INTRA:         -10.379
REMARK INTER:                 -10.198
REMARK INTRA:                  -0.181
REMARK UNBOUND:                -0.910
REMARK  Name = 
REMARK  8 active torsions:
REMARK  status: ('A' for Active; 'I' for Inactive)
REMARK    1  A    between atoms: C_1  and  C_2
REMARK    2  A    between atoms: C_4  and  O_5
REMARK    3  A    between atoms: O_5  and  C_6
REMARK    4  A    between atoms: C_6  and  C_7
REMARK    5  A    between atoms: C_7  and  C_8
REMARK    6  A    between atoms: C_12  and  C_13
REMARK    7  A    between atoms: C_13  and  N_14
REMARK    8  A    between atoms: C_18  and  C_19
REMARK                            x       y       z     vdW  Elec       q    Type
REMARK                         _______ _______ _______ _____ _____    ______ ____
ROOT
ATOM      1  O   UNL     1      43.534   4.738   9.732  0.00  0.00    +0.000 OA
ENDROOT
BRANCH   1   5
ATOM      2  C   UNL     1      47.122   3.728   6.463  0.00  0.00    +0.000 C 
ATOM      3  C   UNL     1      46.175   3.261   7.535  0.00  0.00    +0.000 A 
ATOM      4  C   UNL     1      45.315   4.217   8.116  0.00  0.00    +0.000 A 
ATOM      5  C   UNL     1      44.399   3.870   9.110  0.00  0.00    +0.000 A 
ATOM      6  C   UNL     1      44.338   2.543   9.532  0.00  0.00    +0.000 A 
ATOM      7  C   UNL     1      45.185   1.576   8.972  0.00  0.00    +0.000 A 
ATOM      8  C   UNL     1      46.106   1.923   7.969  0.00  0.00    +0.000 A 
BRANCH   8   9
ATOM      9  C   UNL     1      47.020   0.878   7.406  0.00  0.00    +0.000 C 
ATOM     10  N   UNL     1      46.701  -0.431   7.638  0.00  0.00    +0.000 N 
ATOM     11  O   UNL     1      48.013   1.150   6.743  0.00  0.00    +0.000 OA
ATOM     12  H   UNL     1      45.808  -0.726   8.003  0.00  0.00    +0.000 HD
ATOM     13  H   UNL     1      47.278  -1.123   7.178  0.00  0.00    +0.000 HD
ENDBRANCH   8   9
ENDBRANCH   1   5
BRANCH   1  14
ATOM     14  C   UNL     1      43.309   4.499  11.126  0.00  0.00    +0.000 C 
BRANCH  14  15
ATOM     15  C   UNL     1      43.564   5.772  11.933  0.00  0.00    +0.000 C 
BRANCH  15  16
ATOM     16  C   UNL     1      45.027   5.905  12.286  0.00  0.00    +0.000 A 
ATOM     17  C   UNL     1      45.873   6.724  11.527  0.00  0.00    +0.000 A 
ATOM     18  C   UNL     1      47.213   6.883  11.888  0.00  0.00    +0.000 A 
ATOM     19  C   UNL     1      47.722   6.227  13.009  0.00  0.00    +0.000 A 
ATOM     20  C   UNL     1      46.896   5.405  13.785  0.00  0.00    +0.000 A 
ATOM     21  C   UNL     1      45.549   5.254  13.415  0.00  0.00    +0.000 A 
BRANCH  20  22
ATOM     22  C   UNL     1      47.450   4.667  14.979  0.00  0.00    +0.000 C 
BRANCH  22  23
ATOM     23  N   UNL     1      47.395   3.221  14.800  0.00  0.00    +0.000 NA
ATOM     24  H   UNL     1      46.601   2.997  14.201  0.00  0.00    +0.000 HD
ATOM     25  H   UNL     1      47.208   2.783  15.699  0.00  0.00    +0.000 HD
ENDBRANCH  22  23
ENDBRANCH  20  22
ENDBRANCH  15  16
ENDBRANCH  14  15
ENDBRANCH   1  14
TORSDOF 7
ENDMDL
MODEL 5
REMARK VINA RESULT:    -6.537      1.849      2.596
REMARK INTER + INTRA:          -9.931
REMARK INTER:                 -10.078
REMARK INTRA:                   0.148
REMARK UNBOUND:                -0.910
REMARK  Name = 
REMARK  8 active torsions:
REMARK  status: ('A' for Active; 'I' for Inactive)
REMARK    1  A    between atoms: C_1  and  C_2
REMARK    2  A    between atoms: C_4  and  O_5
REMARK    3  A    between atoms: O_5  and  C_6
REMARK    4  A    between atoms: C_6  and  C_7
REMARK    5  A    between atoms: C_7  and  C_8
REMARK    6  A    between atoms: C_12  and  C_13
REMARK    7  A    between atoms: C_13  and  N_14
REMARK    8  A    between atoms: C_18  and  C_19
REMARK                            x       y       z     vdW  Elec       q    Type
REMARK                         _______ _______ _______ _____ _____    ______ ____
ROOT
ATOM      1  O   UNL     1      43.375   4.758   9.983  0.00  0.00    +0.000 OA
ENDROOT
BRANCH   1   5
ATOM      2  C   UNL     1      46.831   3.748   6.575  0.00  0.00    +0.000 C 
ATOM      3  C   UNL     1      45.963   3.293   7.717  0.00  0.00    +0.000 A 
ATOM      4  C   UNL     1      45.091   4.238   8.299  0.00  0.00    +0.000 A 
ATOM      5  C   UNL     1      44.245   3.900   9.356  0.00  0.00    +0.000 A 
ATOM      6  C   UNL     1      44.266   2.593   9.841  0.00  0.00    +0.000 A 
ATOM      7  C   UNL     1      45.126   1.638   9.281  0.00  0.00    +0.000 A 
ATOM      8  C   UNL     1      45.977   1.975   8.215  0.00  0.00    +0.000 A 
BRANCH   8   9
ATOM      9  C   UNL     1      46.908   0.945   7.651  0.00  0.00    +0.000 C 
ATOM     10  N   UNL     1      47.981   1.391   6.932  0.00  0.00    +0.000 N 
ATOM     11  O   UNL     1      46.754  -0.258   7.826  0.00  0.00    +0.000 OA
ATOM     12  H   UNL     1      48.273   2.357   6.914  0.00  0.00    +0.000 HD
ATOM     13  H   UNL     1      48.646   0.689   6.634  0.00  0.00    +0.000 HD
ENDBRANCH   8   9
ENDBRANCH   1   5
BRANCH   1  14
ATOM     14  C   UNL     1      43.151   4.508  11.376  0.00  0.00    +0.000 C 
BRANCH  14  15
ATOM     15  C   UNL     1      43.453   5.762  12.197  0.00  0.00    +0.000 C 
BRANCH  15  16
ATOM     16  C   UNL     1      44.824   5.681  12.826  0.00  0.00    +0.000 A 
ATOM     17  C   UNL     1      45.329   4.456  13.280  0.00  0.00    +0.000 A 
ATOM     18  C   UNL     1      46.617   4.378  13.815  0.00  0.00    +0.000 A 
ATOM     19  C   UNL     1      47.413   5.520  13.902  0.00  0.00    +0.000 A 
ATOM     20  C   UNL     1      46.931   6.756  13.453  0.00  0.00    +0.000 A 
ATOM     21  C   UNL     1      45.635   6.823  12.914  0.00  0.00    +0.000 A 
BRANCH  20  22
ATOM     22  C   UNL     1      47.775   8.001  13.576  0.00  0.00    +0.000 C 
BRANCH  22  23
ATOM     23  N   UNL     1      47.082   9.061  14.299  0.00  0.00    +0.000 NA
ATOM     24  H   UNL     1      46.123   8.761  14.476  0.00  0.00    +0.000 HD
ATOM     25  H   UNL     1      47.020   9.882  13.702  0.00  0.00    +0.000 HD
ENDBRANCH  22  23
ENDBRANCH  20  22
ENDBRANCH  15  16
ENDBRANCH  14  15
ENDBRANCH   1  14
TORSDOF 7
ENDMDL
MODEL 6
REMARK VINA RESULT:    -6.327      3.653      6.303
REMARK INTER + INTRA:          -9.641
REMARK INTER:                  -9.139
REMARK INTRA:                  -0.501
REMARK UNBOUND:                -0.910
REMARK  Name = 
REMARK  8 active torsions:
REMARK  status: ('A' for Active; 'I' for Inactive)
REMARK    1  A    between atoms: C_1  and  C_2
REMARK    2  A    between atoms: C_4  and  O_5
REMARK    3  A    between atoms: O_5  and  C_6
REMARK    4  A    between atoms: C_6  and  C_7
REMARK    5  A    between atoms: C_7  and  C_8
REMARK    6  A    between atoms: C_12  and  C_13
REMARK    7  A    between atoms: C_13  and  N_14
REMARK    8  A    between atoms: C_18  and  C_19
REMARK                            x       y       z     vdW  Elec       q    Type
REMARK                         _______ _______ _______ _____ _____    ______ ____
ROOT
ATOM      1  O   UNL     1      47.661   3.979  14.744  0.00  0.00    +0.000 OA
ENDROOT
BRANCH   1   5
ATOM      2  C   UNL     1      45.588   7.200  11.596  0.00  0.00    +0.000 C 
ATOM      3  C   UNL     1      45.745   5.787  12.091  0.00  0.00    +0.000 A 
ATOM      4  C   UNL     1      46.622   5.562  13.173  0.00  0.00    +0.000 A 
ATOM      5  C   UNL     1      46.821   4.285  13.701  0.00  0.00    +0.000 A 
ATOM      6  C   UNL     1      46.129   3.212  13.140  0.00  0.00    +0.000 A 
ATOM      7  C   UNL     1      45.255   3.412  12.063  0.00  0.00    +0.000 A 
ATOM      8  C   UNL     1      45.051   4.696  11.531  0.00  0.00    +0.000 A 
BRANCH   8   9
ATOM      9  C   UNL     1      44.134   4.880  10.361  0.00  0.00    +0.000 C 
ATOM     10  N   UNL     1      44.653   4.670   9.114  0.00  0.00    +0.000 N 
ATOM     11  O   UNL     1      42.954   5.187  10.482  0.00  0.00    +0.000 OA
ATOM     12  H   UNL     1      45.548   4.233   8.953  0.00  0.00    +0.000 HD
ATOM     13  H   UNL     1      44.000   4.712   8.342  0.00  0.00    +0.000 HD
ENDBRANCH   8   9
ENDBRANCH   1   5
BRANCH   1  14
ATOM     14  C   UNL     1      47.159   4.273  16.053  0.00  0.00    +0.000 C 
BRANCH  14  15
ATOM     15  C   UNL     1      47.679   3.253  17.065  0.00  0.00    +0.000 C 
BRANCH  15  16
ATOM     16  C   UNL     1      49.170   3.401  17.267  0.00  0.00    +0.000 A 
ATOM     17  C   UNL     1      49.738   4.662  17.490  0.00  0.00    +0.000 A 
ATOM     18  C   UNL     1      51.108   4.788  17.726  0.00  0.00    +0.000 A 
ATOM     19  C   UNL     1      51.926   3.657  17.741  0.00  0.00    +0.000 A 
ATOM     20  C   UNL     1      51.381   2.385  17.523  0.00  0.00    +0.000 A 
ATOM     21  C   UNL     1      50.000   2.270  17.290  0.00  0.00    +0.000 A 
BRANCH  20  22
ATOM     22  C   UNL     1      52.266   1.163  17.506  0.00  0.00    +0.000 C 
BRANCH  22  23
ATOM     23  N   UNL     1      51.672   0.050  18.237  0.00  0.00    +0.000 NA
ATOM     24  H   UNL     1      50.747  -0.137  17.852  0.00  0.00    +0.000 HD
ATOM     25  H   UNL     1      51.529   0.329  19.205  0.00  0.00    +0.000 HD
ENDBRANCH  22  23
ENDBRANCH  20  22
ENDBRANCH  15  16
ENDBRANCH  14  15
ENDBRANCH   1  14
TORSDOF 7
ENDMDL
MODEL 7
REMARK VINA RESULT:    -5.954      4.530      6.411
REMARK INTER + INTRA:          -9.127
REMARK INTER:                  -8.204
REMARK INTRA:                  -0.923
REMARK UNBOUND:                -0.910
REMARK  Name = 
REMARK  8 active torsions:
REMARK  status: ('A' for Active; 'I' for Inactive)
REMARK    1  A    between atoms: C_1  and  C_2
REMARK    2  A    between atoms: C_4  and  O_5
REMARK    3  A    between atoms: O_5  and  C_6
REMARK    4  A    between atoms: C_6  and  C_7
REMARK    5  A    between atoms: C_7  and  C_8
REMARK    6  A    between atoms: C_12  and  C_13
REMARK    7  A    between atoms: C_13  and  N_14
REMARK    8  A    between atoms: C_18  and  C_19
REMARK                            x       y       z     vdW  Elec       q    Type
REMARK                         _______ _______ _______ _____ _____    ______ ____
ROOT
ATOM      1  O   UNL     1      48.935   6.249  13.357  0.00  0.00    +0.000 OA
ENDROOT
BRANCH   1   5
ATOM      2  C   UNL     1      44.721   7.988  11.409  0.00  0.00    +0.000 C 
ATOM      3  C   UNL     1      45.480   6.869  12.069  0.00  0.00    +0.000 A 
ATOM      4  C   UNL     1      46.834   7.094  12.394  0.00  0.00    +0.000 A 
ATOM      5  C   UNL     1      47.611   6.115  13.016  0.00  0.00    +0.000 A 
ATOM      6  C   UNL     1      47.024   4.888  13.323  0.00  0.00    +0.000 A 
ATOM      7  C   UNL     1      45.681   4.641  13.007  0.00  0.00    +0.000 A 
ATOM      8  C   UNL     1      44.896   5.626  12.384  0.00  0.00    +0.000 A 
BRANCH   8   9
ATOM      9  C   UNL     1      43.471   5.328  12.030  0.00  0.00    +0.000 C 
ATOM     10  N   UNL     1      42.518   5.601  12.972  0.00  0.00    +0.000 N 
ATOM     11  O   UNL     1      43.136   4.876  10.942  0.00  0.00    +0.000 OA
ATOM     12  H   UNL     1      42.699   6.146  13.801  0.00  0.00    +0.000 HD
ATOM     13  H   UNL     1      41.555   5.477  12.686  0.00  0.00    +0.000 HD
ENDBRANCH   8   9
ENDBRANCH   1   5
BRANCH   1  14
ATOM     14  C   UNL     1      49.270   7.428  14.098  0.00  0.00    +0.000 C 
BRANCH  14  15
ATOM     15  C   UNL     1      48.685   7.354  15.508  0.00  0.00    +0.000 C 
BRANCH  15  16
ATOM     16  C   UNL     1      49.248   6.176  16.268  0.00  0.00    +0.000 A 
ATOM     17  C   UNL     1      50.599   6.144  16.637  0.00  0.00    +0.000 A 
ATOM     18  C   UNL     1      51.103   5.076  17.383  0.00  0.00    +0.000 A 
ATOM     19  C   UNL     1      50.265   4.029  17.767  0.00  0.00    +0.000 A 
ATOM     20  C   UNL     1      48.910   4.039  17.412  0.00  0.00    +0.000 A 
ATOM     21  C   UNL     1      48.413   5.120  16.664  0.00  0.00    +0.000 A 
BRANCH  20  22
ATOM     22  C   UNL     1      48.007   2.893  17.797  0.00  0.00    +0.000 C 
BRANCH  22  23
ATOM     23  N   UNL     1      46.604   3.193  17.534  0.00  0.00    +0.000 NA
ATOM     24  H   UNL     1      46.030   2.677  18.200  0.00  0.00    +0.000 HD
ATOM     25  H   UNL     1      46.358   2.843  16.611  0.00  0.00    +0.000 HD
ENDBRANCH  22  23
ENDBRANCH  20  22
ENDBRANCH  15  16
ENDBRANCH  14  15
ENDBRANCH   1  14
TORSDOF 7
ENDMDL
MODEL 8
REMARK VINA RESULT:    -5.647      3.178      5.218
REMARK INTER + INTRA:          -8.703
REMARK INTER:                  -7.553
REMARK INTRA:                  -1.150
REMARK UNBOUND:                -0.910
REMARK  Name = 
REMARK  8 active torsions:
REMARK  status: ('A' for Active; 'I' for Inactive)
REMARK    1  A    between atoms: C_1  and  C_2
REMARK    2  A    between atoms: C_4  and  O_5
REMARK    3  A    between atoms: O_5  and  C_6
REMARK    4  A    between atoms: C_6  and  C_7
REMARK    5  A    between atoms: C_7  and  C_8
REMARK    6  A    between atoms: C_12  and  C_13
REMARK    7  A    between atoms: C_13  and  N_14
REMARK    8  A    between atoms: C_18  and  C_19
REMARK                            x       y       z     vdW  Elec       q    Type
REMARK                         _______ _______ _______ _____ _____    ______ ____
ROOT
ATOM      1  O   UNL     1      46.477   8.590  11.965  0.00  0.00    +0.000 OA
ENDROOT
BRANCH   1   5
ATOM      2  C   UNL     1      45.418   4.457   9.440  0.00  0.00    +0.000 C 
ATOM      3  C   UNL     1      45.309   5.271  10.701  0.00  0.00    +0.000 A 
ATOM      4  C   UNL     1      45.941   6.532  10.728  0.00  0.00    +0.000 A 
ATOM      5  C   UNL     1      45.883   7.357  11.853  0.00  0.00    +0.000 A 
ATOM      6  C   UNL     1      45.179   6.915  12.973  0.00  0.00    +0.000 A 
ATOM      7  C   UNL     1      44.545   5.665  12.970  0.00  0.00    +0.000 A 
ATOM      8  C   UNL     1      44.599   4.834  11.838  0.00  0.00    +0.000 A 
BRANCH   8   9
ATOM      9  C   UNL     1      43.939   3.490  11.869  0.00  0.00    +0.000 C 
ATOM     10  N   UNL     1      44.570   2.494  12.560  0.00  0.00    +0.000 N 
ATOM     11  O   UNL     1      42.866   3.263  11.324  0.00  0.00    +0.000 OA
ATOM     12  H   UNL     1      45.344   2.658  13.185  0.00  0.00    +0.000 HD
ATOM     13  H   UNL     1      44.068   1.619  12.645  0.00  0.00    +0.000 HD
ENDBRANCH   8   9
ENDBRANCH   1   5
BRANCH   1  14
ATOM     14  C   UNL     1      47.150   8.846  13.203  0.00  0.00    +0.000 C 
BRANCH  14  15
ATOM     15  C   UNL     1      48.509   8.146  13.225  0.00  0.00    +0.000 C 
BRANCH  15  16
ATOM     16  C   UNL     1      48.640   7.254  14.437  0.00  0.00    +0.000 A 
ATOM     17  C   UNL     1      49.395   7.662  15.544  0.00  0.00    +0.000 A 
ATOM     18  C   UNL     1      49.472   6.856  16.683  0.00  0.00    +0.000 A 
ATOM     19  C   UNL     1      48.796   5.636  16.728  0.00  0.00    +0.000 A 
ATOM     20  C   UNL     1      48.033   5.208  15.634  0.00  0.00    +0.000 A 
ATOM     21  C   UNL     1      47.960   6.028  14.495  0.00  0.00    +0.000 A 
BRANCH  20  22
ATOM     22  C   UNL     1      47.328   3.874  15.665  0.00  0.00    +0.000 C 
BRANCH  22  23
ATOM     23  N   UNL     1      47.243   3.272  14.339  0.00  0.00    +0.000 NA
ATOM     24  H   UNL     1      48.185   3.039  14.026  0.00  0.00    +0.000 HD
ATOM     25  H   UNL     1      46.886   3.963  13.684  0.00  0.00    +0.000 HD
ENDBRANCH  22  23
ENDBRANCH  20  22
ENDBRANCH  15  16
ENDBRANCH  14  15
ENDBRANCH   1  14
TORSDOF 7
ENDMDL
MODEL 9
REMARK VINA RESULT:    -5.591      3.790      6.430
REMARK INTER + INTRA:          -8.625
REMARK INTER:                  -8.080
REMARK INTRA:                  -0.546
REMARK UNBOUND:                -0.910
REMARK  Name = 
REMARK  8 active torsions:
REMARK  status: ('A' for Active; 'I' for Inactive)
REMARK    1  A    between atoms: C_1  and  C_2
REMARK    2  A    between atoms: C_4  and  O_5
REMARK    3  A    between atoms: O_5  and  C_6
REMARK    4  A    between atoms: C_6  and  C_7
REMARK    5  A    between atoms: C_7  and  C_8
REMARK    6  A    between atoms: C_12  and  C_13
REMARK    7  A    between atoms: C_13  and  N_14
REMARK    8  A    between atoms: C_18  and  C_19
REMARK                            x       y       z     vdW  Elec       q    Type
REMARK                         _______ _______ _______ _____ _____    ______ ____
ROOT
ATOM      1  O   UNL     1      47.739   4.434  14.827  0.00  0.00    +0.000 OA
ENDROOT
BRANCH   1   5
ATOM      2  C   UNL     1      45.245   7.379  11.715  0.00  0.00    +0.000 C 
ATOM      3  C   UNL     1      45.563   5.998  12.219  0.00  0.00    +0.000 A 
ATOM      4  C   UNL     1      46.492   5.879  13.274  0.00  0.00    +0.000 A 
ATOM      5  C   UNL     1      46.840   4.637  13.808  0.00  0.00    +0.000 A 
ATOM      6  C   UNL     1      46.247   3.490  13.282  0.00  0.00    +0.000 A 
ATOM      7  C   UNL     1      45.323   3.584  12.231  0.00  0.00    +0.000 A 
ATOM      8  C   UNL     1      44.969   4.833  11.693  0.00  0.00    +0.000 A 
BRANCH   8   9
ATOM      9  C   UNL     1      44.002   4.904  10.552  0.00  0.00    +0.000 C 
ATOM     10  N   UNL     1      44.490   4.671   9.297  0.00  0.00    +0.000 N 
ATOM     11  O   UNL     1      42.810   5.141  10.704  0.00  0.00    +0.000 OA
ATOM     12  H   UNL     1      45.404   4.284   9.121  0.00  0.00    +0.000 HD
ATOM     13  H   UNL     1      43.808   4.636   8.549  0.00  0.00    +0.000 HD
ENDBRANCH   8   9
ENDBRANCH   1   5
BRANCH   1  14
ATOM     14  C   UNL     1      47.236   4.642  16.151  0.00  0.00    +0.000 C 
BRANCH  14  15
ATOM     15  C   UNL     1      47.441   3.389  17.002  0.00  0.00    +0.000 C 
BRANCH  15  16
ATOM     16  C   UNL     1      48.906   3.166  17.294  0.00  0.00    +0.000 A 
ATOM     17  C   UNL     1      49.558   2.013  16.838  0.00  0.00    +0.000 A 
ATOM     18  C   UNL     1      50.924   1.835  17.067  0.00  0.00    +0.000 A 
ATOM     19  C   UNL     1      51.654   2.806  17.753  0.00  0.00    +0.000 A 
ATOM     20  C   UNL     1      51.026   3.968  18.218  0.00  0.00    +0.000 A 
ATOM     21  C   UNL     1      49.651   4.138  17.979  0.00  0.00    +0.000 A 
BRANCH  20  22
ATOM     22  C   UNL     1      51.804   5.006  18.990  0.00  0.00    +0.000 C 
BRANCH  22  23
ATOM     23  N   UNL     1      51.611   6.346  18.448  0.00  0.00    +0.000 NA
ATOM     24  H   UNL     1      52.236   6.469  17.652  0.00  0.00    +0.000 HD
ATOM     25  H   UNL     1      51.897   7.029  19.146  0.00  0.00    +0.000 HD
ENDBRANCH  22  23
ENDBRANCH  20  22
ENDBRANCH  15  16
ENDBRANCH  14  15
ENDBRANCH   1  14
TORSDOF 7
ENDMDL
