MODEL 1
REMARK VINA RESULT:    -7.758      0.000      0.000
REMARK INTER + INTRA:         -12.162
REMARK INTER:                 -10.933
REMARK INTRA:                  -1.229
REMARK UNBOUND:                -1.229
REMARK  Name = 
REMARK  8 active torsions:
REMARK  status: ('A' for Active; 'I' for Inactive)
REMARK    1  A    between atoms: C_1  and  N_2
REMARK    2  A    between atoms: C_4  and  C_5
REMARK    3  A    between atoms: C_5  and  C_7
REMARK    4  A    between atoms: C_8  and  C_9
REMARK    5  A    between atoms: C_12  and  C_13
REMARK    6  A    between atoms: C_13  and  O_14
REMARK    7  A    between atoms: O_14  and  C_15
REMARK    8  A    between atoms: C_15  and  C_16
REMARK                            x       y       z     vdW  Elec       q    Type
REMARK                         _______ _______ _______ _____ _____    ______ ____
ROOT
ATOM      1  C   UNL     1      48.402   6.890  14.255  0.00  0.00    +0.000 C 
ATOM      2  C   UNL     1      47.629   5.794  14.281  0.00  0.00    +0.000 C 
ENDROOT
BRANCH   2   3
ATOM      3  C   UNL     1      46.639   5.514  13.248  0.00  0.00    +0.000 A 
ATOM      4  C   UNL     1      46.660   6.205  12.034  0.00  0.00    +0.000 A 
ATOM      5  C   UNL     1      45.715   5.915  11.046  0.00  0.00    +0.000 A 
ATOM      6  C   UNL     1      44.736   4.934  11.261  0.00  0.00    +0.000 A 
ATOM      7  C   UNL     1      44.728   4.240  12.478  0.00  0.00    +0.000 A 
ATOM      8  C   UNL     1      45.674   4.528  13.464  0.00  0.00    +0.000 A 
BRANCH   6   9
ATOM      9  C   UNL     1      43.707   4.635  10.204  0.00  0.00    +0.000 C 
BRANCH   9  10
ATOM     10  O   UNL     1      44.371   4.204   9.024  0.00  0.00    +0.000 OA
BRANCH  10  11
ATOM     11  C   UNL     1      44.755   2.833   9.106  0.00  0.00    +0.000 C 
BRANCH  11  12
ATOM     12  C   UNL     1      45.783   2.517   8.049  0.00  0.00    +0.000 A 
ATOM     13  C   UNL     1      46.446   1.280   8.064  0.00  0.00    +0.000 A 
ATOM     14  C   UNL     1      47.389   0.968   7.083  0.00  0.00    +0.000 A 
ATOM     15  C   UNL     1      47.671   1.882   6.070  0.00  0.00    +0.000 A 
ATOM     16  C   UNL     1      47.005   3.105   6.031  0.00  0.00    +0.000 A 
ATOM     17  C   UNL     1      46.062   3.418   7.012  0.00  0.00    +0.000 A 
ENDBRANCH  11  12
ENDBRANCH  10  11
ENDBRANCH   9  10
ENDBRANCH   6   9
ENDBRANCH   2   3
BRANCH   1  18
ATOM     18  C   UNL     1      49.361   7.102  15.374  0.00  0.00    +0.000 C 
ATOM     19  O   UNL     1      50.563   6.926  15.232  0.00  0.00    +0.000 OA
BRANCH  18  23
ATOM     20  C   UNL     1      47.558  10.122  18.912  0.00  0.00    +0.000 C 
ATOM     21  N   UNL     1      47.973   8.928  18.213  0.00  0.00    +0.000 N 
ATOM     22  C   UNL     1      48.415   8.873  16.918  0.00  0.00    +0.000 A 
ATOM     23  C   UNL     1      48.761   7.558  16.625  0.00  0.00    +0.000 A 
ATOM     24  C   UNL     1      48.491   6.787  17.813  0.00  0.00    +0.000 A 
ATOM     25  C   UNL     1      48.563   5.470  18.260  0.00  0.00    +0.000 A 
ATOM     26 CL   UNL     1      49.034   4.208  17.231  0.00  0.00    +0.000 Cl
ATOM     27  N   UNL     1      48.197   5.111  19.503  0.00  0.00    +0.000 NA
ATOM     28  C   UNL     1      47.762   6.086  20.310  0.00  0.00    +0.000 A 
ATOM     29  N   UNL     1      47.630   7.390  20.025  0.00  0.00    +0.000 NA
ATOM     30  C   UNL     1      48.007   7.679  18.767  0.00  0.00    +0.000 A 
ENDBRANCH  18  23
ENDBRANCH   1  18
TORSDOF 7
ENDMDL
MODEL 2
REMARK VINA RESULT:    -7.756      1.257      2.333
REMARK INTER + INTRA:         -12.159
REMARK INTER:                 -10.983
REMARK INTRA:                  -1.176
REMARK UNBOUND:                -1.229
REMARK  Name = 
REMARK  8 active torsions:
REMARK  status: ('A' for Active; 'I' for Inactive)
REMARK    1  A    between atoms: C_1  and  N_2
REMARK    2  A    between atoms: C_4  and  C_5
REMARK    3  A    between atoms: C_5  and  C_7
REMARK    4  A    between atoms: C_8  and  C_9
REMARK    5  A    between atoms: C_12  and  C_13
REMARK    6  A    between atoms: C_13  and  O_14
REMARK    7  A    between atoms: O_14  and  C_15
REMARK    8  A    between atoms: C_15  and  C_16
REMARK                            x       y       z     vdW  Elec       q    Type
REMARK                         _______ _______ _______ _____ _____    ______ ____
ROOT
ATOM      1  C   UNL     1      48.084   5.749  15.241  0.00  0.00    +0.000 C 
ATOM      2  C   UNL     1      47.837   6.346  14.065  0.00  0.00    +0.000 C 
ENDROOT
BRANCH   2   3
ATOM      3  C   UNL     1      46.765   5.909  13.178  0.00  0.00    +0.000 A 
ATOM      4  C   UNL     1      46.652   6.430  11.886  0.00  0.00    +0.000 A 
ATOM      5  C   UNL     1      45.629   5.991  11.042  0.00  0.00    +0.000 A 
ATOM      6  C   UNL     1      44.705   5.030  11.479  0.00  0.00    +0.000 A 
ATOM      7  C   UNL     1      44.832   4.508  12.772  0.00  0.00    +0.000 A 
ATOM      8  C   UNL     1      45.856   4.944  13.615  0.00  0.00    +0.000 A 
BRANCH   6   9
ATOM      9  C   UNL     1      43.593   4.571  10.574  0.00  0.00    +0.000 C 
BRANCH   9  10
ATOM     10  O   UNL     1      44.146   4.184   9.324  0.00  0.00    +0.000 OA
BRANCH  10  11
ATOM     11  C   UNL     1      44.508   2.805   9.313  0.00  0.00    +0.000 C 
BRANCH  11  12
ATOM     12  C   UNL     1      45.562   2.552   8.264  0.00  0.00    +0.000 A 
ATOM     13  C   UNL     1      45.916   3.571   7.366  0.00  0.00    +0.000 A 
ATOM     14  C   UNL     1      46.901   3.355   6.401  0.00  0.00    +0.000 A 
ATOM     15  C   UNL     1      47.551   2.125   6.329  0.00  0.00    +0.000 A 
ATOM     16  C   UNL     1      47.224   1.112   7.227  0.00  0.00    +0.000 A 
ATOM     17  C   UNL     1      46.240   1.327   8.194  0.00  0.00    +0.000 A 
ENDBRANCH  11  12
ENDBRANCH  10  11
ENDBRANCH   9  10
ENDBRANCH   6   9
ENDBRANCH   2   3
BRANCH   1  18
ATOM     18  C   UNL     1      49.222   6.248  16.060  0.00  0.00    +0.000 C 
ATOM     19  O   UNL     1      50.266   6.626  15.546  0.00  0.00    +0.000 OA
BRANCH  18  23
ATOM     20  C   UNL     1      48.805   4.744  20.797  0.00  0.00    +0.000 C 
ATOM     21  N   UNL     1      48.781   5.581  19.620  0.00  0.00    +0.000 N 
ATOM     22  C   UNL     1      49.211   5.216  18.372  0.00  0.00    +0.000 A 
ATOM     23  C   UNL     1      48.983   6.276  17.500  0.00  0.00    +0.000 A 
ATOM     24  C   UNL     1      48.398   7.335  18.284  0.00  0.00    +0.000 A 
ATOM     25  C   UNL     1      47.938   8.640  18.124  0.00  0.00    +0.000 A 
ATOM     26 CL   UNL     1      48.063   9.450  16.641  0.00  0.00    +0.000 Cl
ATOM     27  N   UNL     1      47.438   9.356  19.146  0.00  0.00    +0.000 NA
ATOM     28  C   UNL     1      47.390   8.753  20.341  0.00  0.00    +0.000 A 
ATOM     29  N   UNL     1      47.798   7.514  20.651  0.00  0.00    +0.000 NA
ATOM     30  C   UNL     1      48.293   6.856  19.587  0.00  0.00    +0.000 A 
ENDBRANCH  18  23
ENDBRANCH   1  18
TORSDOF 7
ENDMDL
MODEL 3
REMARK VINA RESULT:    -7.368      1.368      2.108
REMARK INTER + INTRA:         -11.612
REMARK INTER:                 -10.529
REMARK INTRA:                  -1.083
REMARK UNBOUND:                -1.229
REMARK  Name = 
REMARK  8 active torsions:
REMARK  status: ('A' for Active; 'I' for Inactive)
REMARK    1  A    between atoms: C_1  and  N_2
REMARK    2  A    between atoms: C_4  and  C_5
REMARK    3  A    between atoms: C_5  and  C_7
REMARK    4  A    between atoms: C_8  and  C_9
REMARK    5  A    between atoms: C_12  and  C_13
REMARK    6  A    between atoms: C_13  and  O_14
REMARK    7  A    between atoms: O_14  and  C_15
REMARK    8  A    between atoms: C_15  and  C_16
REMARK                            x       y       z     vdW  Elec       q    Type
REMARK                         _______ _______ _______ _____ _____    ______ ____
ROOT
ATOM      1  C   UNL     1      48.077   6.132  15.021  0.00  0.00    +0.000 C 
ATOM      2  C   UNL     1      47.874   6.379  13.719  0.00  0.00    +0.000 C 
ENDROOT
BRANCH   2   3
ATOM      3  C   UNL     1      46.820   5.722  12.954  0.00  0.00    +0.000 A 
ATOM      4  C   UNL     1      46.327   4.474  13.347  0.00  0.00    +0.000 A 
ATOM      5  C   UNL     1      45.306   3.863  12.614  0.00  0.00    +0.000 A 
ATOM      6  C   UNL     1      44.768   4.489  11.480  0.00  0.00    +0.000 A 
ATOM      7  C   UNL     1      45.263   5.743  11.100  0.00  0.00    +0.000 A 
ATOM      8  C   UNL     1      46.281   6.355  11.834  0.00  0.00    +0.000 A 
BRANCH   6   9
ATOM      9  C   UNL     1      43.681   3.822  10.681  0.00  0.00    +0.000 C 
BRANCH   9  10
ATOM     10  O   UNL     1      44.178   3.531   9.381  0.00  0.00    +0.000 OA
BRANCH  10  11
ATOM     11  C   UNL     1      44.937   2.325   9.365  0.00  0.00    +0.000 C 
BRANCH  11  12
ATOM     12  C   UNL     1      45.842   2.296   8.159  0.00  0.00    +0.000 A 
ATOM     13  C   UNL     1      46.525   1.117   7.823  0.00  0.00    +0.000 A 
ATOM     14  C   UNL     1      47.353   1.072   6.701  0.00  0.00    +0.000 A 
ATOM     15  C   UNL     1      47.500   2.199   5.895  0.00  0.00    +0.000 A 
ATOM     16  C   UNL     1      46.811   3.369   6.205  0.00  0.00    +0.000 A 
ATOM     17  C   UNL     1      45.982   3.415   7.327  0.00  0.00    +0.000 A 
ENDBRANCH  11  12
ENDBRANCH  10  11
ENDBRANCH   9  10
ENDBRANCH   6   9
ENDBRANCH   2   3
BRANCH   1  18
ATOM     18  C   UNL     1      49.200   6.829  15.705  0.00  0.00    +0.000 C 
ATOM     19  O   UNL     1      50.281   6.285  15.883  0.00  0.00    +0.000 OA
BRANCH  18  23
ATOM     20  C   UNL     1      49.137  11.817  15.747  0.00  0.00    +0.000 C 
ATOM     21  N   UNL     1      48.915  10.442  16.131  0.00  0.00    +0.000 N 
ATOM     22  C   UNL     1      49.249   9.342  15.389  0.00  0.00    +0.000 A 
ATOM     23  C   UNL     1      48.917   8.202  16.115  0.00  0.00    +0.000 A 
ATOM     24  C   UNL     1      48.336   8.658  17.352  0.00  0.00    +0.000 A 
ATOM     25  C   UNL     1      47.777   8.135  18.517  0.00  0.00    +0.000 A 
ATOM     26 CL   UNL     1      47.565   6.466  18.726  0.00  0.00    +0.000 Cl
ATOM     27  N   UNL     1      47.310   8.917  19.504  0.00  0.00    +0.000 NA
ATOM     28  C   UNL     1      47.412  10.240  19.328  0.00  0.00    +0.000 A 
ATOM     29  N   UNL     1      47.915  10.890  18.268  0.00  0.00    +0.000 NA
ATOM     30  C   UNL     1      48.358  10.050  17.316  0.00  0.00    +0.000 A 
ENDBRANCH  18  23
ENDBRANCH   1  18
TORSDOF 7
ENDMDL
MODEL 4
REMARK VINA RESULT:    -7.327      4.410      5.787
REMARK INTER + INTRA:         -11.555
REMARK INTER:                 -10.176
REMARK INTRA:                  -1.379
REMARK UNBOUND:                -1.229
REMARK  Name = 
REMARK  8 active torsions:
REMARK  status: ('A' for Active; 'I' for Inactive)
REMARK    1  A    between atoms: C_1  and  N_2
REMARK    2  A    between atoms: C_4  and  C_5
REMARK    3  A    between atoms: C_5  and  C_7
REMARK    4  A    between atoms: C_8  and  C_9
REMARK    5  A    between atoms: C_12  and  C_13
REMARK    6  A    between atoms: C_13  and  O_14
REMARK    7  A    between atoms: O_14  and  C_15
REMARK    8  A    between atoms: C_15  and  C_16
REMARK                            x       y       z     vdW  Elec       q    Type
REMARK                         _______ _______ _______ _____ _____    ______ ____
ROOT
ATOM      1  C   UNL     1      48.936   7.099  12.561  0.00  0.00    +0.000 C 
ATOM      2  C   UNL     1      47.833   6.896  13.295  0.00  0.00    +0.000 C 
ENDROOT
BRANCH   2   3
ATOM      3  C   UNL     1      46.695   6.130  12.799  0.00  0.00    +0.000 A 
ATOM      4  C   UNL     1      46.240   5.003  13.488  0.00  0.00    +0.000 A 
ATOM      5  C   UNL     1      45.139   4.287  13.010  0.00  0.00    +0.000 A 
ATOM      6  C   UNL     1      44.482   4.687  11.838  0.00  0.00    +0.000 A 
ATOM      7  C   UNL     1      44.940   5.824  11.159  0.00  0.00    +0.000 A 
ATOM      8  C   UNL     1      46.038   6.541  11.638  0.00  0.00    +0.000 A 
BRANCH   6   9
ATOM      9  C   UNL     1      43.307   3.905  11.313  0.00  0.00    +0.000 C 
BRANCH   9  10
ATOM     10  O   UNL     1      43.571   3.524   9.970  0.00  0.00    +0.000 OA
BRANCH  10  11
ATOM     11  C   UNL     1      44.400   2.366   9.904  0.00  0.00    +0.000 C 
BRANCH  11  12
ATOM     12  C   UNL     1      45.418   2.517   8.801  0.00  0.00    +0.000 A 
ATOM     13  C   UNL     1      46.098   1.389   8.316  0.00  0.00    +0.000 A 
ATOM     14  C   UNL     1      47.031   1.512   7.285  0.00  0.00    +0.000 A 
ATOM     15  C   UNL     1      47.286   2.760   6.719  0.00  0.00    +0.000 A 
ATOM     16  C   UNL     1      46.602   3.884   7.176  0.00  0.00    +0.000 A 
ATOM     17  C   UNL     1      45.669   3.762   8.207  0.00  0.00    +0.000 A 
ENDBRANCH  11  12
ENDBRANCH  10  11
ENDBRANCH   9  10
ENDBRANCH   6   9
ENDBRANCH   2   3
BRANCH   1  18
ATOM     18  C   UNL     1      50.030   7.922  13.144  0.00  0.00    +0.000 C 
ATOM     19  O   UNL     1      50.227   7.966  14.351  0.00  0.00    +0.000 OA
BRANCH  18  23
ATOM     20  C   UNL     1      54.005   9.428  10.534  0.00  0.00    +0.000 C 
ATOM     21  N   UNL     1      52.650   9.318  11.022  0.00  0.00    +0.000 N 
ATOM     22  C   UNL     1      52.198   8.390  11.922  0.00  0.00    +0.000 A 
ATOM     23  C   UNL     1      50.852   8.637  12.173  0.00  0.00    +0.000 A 
ATOM     24  C   UNL     1      50.484   9.769  11.359  0.00  0.00    +0.000 A 
ATOM     25  C   UNL     1      49.364  10.547  11.071  0.00  0.00    +0.000 A 
ATOM     26 CL   UNL     1      47.844  10.191  11.730  0.00  0.00    +0.000 Cl
ATOM     27  N   UNL     1      49.406  11.574  10.205  0.00  0.00    +0.000 NA
ATOM     28  C   UNL     1      50.586  11.830   9.627  0.00  0.00    +0.000 A 
ATOM     29  N   UNL     1      51.742  11.172   9.795  0.00  0.00    +0.000 NA
ATOM     30  C   UNL     1      51.630  10.155  10.667  0.00  0.00    +0.000 A 
ENDBRANCH  18  23
ENDBRANCH   1  18
TORSDOF 7
ENDMDL
MODEL 5
REMARK VINA RESULT:    -7.189      1.936      3.147
REMARK INTER + INTRA:         -11.359
REMARK INTER:                 -10.090
REMARK INTRA:                  -1.269
REMARK UNBOUND:                -1.229
REMARK  Name = 
REMARK  8 active torsions:
REMARK  status: ('A' for Active; 'I' for Inactive)
REMARK    1  A    between atoms: C_1  and  N_2
REMARK    2  A    between atoms: C_4  and  C_5
REMARK    3  A    between atoms: C_5  and  C_7
REMARK    4  A    between atoms: C_8  and  C_9
REMARK    5  A    between atoms: C_12  and  C_13
REMARK    6  A    between atoms: C_13  and  O_14
REMARK    7  A    between atoms: O_14  and  C_15
REMARK    8  A    between atoms: C_15  and  C_16
REMARK                            x       y       z     vdW  Elec       q    Type
REMARK                         _______ _______ _______ _____ _____    ______ ____
ROOT
ATOM      1  C   UNL     1      48.280   6.134  15.099  0.00  0.00    +0.000 C 
ATOM      2  C   UNL     1      47.902   6.641  13.916  0.00  0.00    +0.000 C 
ENDROOT
BRANCH   2   3
ATOM      3  C   UNL     1      46.834   6.048  13.118  0.00  0.00    +0.000 A 
ATOM      4  C   UNL     1      46.004   5.063  13.659  0.00  0.00    +0.000 A 
ATOM      5  C   UNL     1      44.975   4.515  12.888  0.00  0.00    +0.000 A 
ATOM      6  C   UNL     1      44.767   4.941  11.568  0.00  0.00    +0.000 A 
ATOM      7  C   UNL     1      45.600   5.935  11.038  0.00  0.00    +0.000 A 
ATOM      8  C   UNL     1      46.626   6.485  11.809  0.00  0.00    +0.000 A 
BRANCH   6   9
ATOM      9  C   UNL     1      43.670   4.336  10.732  0.00  0.00    +0.000 C 
BRANCH   9  10
ATOM     10  O   UNL     1      44.174   4.079   9.429  0.00  0.00    +0.000 OA
BRANCH  10  11
ATOM     11  C   UNL     1      44.451   2.693   9.235  0.00  0.00    +0.000 C 
BRANCH  11  12
ATOM     12  C   UNL     1      45.555   2.520   8.223  0.00  0.00    +0.000 A 
ATOM     13  C   UNL     1      46.278   1.318   8.172  0.00  0.00    +0.000 A 
ATOM     14  C   UNL     1      47.291   1.139   7.230  0.00  0.00    +0.000 A 
ATOM     15  C   UNL     1      47.587   2.151   6.320  0.00  0.00    +0.000 A 
ATOM     16  C   UNL     1      46.863   3.341   6.345  0.00  0.00    +0.000 A 
ATOM     17  C   UNL     1      45.849   3.522   7.287  0.00  0.00    +0.000 A 
ENDBRANCH  11  12
ENDBRANCH  10  11
ENDBRANCH   9  10
ENDBRANCH   6   9
ENDBRANCH   2   3
BRANCH   1  18
ATOM     18  C   UNL     1      49.401   6.793  15.822  0.00  0.00    +0.000 C 
ATOM     19  O   UNL     1      50.490   6.250  15.951  0.00  0.00    +0.000 OA
BRANCH  18  23
ATOM     20  C   UNL     1      47.579  10.451  18.683  0.00  0.00    +0.000 C 
ATOM     21  N   UNL     1      48.267   9.762  17.616  0.00  0.00    +0.000 N 
ATOM     22  C   UNL     1      48.439   8.407  17.520  0.00  0.00    +0.000 A 
ATOM     23  C   UNL     1      49.108   8.129  16.333  0.00  0.00    +0.000 A 
ATOM     24  C   UNL     1      49.361   9.399  15.698  0.00  0.00    +0.000 A 
ATOM     25  C   UNL     1      49.969   9.907  14.551  0.00  0.00    +0.000 A 
ATOM     26 CL   UNL     1      50.773   8.899  13.452  0.00  0.00    +0.000 Cl
ATOM     27  N   UNL     1      50.016  11.224  14.287  0.00  0.00    +0.000 NA
ATOM     28  C   UNL     1      49.441  12.041  15.177  0.00  0.00    +0.000 A 
ATOM     29  N   UNL     1      48.828  11.706  16.322  0.00  0.00    +0.000 NA
ATOM     30  C   UNL     1      48.821  10.377  16.529  0.00  0.00    +0.000 A 
ENDBRANCH  18  23
ENDBRANCH   1  18
TORSDOF 7
ENDMDL
MODEL 6
REMARK VINA RESULT:    -7.125      3.960      5.067
REMARK INTER + INTRA:         -11.269
REMARK INTER:                  -9.858
REMARK INTRA:                  -1.411
REMARK UNBOUND:                -1.229
REMARK  Name = 
REMARK  8 active torsions:
REMARK  status: ('A' for Active; 'I' for Inactive)
REMARK    1  A    between atoms: C_1  and  N_2
REMARK    2  A    between atoms: C_4  and  C_5
REMARK    3  A    between atoms: C_5  and  C_7
REMARK    4  A    between atoms: C_8  and  C_9
REMARK    5  A    between atoms: C_12  and  C_13
REMARK    6  A    between atoms: C_13  and  O_14
REMARK    7  A    between atoms: O_14  and  C_15
REMARK    8  A    between atoms: C_15  and  C_16
REMARK                            x       y       z     vdW  Elec       q    Type
REMARK                         _______ _______ _______ _____ _____    ______ ____
ROOT
ATOM      1  C   UNL     1      47.226   8.287  13.577  0.00  0.00    +0.000 C 
ATOM      2  C   UNL     1      47.612   7.196  12.899  0.00  0.00    +0.000 C 
ENDROOT
BRANCH   2   3
ATOM      3  C   UNL     1      46.673   6.154  12.497  0.00  0.00    +0.000 A 
ATOM      4  C   UNL     1      46.490   5.017  13.287  0.00  0.00    +0.000 A 
ATOM      5  C   UNL     1      45.576   4.034  12.898  0.00  0.00    +0.000 A 
ATOM      6  C   UNL     1      44.837   4.175  11.713  0.00  0.00    +0.000 A 
ATOM      7  C   UNL     1      45.022   5.323  10.932  0.00  0.00    +0.000 A 
ATOM      8  C   UNL     1      45.933   6.307  11.323  0.00  0.00    +0.000 A 
BRANCH   6   9
ATOM      9  C   UNL     1      43.866   3.107  11.285  0.00  0.00    +0.000 C 
BRANCH   9  10
ATOM     10  O   UNL     1      43.828   3.063   9.865  0.00  0.00    +0.000 OA
BRANCH  10  11
ATOM     11  C   UNL     1      44.430   1.873   9.359  0.00  0.00    +0.000 C 
BRANCH  11  12
ATOM     12  C   UNL     1      45.546   2.219   8.406  0.00  0.00    +0.000 A 
ATOM     13  C   UNL     1      46.450   1.227   7.995  0.00  0.00    +0.000 A 
ATOM     14  C   UNL     1      47.478   1.531   7.102  0.00  0.00    +0.000 A 
ATOM     15  C   UNL     1      47.608   2.824   6.598  0.00  0.00    +0.000 A 
ATOM     16  C   UNL     1      46.705   3.813   6.982  0.00  0.00    +0.000 A 
ATOM     17  C   UNL     1      45.676   3.510   7.875  0.00  0.00    +0.000 A 
ENDBRANCH  11  12
ENDBRANCH  10  11
ENDBRANCH   9  10
ENDBRANCH   6   9
ENDBRANCH   2   3
BRANCH   1  18
ATOM     18  C   UNL     1      48.265   9.277  13.970  0.00  0.00    +0.000 C 
ATOM     19  O   UNL     1      48.494   9.537  15.143  0.00  0.00    +0.000 OA
BRANCH  18  23
ATOM     20  C   UNL     1      49.228  11.867   9.817  0.00  0.00    +0.000 C 
ATOM     21  N   UNL     1      49.408  11.033  10.982  0.00  0.00    +0.000 N 
ATOM     22  C   UNL     1      48.451  10.753  11.921  0.00  0.00    +0.000 A 
ATOM     23  C   UNL     1      48.995   9.882  12.859  0.00  0.00    +0.000 A 
ATOM     24  C   UNL     1      50.360   9.647  12.460  0.00  0.00    +0.000 A 
ATOM     25  C   UNL     1      51.482   8.939  12.887  0.00  0.00    +0.000 A 
ATOM     26 CL   UNL     1      51.477   8.060  14.336  0.00  0.00    +0.000 Cl
ATOM     27  N   UNL     1      52.648   8.971  12.219  0.00  0.00    +0.000 NA
ATOM     28  C   UNL     1      52.688   9.712  11.106  0.00  0.00    +0.000 A 
ATOM     29  N   UNL     1      51.702  10.449  10.575  0.00  0.00    +0.000 NA
ATOM     30  C   UNL     1      50.567  10.379  11.293  0.00  0.00    +0.000 A 
ENDBRANCH  18  23
ENDBRANCH   1  18
TORSDOF 7
ENDMDL
MODEL 7
REMARK VINA RESULT:    -6.808      1.865      2.576
REMARK INTER + INTRA:         -10.823
REMARK INTER:                  -9.965
REMARK INTRA:                  -0.858
REMARK UNBOUND:                -1.229
REMARK  Name = 
REMARK  8 active torsions:
REMARK  status: ('A' for Active; 'I' for Inactive)
REMARK    1  A    between atoms: C_1  and  N_2
REMARK    2  A    between atoms: C_4  and  C_5
REMARK    3  A    between atoms: C_5  and  C_7
REMARK    4  A    between atoms: C_8  and  C_9
REMARK    5  A    between atoms: C_12  and  C_13
REMARK    6  A    between atoms: C_13  and  O_14
REMARK    7  A    between atoms: O_14  and  C_15
REMARK    8  A    between atoms: C_15  and  C_16
REMARK                            x       y       z     vdW  Elec       q    Type
REMARK                         _______ _______ _______ _____ _____    ______ ____
ROOT
ATOM      1  C   UNL     1      48.764   8.126  13.964  0.00  0.00    +0.000 C 
ATOM      2  C   UNL     1      48.280   6.903  14.222  0.00  0.00    +0.000 C 
ENDROOT
BRANCH   2   3
ATOM      3  C   UNL     1      47.323   6.240  13.342  0.00  0.00    +0.000 A 
ATOM      4  C   UNL     1      46.799   4.988  13.673  0.00  0.00    +0.000 A 
ATOM      5  C   UNL     1      45.872   4.372  12.828  0.00  0.00    +0.000 A 
ATOM      6  C   UNL     1      45.460   4.998  11.642  0.00  0.00    +0.000 A 
ATOM      7  C   UNL     1      45.985   6.257  11.323  0.00  0.00    +0.000 A 
ATOM      8  C   UNL     1      46.910   6.874  12.169  0.00  0.00    +0.000 A 
BRANCH   6   9
ATOM      9  C   UNL     1      44.476   4.325  10.724  0.00  0.00    +0.000 C 
BRANCH   9  10
ATOM     10  O   UNL     1      44.798   2.944  10.635  0.00  0.00    +0.000 OA
BRANCH  10  11
ATOM     11  C   UNL     1      44.379   2.383   9.393  0.00  0.00    +0.000 C 
BRANCH  11  12
ATOM     12  C   UNL     1      45.512   2.419   8.398  0.00  0.00    +0.000 A 
ATOM     13  C   UNL     1      46.261   1.260   8.146  0.00  0.00    +0.000 A 
ATOM     14  C   UNL     1      47.302   1.276   7.217  0.00  0.00    +0.000 A 
ATOM     15  C   UNL     1      47.599   2.445   6.519  0.00  0.00    +0.000 A 
ATOM     16  C   UNL     1      46.850   3.597   6.744  0.00  0.00    +0.000 A 
ATOM     17  C   UNL     1      45.808   3.583   7.673  0.00  0.00    +0.000 A 
ENDBRANCH  11  12
ENDBRANCH  10  11
ENDBRANCH   9  10
ENDBRANCH   6   9
ENDBRANCH   2   3
BRANCH   1  18
ATOM     18  C   UNL     1      49.711   8.730  14.940  0.00  0.00    +0.000 C 
ATOM     19  O   UNL     1      50.083   9.891  14.840  0.00  0.00    +0.000 OA
BRANCH  18  23
ATOM     20  C   UNL     1      52.048   5.077  17.405  0.00  0.00    +0.000 C 
ATOM     21  N   UNL     1      51.173   6.188  17.112  0.00  0.00    +0.000 N 
ATOM     22  C   UNL     1      51.129   6.882  15.932  0.00  0.00    +0.000 A 
ATOM     23  C   UNL     1      50.131   7.846  16.023  0.00  0.00    +0.000 A 
ATOM     24  C   UNL     1      49.563   7.725  17.343  0.00  0.00    +0.000 A 
ATOM     25  C   UNL     1      48.584   8.324  18.134  0.00  0.00    +0.000 A 
ATOM     26 CL   UNL     1      47.707   9.670  17.592  0.00  0.00    +0.000 Cl
ATOM     27  N   UNL     1      48.329   7.921  19.390  0.00  0.00    +0.000 NA
ATOM     28  C   UNL     1      49.056   6.899  19.857  0.00  0.00    +0.000 A 
ATOM     29  N   UNL     1      50.030   6.229  19.224  0.00  0.00    +0.000 NA
ATOM     30  C   UNL     1      50.239   6.686  17.977  0.00  0.00    +0.000 A 
ENDBRANCH  18  23
ENDBRANCH   1  18
TORSDOF 7
ENDMDL
MODEL 8
REMARK VINA RESULT:    -6.524      3.394      4.565
REMARK INTER + INTRA:         -10.423
REMARK INTER:                  -9.266
REMARK INTRA:                  -1.156
REMARK UNBOUND:                -1.229
REMARK  Name = 
REMARK  8 active torsions:
REMARK  status: ('A' for Active; 'I' for Inactive)
REMARK    1  A    between atoms: C_1  and  N_2
REMARK    2  A    between atoms: C_4  and  C_5
REMARK    3  A    between atoms: C_5  and  C_7
REMARK    4  A    between atoms: C_8  and  C_9
REMARK    5  A    between atoms: C_12  and  C_13
REMARK    6  A    between atoms: C_13  and  O_14
REMARK    7  A    between atoms: O_14  and  C_15
REMARK    8  A    between atoms: C_15  and  C_16
REMARK                            x       y       z     vdW  Elec       q    Type
REMARK                         _______ _______ _______ _____ _____    ______ ____
ROOT
ATOM      1  C   UNL     1      48.435   8.137  13.172  0.00  0.00    +0.000 C 
ATOM      2  C   UNL     1      47.944   7.114  13.886  0.00  0.00    +0.000 C 
ENDROOT
BRANCH   2   3
ATOM      3  C   UNL     1      47.085   6.093  13.298  0.00  0.00    +0.000 A 
ATOM      4  C   UNL     1      46.970   4.831  13.888  0.00  0.00    +0.000 A 
ATOM      5  C   UNL     1      46.132   3.868  13.322  0.00  0.00    +0.000 A 
ATOM      6  C   UNL     1      45.401   4.151  12.159  0.00  0.00    +0.000 A 
ATOM      7  C   UNL     1      45.516   5.421  11.579  0.00  0.00    +0.000 A 
ATOM      8  C   UNL     1      46.352   6.386  12.147  0.00  0.00    +0.000 A 
BRANCH   6   9
ATOM      9  C   UNL     1      44.512   3.106  11.539  0.00  0.00    +0.000 C 
BRANCH   9  10
ATOM     10  O   UNL     1      44.340   3.407  10.161  0.00  0.00    +0.000 OA
BRANCH  10  11
ATOM     11  C   UNL     1      44.399   2.233   9.354  0.00  0.00    +0.000 C 
BRANCH  11  12
ATOM     12  C   UNL     1      45.551   2.326   8.384  0.00  0.00    +0.000 A 
ATOM     13  C   UNL     1      45.866   3.555   7.786  0.00  0.00    +0.000 A 
ATOM     14  C   UNL     1      46.938   3.659   6.898  0.00  0.00    +0.000 A 
ATOM     15  C   UNL     1      47.715   2.539   6.608  0.00  0.00    +0.000 A 
ATOM     16  C   UNL     1      47.426   1.317   7.211  0.00  0.00    +0.000 A 
ATOM     17  C   UNL     1      46.354   1.213   8.099  0.00  0.00    +0.000 A 
ENDBRANCH  11  12
ENDBRANCH  10  11
ENDBRANCH   9  10
ENDBRANCH   6   9
ENDBRANCH   2   3
BRANCH   1  18
ATOM     18  C   UNL     1      49.277   9.146  13.872  0.00  0.00    +0.000 C 
ATOM     19  O   UNL     1      48.903  10.301  14.022  0.00  0.00    +0.000 OA
BRANCH  18  23
ATOM     20  C   UNL     1      52.817   7.621  17.038  0.00  0.00    +0.000 C 
ATOM     21  N   UNL     1      52.137   7.981  15.815  0.00  0.00    +0.000 N 
ATOM     22  C   UNL     1      50.816   8.322  15.707  0.00  0.00    +0.000 A 
ATOM     23  C   UNL     1      50.550   8.644  14.380  0.00  0.00    +0.000 A 
ATOM     24  C   UNL     1      51.786   8.466  13.659  0.00  0.00    +0.000 A 
ATOM     25  C   UNL     1      52.280   8.572  12.360  0.00  0.00    +0.000 A 
ATOM     26 CL   UNL     1      51.269   8.962  11.056  0.00  0.00    +0.000 Cl
ATOM     27  N   UNL     1      53.560   8.302  12.053  0.00  0.00    +0.000 NA
ATOM     28  C   UNL     1      54.358   7.930  13.062  0.00  0.00    +0.000 A 
ATOM     29  N   UNL     1      54.031   7.778  14.353  0.00  0.00    +0.000 NA
ATOM     30  C   UNL     1      52.738   8.056  14.590  0.00  0.00    +0.000 A 
ENDBRANCH  18  23
ENDBRANCH   1  18
TORSDOF 7
ENDMDL
MODEL 9
REMARK VINA RESULT:    -6.324      4.470      9.461
REMARK INTER + INTRA:         -10.140
REMARK INTER:                  -8.442
REMARK INTRA:                  -1.698
REMARK UNBOUND:                -1.229
REMARK  Name = 
REMARK  8 active torsions:
REMARK  status: ('A' for Active; 'I' for Inactive)
REMARK    1  A    between atoms: C_1  and  N_2
REMARK    2  A    between atoms: C_4  and  C_5
REMARK    3  A    between atoms: C_5  and  C_7
REMARK    4  A    between atoms: C_8  and  C_9
REMARK    5  A    between atoms: C_12  and  C_13
REMARK    6  A    between atoms: C_13  and  O_14
REMARK    7  A    between atoms: O_14  and  C_15
REMARK    8  A    between atoms: C_15  and  C_16
REMARK                            x       y       z     vdW  Elec       q    Type
REMARK                         _______ _______ _______ _____ _____    ______ ____
ROOT
ATOM      1  C   UNL     1      47.261   4.808  15.520  0.00  0.00    +0.000 C 
ATOM      2  C   UNL     1      47.299   4.043  16.620  0.00  0.00    +0.000 C 
ENDROOT
BRANCH   2   3
ATOM      3  C   UNL     1      47.750   4.554  17.910  0.00  0.00    +0.000 A 
ATOM      4  C   UNL     1      49.005   4.204  18.415  0.00  0.00    +0.000 A 
ATOM      5  C   UNL     1      49.431   4.713  19.645  0.00  0.00    +0.000 A 
ATOM      6  C   UNL     1      48.608   5.575  20.385  0.00  0.00    +0.000 A 
ATOM      7  C   UNL     1      47.355   5.927  19.866  0.00  0.00    +0.000 A 
ATOM      8  C   UNL     1      46.931   5.420  18.636  0.00  0.00    +0.000 A 
BRANCH   6   9
ATOM      9  C   UNL     1      49.060   6.108  21.718  0.00  0.00    +0.000 C 
BRANCH   9  10
ATOM     10  O   UNL     1      48.927   7.523  21.716  0.00  0.00    +0.000 OA
BRANCH  10  11
ATOM     11  C   UNL     1      49.940   8.147  20.930  0.00  0.00    +0.000 C 
BRANCH  11  12
ATOM     12  C   UNL     1      49.370   8.596  19.608  0.00  0.00    +0.000 A 
ATOM     13  C   UNL     1      48.274   9.472  19.579  0.00  0.00    +0.000 A 
ATOM     14  C   UNL     1      47.746   9.908  18.363  0.00  0.00    +0.000 A 
ATOM     15  C   UNL     1      48.313   9.485  17.163  0.00  0.00    +0.000 A 
ATOM     16  C   UNL     1      49.415   8.632  17.178  0.00  0.00    +0.000 A 
ATOM     17  C   UNL     1      49.944   8.196  18.394  0.00  0.00    +0.000 A 
ENDBRANCH  11  12
ENDBRANCH  10  11
ENDBRANCH   9  10
ENDBRANCH   6   9
ENDBRANCH   2   3
BRANCH   1  18
ATOM     18  C   UNL     1      46.815   4.185  14.244  0.00  0.00    +0.000 C 
ATOM     19  O   UNL     1      47.265   3.113  13.860  0.00  0.00    +0.000 OA
BRANCH  18  23
ATOM     20  C   UNL     1      42.583   5.259  11.830  0.00  0.00    +0.000 C 
ATOM     21  N   UNL     1      43.897   5.393  12.415  0.00  0.00    +0.000 N 
ATOM     22  C   UNL     1      44.534   4.450  13.176  0.00  0.00    +0.000 A 
ATOM     23  C   UNL     1      45.795   4.931  13.514  0.00  0.00    +0.000 A 
ATOM     24  C   UNL     1      45.901   6.246  12.931  0.00  0.00    +0.000 A 
ATOM     25  C   UNL     1      46.809   7.300  12.855  0.00  0.00    +0.000 A 
ATOM     26 CL   UNL     1      48.290   7.257  13.679  0.00  0.00    +0.000 Cl
ATOM     27  N   UNL     1      46.538   8.435  12.189  0.00  0.00    +0.000 NA
ATOM     28  C   UNL     1      45.347   8.512  11.584  0.00  0.00    +0.000 A 
ATOM     29  N   UNL     1      44.372   7.592  11.572  0.00  0.00    +0.000 NA
ATOM     30  C   UNL     1      44.704   6.485  12.261  0.00  0.00    +0.000 A 
ENDBRANCH  18  23
ENDBRANCH   1  18
TORSDOF 7
ENDMDL
