MODEL 1
REMARK VINA RESULT:    -8.637      0.000      0.000
REMARK INTER + INTRA:         -13.107
REMARK INTER:                 -12.171
REMARK INTRA:                  -0.935
REMARK UNBOUND:                -0.935
REMARK  Name = 
REMARK  9 active torsions:
REMARK  status: ('A' for Active; 'I' for Inactive)
REMARK    1  A    between atoms: C_1  and  C_2
REMARK    2  A    between atoms: C_2  and  C_3
REMARK    3  A    between atoms: C_2  and  C_14
REMARK    4  A    between atoms: C_3  and  O_4
REMARK    5  A    between atoms: O_4  and  C_5
REMARK    6  A    between atoms: C_8  and  C_9
REMARK    7  A    between atoms: C_18  and  O_19
REMARK    8  A    between atoms: O_19  and  C_20
REMARK    9  A    between atoms: N_23  and  C_24
REMARK                            x       y       z     vdW  Elec       q    Type
REMARK                         _______ _______ _______ _____ _____    ______ ____
ROOT
ATOM      1  C   UNL     1      42.281   5.767  11.911  0.00  0.00    +0.000 C 
ATOM      2  C   UNL     1      43.316   4.687  12.253  0.00  0.00    +0.000 C 
ENDROOT
BRANCH   2   3
ATOM      3  C   UNL     1      44.637   5.326  12.676  0.00  0.00    +0.000 A 
ATOM      4  C   UNL     1      44.898   6.682  12.415  0.00  0.00    +0.000 A 
ATOM      5  C   UNL     1      46.103   7.268  12.798  0.00  0.00    +0.000 A 
ATOM      6  C   UNL     1      47.065   6.516  13.473  0.00  0.00    +0.000 A 
ATOM      7  C   UNL     1      46.819   5.177  13.770  0.00  0.00    +0.000 A 
ATOM      8  C   UNL     1      45.625   4.578  13.341  0.00  0.00    +0.000 A 
BRANCH   7   9
ATOM      9  O   UNL     1      47.704   4.369  14.432  0.00  0.00    +0.000 OA
BRANCH   9  10
ATOM     10  C   UNL     1      47.567   4.324  15.865  0.00  0.00    +0.000 C 
ATOM     11  C   UNL     1      48.448   5.383  16.542  0.00  0.00    +0.000 C 
ATOM     12  C   UNL     1      49.415   4.609  17.430  0.00  0.00    +0.000 C 
ATOM     13  N   UNL     1      49.509   3.316  16.763  0.00  0.00    +0.000 NA
ATOM     14  C   UNL     1      50.143   2.291  17.576  0.00  0.00    +0.000 C 
ATOM     15  C   UNL     1      48.130   2.989  16.382  0.00  0.00    +0.000 C 
ENDBRANCH   9  10
ENDBRANCH   7   9
ENDBRANCH   2   3
BRANCH   2  16
ATOM     16  C   UNL     1      43.532   3.724  11.070  0.00  0.00    +0.000 C 
BRANCH  16  17
ATOM     17  O   UNL     1      43.791   4.428   9.842  0.00  0.00    +0.000 OA
BRANCH  17  18
ATOM     18  C   UNL     1      44.755   3.783   9.086  0.00  0.00    +0.000 A 
ATOM     19  C   UNL     1      44.887   2.412   9.230  0.00  0.00    +0.000 A 
ATOM     20  C   UNL     1      45.843   1.751   8.449  0.00  0.00    +0.000 A 
ATOM     21  C   UNL     1      46.634   2.477   7.552  0.00  0.00    +0.000 A 
ATOM     22  C   UNL     1      46.427   3.847   7.493  0.00  0.00    +0.000 A 
ATOM     23  N   UNL     1      45.512   4.511   8.237  0.00  0.00    +0.000 NA
BRANCH  21  24
ATOM     24  C   UNL     1      47.632   1.784   6.702  0.00  0.00    +0.000 C 
ATOM     25  N   UNL     1      48.704   2.488   6.223  0.00  0.00    +0.000 N 
ATOM     26  O   UNL     1      47.500   0.598   6.420  0.00  0.00    +0.000 OA
ATOM     27  H   UNL     1      48.899   3.464   6.377  0.00  0.00    +0.000 HD
ATOM     28  H   UNL     1      49.352   1.977   5.637  0.00  0.00    +0.000 HD
ENDBRANCH  21  24
ENDBRANCH  17  18
ENDBRANCH  16  17
ENDBRANCH   2  16
TORSDOF 7
ENDMDL
MODEL 2
REMARK VINA RESULT:    -8.609      0.988      1.229
REMARK INTER + INTRA:         -13.068
REMARK INTER:                 -11.948
REMARK INTRA:                  -1.119
REMARK UNBOUND:                -0.935
REMARK  Name = 
REMARK  9 active torsions:
REMARK  status: ('A' for Active; 'I' for Inactive)
REMARK    1  A    between atoms: C_1  and  C_2
REMARK    2  A    between atoms: C_2  and  C_3
REMARK    3  A    between atoms: C_2  and  C_14
REMARK    4  A    between atoms: C_3  and  O_4
REMARK    5  A    between atoms: O_4  and  C_5
REMARK    6  A    between atoms: C_8  and  C_9
REMARK    7  A    between atoms: C_18  and  O_19
REMARK    8  A    between atoms: O_19  and  C_20
REMARK    9  A    between atoms: N_23  and  C_24
REMARK                            x       y       z     vdW  Elec       q    Type
REMARK                         _______ _______ _______ _____ _____    ______ ____
ROOT
ATOM      1  C   UNL     1      42.687   5.316  12.065  0.00  0.00    +0.000 C 
ATOM      2  C   UNL     1      43.774   4.320  12.494  0.00  0.00    +0.000 C 
ENDROOT
BRANCH   2   3
ATOM      3  C   UNL     1      45.123   5.024  12.626  0.00  0.00    +0.000 A 
ATOM      4  C   UNL     1      45.585   5.891  11.622  0.00  0.00    +0.000 A 
ATOM      5  C   UNL     1      46.816   6.534  11.739  0.00  0.00    +0.000 A 
ATOM      6  C   UNL     1      47.602   6.342  12.874  0.00  0.00    +0.000 A 
ATOM      7  C   UNL     1      47.154   5.510  13.898  0.00  0.00    +0.000 A 
ATOM      8  C   UNL     1      45.936   4.827  13.757  0.00  0.00    +0.000 A 
BRANCH   7   9
ATOM      9  O   UNL     1      47.858   5.270  15.048  0.00  0.00    +0.000 OA
BRANCH   9  10
ATOM     10  C   UNL     1      47.359   4.208  15.883  0.00  0.00    +0.000 C 
ATOM     11  C   UNL     1      47.396   4.603  17.367  0.00  0.00    +0.000 C 
ATOM     12  C   UNL     1      48.318   3.592  18.039  0.00  0.00    +0.000 C 
ATOM     13  N   UNL     1      49.201   3.180  16.954  0.00  0.00    +0.000 NA
ATOM     14  C   UNL     1      49.986   1.998  17.265  0.00  0.00    +0.000 C 
ATOM     15  C   UNL     1      48.317   3.007  15.795  0.00  0.00    +0.000 C 
ENDBRANCH   9  10
ENDBRANCH   7   9
ENDBRANCH   2   3
BRANCH   2  16
ATOM     16  C   UNL     1      43.871   3.138  11.510  0.00  0.00    +0.000 C 
BRANCH  16  17
ATOM     17  O   UNL     1      43.541   3.529  10.165  0.00  0.00    +0.000 OA
BRANCH  17  18
ATOM     18  C   UNL     1      44.515   3.118   9.270  0.00  0.00    +0.000 A 
ATOM     19  C   UNL     1      45.118   4.079   8.477  0.00  0.00    +0.000 A 
ATOM     20  C   UNL     1      46.122   3.673   7.589  0.00  0.00    +0.000 A 
ATOM     21  C   UNL     1      46.490   2.325   7.522  0.00  0.00    +0.000 A 
ATOM     22  C   UNL     1      45.816   1.443   8.354  0.00  0.00    +0.000 A 
ATOM     23  N   UNL     1      44.842   1.809   9.219  0.00  0.00    +0.000 NA
BRANCH  21  24
ATOM     24  C   UNL     1      47.570   1.888   6.603  0.00  0.00    +0.000 C 
ATOM     25  N   UNL     1      48.635   2.718   6.383  0.00  0.00    +0.000 N 
ATOM     26  O   UNL     1      47.511   0.802   6.038  0.00  0.00    +0.000 OA
ATOM     27  H   UNL     1      48.775   3.634   6.779  0.00  0.00    +0.000 HD
ATOM     28  H   UNL     1      49.341   2.384   5.740  0.00  0.00    +0.000 HD
ENDBRANCH  21  24
ENDBRANCH  17  18
ENDBRANCH  16  17
ENDBRANCH   2  16
TORSDOF 7
ENDMDL
MODEL 3
REMARK VINA RESULT:    -7.667      2.506      3.814
REMARK INTER + INTRA:         -11.740
REMARK INTER:                 -10.706
REMARK INTRA:                  -1.035
REMARK UNBOUND:                -0.935
REMARK  Name = 
REMARK  9 active torsions:
REMARK  status: ('A' for Active; 'I' for Inactive)
REMARK    1  A    between atoms: C_1  and  C_2
REMARK    2  A    between atoms: C_2  and  C_3
REMARK    3  A    between atoms: C_2  and  C_14
REMARK    4  A    between atoms: C_3  and  O_4
REMARK    5  A    between atoms: O_4  and  C_5
REMARK    6  A    between atoms: C_8  and  C_9
REMARK    7  A    between atoms: C_18  and  O_19
REMARK    8  A    between atoms: O_19  and  C_20
REMARK    9  A    between atoms: N_23  and  C_24
REMARK                            x       y       z     vdW  Elec       q    Type
REMARK                         _______ _______ _______ _____ _____    ______ ____
ROOT
ATOM      1  C   UNL     1      42.568   5.479  11.891  0.00  0.00    +0.000 C 
ATOM      2  C   UNL     1      43.411   4.251  12.262  0.00  0.00    +0.000 C 
ENDROOT
BRANCH   2   3
ATOM      3  C   UNL     1      44.788   4.679  12.765  0.00  0.00    +0.000 A 
ATOM      4  C   UNL     1      45.746   3.724  13.143  0.00  0.00    +0.000 A 
ATOM      5  C   UNL     1      47.004   4.112  13.604  0.00  0.00    +0.000 A 
ATOM      6  C   UNL     1      47.338   5.464  13.673  0.00  0.00    +0.000 A 
ATOM      7  C   UNL     1      46.416   6.431  13.276  0.00  0.00    +0.000 A 
ATOM      8  C   UNL     1      45.135   6.039  12.858  0.00  0.00    +0.000 A 
BRANCH   7   9
ATOM      9  O   UNL     1      46.663   7.777  13.306  0.00  0.00    +0.000 OA
BRANCH   9  10
ATOM     10  C   UNL     1      48.050   8.164  13.337  0.00  0.00    +0.000 C 
ATOM     11  C   UNL     1      48.283   9.327  14.312  0.00  0.00    +0.000 C 
ATOM     12  C   UNL     1      48.829  10.471  13.466  0.00  0.00    +0.000 C 
ATOM     13  N   UNL     1      48.279  10.194  12.144  0.00  0.00    +0.000 NA
ATOM     14  C   UNL     1      48.893  10.978  11.087  0.00  0.00    +0.000 C 
ATOM     15  C   UNL     1      48.439   8.746  11.967  0.00  0.00    +0.000 C 
ENDBRANCH   9  10
ENDBRANCH   7   9
ENDBRANCH   2   3
BRANCH   2  16
ATOM     16  C   UNL     1      43.544   3.282  11.070  0.00  0.00    +0.000 C 
BRANCH  16  17
ATOM     17  O   UNL     1      43.614   3.980   9.814  0.00  0.00    +0.000 OA
BRANCH  17  18
ATOM     18  C   UNL     1      44.611   3.461   9.007  0.00  0.00    +0.000 A 
ATOM     19  C   UNL     1      45.011   2.154   9.222  0.00  0.00    +0.000 A 
ATOM     20  C   UNL     1      46.001   1.616   8.392  0.00  0.00    +0.000 A 
ATOM     21  C   UNL     1      46.559   2.398   7.375  0.00  0.00    +0.000 A 
ATOM     22  C   UNL     1      46.095   3.699   7.251  0.00  0.00    +0.000 A 
ATOM     23  N   UNL     1      45.140   4.243   8.040  0.00  0.00    +0.000 NA
BRANCH  21  24
ATOM     24  C   UNL     1      47.591   1.830   6.473  0.00  0.00    +0.000 C 
ATOM     25  N   UNL     1      48.821   2.427   6.407  0.00  0.00    +0.000 N 
ATOM     26  O   UNL     1      47.350   0.845   5.785  0.00  0.00    +0.000 OA
ATOM     27  H   UNL     1      49.119   3.246   6.912  0.00  0.00    +0.000 HD
ATOM     28  H   UNL     1      49.489   2.013   5.769  0.00  0.00    +0.000 HD
ENDBRANCH  21  24
ENDBRANCH  17  18
ENDBRANCH  16  17
ENDBRANCH   2  16
TORSDOF 7
ENDMDL
MODEL 4
REMARK VINA RESULT:    -7.326      2.003      2.414
REMARK INTER + INTRA:         -11.260
REMARK INTER:                 -10.295
REMARK INTRA:                  -0.965
REMARK UNBOUND:                -0.935
REMARK  Name = 
REMARK  9 active torsions:
REMARK  status: ('A' for Active; 'I' for Inactive)
REMARK    1  A    between atoms: C_1  and  C_2
REMARK    2  A    between atoms: C_2  and  C_3
REMARK    3  A    between atoms: C_2  and  C_14
REMARK    4  A    between atoms: C_3  and  O_4
REMARK    5  A    between atoms: O_4  and  C_5
REMARK    6  A    between atoms: C_8  and  C_9
REMARK    7  A    between atoms: C_18  and  O_19
REMARK    8  A    between atoms: O_19  and  C_20
REMARK    9  A    between atoms: N_23  and  C_24
REMARK                            x       y       z     vdW  Elec       q    Type
REMARK                         _______ _______ _______ _____ _____    ______ ____
ROOT
ATOM      1  C   UNL     1      44.541   4.076  13.124  0.00  0.00    +0.000 C 
ATOM      2  C   UNL     1      45.348   4.599  11.928  0.00  0.00    +0.000 C 
ENDROOT
BRANCH   2   3
ATOM      3  C   UNL     1      46.326   5.683  12.376  0.00  0.00    +0.000 A 
ATOM      4  C   UNL     1      46.379   6.922  11.717  0.00  0.00    +0.000 A 
ATOM      5  C   UNL     1      47.272   7.914  12.122  0.00  0.00    +0.000 A 
ATOM      6  C   UNL     1      48.114   7.695  13.211  0.00  0.00    +0.000 A 
ATOM      7  C   UNL     1      48.061   6.486  13.901  0.00  0.00    +0.000 A 
ATOM      8  C   UNL     1      47.196   5.472  13.461  0.00  0.00    +0.000 A 
BRANCH   7   9
ATOM      9  O   UNL     1      48.847   6.190  14.983  0.00  0.00    +0.000 OA
BRANCH   9  10
ATOM     10  C   UNL     1      49.490   7.310  15.620  0.00  0.00    +0.000 C 
ATOM     11  C   UNL     1      51.015   7.136  15.646  0.00  0.00    +0.000 C 
ATOM     12  C   UNL     1      51.404   7.123  17.120  0.00  0.00    +0.000 C 
ATOM     13  N   UNL     1      50.197   6.631  17.773  0.00  0.00    +0.000 NA
ATOM     14  C   UNL     1      50.208   6.806  19.215  0.00  0.00    +0.000 C 
ATOM     15  C   UNL     1      49.095   7.336  17.107  0.00  0.00    +0.000 C 
ENDBRANCH   9  10
ENDBRANCH   7   9
ENDBRANCH   2   3
BRANCH   2  16
ATOM     16  C   UNL     1      44.423   5.126  10.815  0.00  0.00    +0.000 C 
BRANCH  16  17
ATOM     17  O   UNL     1      43.820   4.058  10.064  0.00  0.00    +0.000 OA
BRANCH  17  18
ATOM     18  C   UNL     1      44.727   3.486   9.188  0.00  0.00    +0.000 A 
ATOM     19  C   UNL     1      45.399   4.318   8.310  0.00  0.00    +0.000 A 
ATOM     20  C   UNL     1      46.336   3.748   7.440  0.00  0.00    +0.000 A 
ATOM     21  C   UNL     1      46.572   2.369   7.475  0.00  0.00    +0.000 A 
ATOM     22  C   UNL     1      45.838   1.625   8.386  0.00  0.00    +0.000 A 
ATOM     23  N   UNL     1      44.925   2.150   9.236  0.00  0.00    +0.000 NA
BRANCH  21  24
ATOM     24  C   UNL     1      47.581   1.758   6.575  0.00  0.00    +0.000 C 
ATOM     25  N   UNL     1      48.722   2.455   6.282  0.00  0.00    +0.000 N 
ATOM     26  O   UNL     1      47.398   0.648   6.090  0.00  0.00    +0.000 OA
ATOM     27  H   UNL     1      48.965   3.376   6.611  0.00  0.00    +0.000 HD
ATOM     28  H   UNL     1      49.376   2.004   5.655  0.00  0.00    +0.000 HD
ENDBRANCH  21  24
ENDBRANCH  17  18
ENDBRANCH  16  17
ENDBRANCH   2  16
TORSDOF 7
ENDMDL
MODEL 5
REMARK VINA RESULT:    -7.252      2.870      5.216
REMARK INTER + INTRA:         -11.155
REMARK INTER:                 -10.264
REMARK INTRA:                  -0.891
REMARK UNBOUND:                -0.935
REMARK  Name = 
REMARK  9 active torsions:
REMARK  status: ('A' for Active; 'I' for Inactive)
REMARK    1  A    between atoms: C_1  and  C_2
REMARK    2  A    between atoms: C_2  and  C_3
REMARK    3  A    between atoms: C_2  and  C_14
REMARK    4  A    between atoms: C_3  and  O_4
REMARK    5  A    between atoms: O_4  and  C_5
REMARK    6  A    between atoms: C_8  and  C_9
REMARK    7  A    between atoms: C_18  and  O_19
REMARK    8  A    between atoms: O_19  and  C_20
REMARK    9  A    between atoms: N_23  and  C_24
REMARK                            x       y       z     vdW  Elec       q    Type
REMARK                         _______ _______ _______ _____ _____    ______ ____
ROOT
ATOM      1  C   UNL     1      42.909   5.002  12.809  0.00  0.00    +0.000 C 
ATOM      2  C   UNL     1      44.276   4.308  12.897  0.00  0.00    +0.000 C 
ENDROOT
BRANCH   2   3
ATOM      3  C   UNL     1      45.400   5.341  12.925  0.00  0.00    +0.000 A 
ATOM      4  C   UNL     1      46.588   5.096  13.632  0.00  0.00    +0.000 A 
ATOM      5  C   UNL     1      47.616   6.038  13.660  0.00  0.00    +0.000 A 
ATOM      6  C   UNL     1      47.486   7.237  12.960  0.00  0.00    +0.000 A 
ATOM      7  C   UNL     1      46.330   7.492  12.226  0.00  0.00    +0.000 A 
ATOM      8  C   UNL     1      45.278   6.563  12.239  0.00  0.00    +0.000 A 
BRANCH   7   9
ATOM      9  O   UNL     1      46.122   8.639  11.507  0.00  0.00    +0.000 OA
BRANCH   9  10
ATOM     10  C   UNL     1      45.053   9.487  11.967  0.00  0.00    +0.000 C 
ATOM     11  C   UNL     1      43.858   9.448  11.004  0.00  0.00    +0.000 C 
ATOM     12  C   UNL     1      43.680  10.878  10.508  0.00  0.00    +0.000 C 
ATOM     13  N   UNL     1      45.023  11.435  10.623  0.00  0.00    +0.000 NA
ATOM     14  C   UNL     1      45.062  12.881  10.490  0.00  0.00    +0.000 C 
ATOM     15  C   UNL     1      45.518  10.953  11.919  0.00  0.00    +0.000 C 
ENDBRANCH   9  10
ENDBRANCH   7   9
ENDBRANCH   2   3
BRANCH   2  16
ATOM     16  C   UNL     1      44.476   3.316  11.735  0.00  0.00    +0.000 C 
BRANCH  16  17
ATOM     17  O   UNL     1      43.985   3.841  10.488  0.00  0.00    +0.000 OA
BRANCH  17  18
ATOM     18  C   UNL     1      44.842   3.538   9.444  0.00  0.00    +0.000 A 
ATOM     19  C   UNL     1      45.146   2.208   9.215  0.00  0.00    +0.000 A 
ATOM     20  C   UNL     1      45.991   1.893   8.144  0.00  0.00    +0.000 A 
ATOM     21  C   UNL     1      46.504   2.915   7.337  0.00  0.00    +0.000 A 
ATOM     22  C   UNL     1      46.144   4.215   7.659  0.00  0.00    +0.000 A 
ATOM     23  N   UNL     1      45.331   4.546   8.689  0.00  0.00    +0.000 NA
BRANCH  21  24
ATOM     24  C   UNL     1      47.379   2.592   6.184  0.00  0.00    +0.000 C 
ATOM     25  N   UNL     1      48.732   2.506   6.378  0.00  0.00    +0.000 N 
ATOM     26  O   UNL     1      46.906   2.413   5.068  0.00  0.00    +0.000 OA
ATOM     27  H   UNL     1      49.225   2.650   7.244  0.00  0.00    +0.000 HD
ATOM     28  H   UNL     1      49.291   2.295   5.560  0.00  0.00    +0.000 HD
ENDBRANCH  21  24
ENDBRANCH  17  18
ENDBRANCH  16  17
ENDBRANCH   2  16
TORSDOF 7
ENDMDL
MODEL 6
REMARK VINA RESULT:    -7.155      2.485      3.163
REMARK INTER + INTRA:         -11.018
REMARK INTER:                 -10.290
REMARK INTRA:                  -0.728
REMARK UNBOUND:                -0.935
REMARK  Name = 
REMARK  9 active torsions:
REMARK  status: ('A' for Active; 'I' for Inactive)
REMARK    1  A    between atoms: C_1  and  C_2
REMARK    2  A    between atoms: C_2  and  C_3
REMARK    3  A    between atoms: C_2  and  C_14
REMARK    4  A    between atoms: C_3  and  O_4
REMARK    5  A    between atoms: O_4  and  C_5
REMARK    6  A    between atoms: C_8  and  C_9
REMARK    7  A    between atoms: C_18  and  O_19
REMARK    8  A    between atoms: O_19  and  C_20
REMARK    9  A    between atoms: N_23  and  C_24
REMARK                            x       y       z     vdW  Elec       q    Type
REMARK                         _______ _______ _______ _____ _____    ______ ____
ROOT
ATOM      1  C   UNL     1      45.654   4.050  12.786  0.00  0.00    +0.000 C 
ATOM      2  C   UNL     1      45.252   4.838  11.531  0.00  0.00    +0.000 C 
ENDROOT
BRANCH   2   3
ATOM      3  C   UNL     1      45.494   6.332  11.737  0.00  0.00    +0.000 A 
ATOM      4  C   UNL     1      44.495   7.272  11.434  0.00  0.00    +0.000 A 
ATOM      5  C   UNL     1      44.714   8.637  11.620  0.00  0.00    +0.000 A 
ATOM      6  C   UNL     1      45.929   9.088  12.134  0.00  0.00    +0.000 A 
ATOM      7  C   UNL     1      46.925   8.174  12.470  0.00  0.00    +0.000 A 
ATOM      8  C   UNL     1      46.720   6.805  12.238  0.00  0.00    +0.000 A 
BRANCH   7   9
ATOM      9  O   UNL     1      48.143   8.530  12.985  0.00  0.00    +0.000 OA
BRANCH   9  10
ATOM     10  C   UNL     1      49.079   7.455  13.191  0.00  0.00    +0.000 C 
ATOM     11  C   UNL     1      49.300   7.189  14.687  0.00  0.00    +0.000 C 
ATOM     12  C   UNL     1      50.784   7.435  14.935  0.00  0.00    +0.000 C 
ATOM     13  N   UNL     1      51.137   8.389  13.890  0.00  0.00    +0.000 NA
ATOM     14  C   UNL     1      52.571   8.560  13.724  0.00  0.00    +0.000 C 
ATOM     15  C   UNL     1      50.464   7.891  12.684  0.00  0.00    +0.000 C 
ENDBRANCH   9  10
ENDBRANCH   7   9
ENDBRANCH   2   3
BRANCH   2  16
ATOM     16  C   UNL     1      43.782   4.572  11.151  0.00  0.00    +0.000 C 
BRANCH  16  17
ATOM     17  O   UNL     1      43.577   4.620   9.727  0.00  0.00    +0.000 OA
BRANCH  17  18
ATOM     18  C   UNL     1      44.558   3.912   9.055  0.00  0.00    +0.000 A 
ATOM     19  C   UNL     1      44.633   2.545   9.260  0.00  0.00    +0.000 A 
ATOM     20  C   UNL     1      45.607   1.821   8.562  0.00  0.00    +0.000 A 
ATOM     21  C   UNL     1      46.473   2.482   7.684  0.00  0.00    +0.000 A 
ATOM     22  C   UNL     1      46.319   3.854   7.559  0.00  0.00    +0.000 A 
ATOM     23  N   UNL     1      45.388   4.579   8.223  0.00  0.00    +0.000 NA
BRANCH  21  24
ATOM     24  C   UNL     1      47.491   1.720   6.921  0.00  0.00    +0.000 C 
ATOM     25  N   UNL     1      48.588   2.379   6.432  0.00  0.00    +0.000 N 
ATOM     26  O   UNL     1      47.355   0.520   6.718  0.00  0.00    +0.000 OA
ATOM     27  H   UNL     1      48.789   3.361   6.525  0.00  0.00    +0.000 HD
ATOM     28  H   UNL     1      49.250   1.821   5.907  0.00  0.00    +0.000 HD
ENDBRANCH  21  24
ENDBRANCH  17  18
ENDBRANCH  16  17
ENDBRANCH   2  16
TORSDOF 7
ENDMDL
MODEL 7
REMARK VINA RESULT:    -6.643      1.779      8.219
REMARK INTER + INTRA:         -10.297
REMARK INTER:                  -9.388
REMARK INTRA:                  -0.909
REMARK UNBOUND:                -0.935
REMARK  Name = 
REMARK  9 active torsions:
REMARK  status: ('A' for Active; 'I' for Inactive)
REMARK    1  A    between atoms: C_1  and  C_2
REMARK    2  A    between atoms: C_2  and  C_3
REMARK    3  A    between atoms: C_2  and  C_14
REMARK    4  A    between atoms: C_3  and  O_4
REMARK    5  A    between atoms: O_4  and  C_5
REMARK    6  A    between atoms: C_8  and  C_9
REMARK    7  A    between atoms: C_18  and  O_19
REMARK    8  A    between atoms: O_19  and  C_20
REMARK    9  A    between atoms: N_23  and  C_24
REMARK                            x       y       z     vdW  Elec       q    Type
REMARK                         _______ _______ _______ _____ _____    ______ ____
ROOT
ATOM      1  C   UNL     1      44.594   7.792  11.330  0.00  0.00    +0.000 C 
ATOM      2  C   UNL     1      45.668   6.702  11.454  0.00  0.00    +0.000 C 
ENDROOT
BRANCH   2   3
ATOM      3  C   UNL     1      45.073   5.328  11.151  0.00  0.00    +0.000 A 
ATOM      4  C   UNL     1      44.256   4.675  12.088  0.00  0.00    +0.000 A 
ATOM      5  C   UNL     1      43.712   3.420  11.815  0.00  0.00    +0.000 A 
ATOM      6  C   UNL     1      43.956   2.803  10.589  0.00  0.00    +0.000 A 
ATOM      7  C   UNL     1      44.738   3.442   9.631  0.00  0.00    +0.000 A 
ATOM      8  C   UNL     1      45.323   4.683   9.926  0.00  0.00    +0.000 A 
BRANCH   7   9
ATOM      9  O   UNL     1      45.023   2.911   8.401  0.00  0.00    +0.000 OA
BRANCH   9  10
ATOM     10  C   UNL     1      46.401   2.977   7.989  0.00  0.00    +0.000 C 
ATOM     11  C   UNL     1      46.566   3.845   6.733  0.00  0.00    +0.000 C 
ATOM     12  C   UNL     1      47.143   2.921   5.666  0.00  0.00    +0.000 C 
ATOM     13  N   UNL     1      46.669   1.606   6.080  0.00  0.00    +0.000 NA
ATOM     14  C   UNL     1      47.330   0.510   5.391  0.00  0.00    +0.000 C 
ATOM     15  C   UNL     1      46.856   1.579   7.535  0.00  0.00    +0.000 C 
ENDBRANCH   9  10
ENDBRANCH   7   9
ENDBRANCH   2   3
BRANCH   2  16
ATOM     16  C   UNL     1      46.322   6.716  12.849  0.00  0.00    +0.000 C 
BRANCH  16  17
ATOM     17  O   UNL     1      47.346   5.714  12.974  0.00  0.00    +0.000 OA
BRANCH  17  18
ATOM     18  C   UNL     1      47.603   5.422  14.303  0.00  0.00    +0.000 A 
ATOM     19  C   UNL     1      46.974   4.324  14.863  0.00  0.00    +0.000 A 
ATOM     20  C   UNL     1      47.251   4.010  16.199  0.00  0.00    +0.000 A 
ATOM     21  C   UNL     1      48.145   4.799  16.931  0.00  0.00    +0.000 A 
ATOM     22  C   UNL     1      48.714   5.882  16.276  0.00  0.00    +0.000 A 
ATOM     23  N   UNL     1      48.462   6.209  14.987  0.00  0.00    +0.000 NA
BRANCH  21  24
ATOM     24  C   UNL     1      48.465   4.461  18.339  0.00  0.00    +0.000 C 
ATOM     25  N   UNL     1      48.715   3.156  18.671  0.00  0.00    +0.000 N 
ATOM     26  O   UNL     1      48.499   5.331  19.201  0.00  0.00    +0.000 OA
ATOM     27  H   UNL     1      48.697   2.364  18.049  0.00  0.00    +0.000 HD
ATOM     28  H   UNL     1      48.917   2.971  19.645  0.00  0.00    +0.000 HD
ENDBRANCH  21  24
ENDBRANCH  17  18
ENDBRANCH  16  17
ENDBRANCH   2  16
TORSDOF 7
ENDMDL
MODEL 8
REMARK VINA RESULT:    -6.252      3.324      7.786
REMARK INTER + INTRA:          -9.745
REMARK INTER:                  -8.638
REMARK INTRA:                  -1.107
REMARK UNBOUND:                -0.935
REMARK  Name = 
REMARK  9 active torsions:
REMARK  status: ('A' for Active; 'I' for Inactive)
REMARK    1  A    between atoms: C_1  and  C_2
REMARK    2  A    between atoms: C_2  and  C_3
REMARK    3  A    between atoms: C_2  and  C_14
REMARK    4  A    between atoms: C_3  and  O_4
REMARK    5  A    between atoms: O_4  and  C_5
REMARK    6  A    between atoms: C_8  and  C_9
REMARK    7  A    between atoms: C_18  and  O_19
REMARK    8  A    between atoms: O_19  and  C_20
REMARK    9  A    between atoms: N_23  and  C_24
REMARK                            x       y       z     vdW  Elec       q    Type
REMARK                         _______ _______ _______ _____ _____    ______ ____
ROOT
ATOM      1  C   UNL     1      50.013  10.063  12.886  0.00  0.00    +0.000 C 
ATOM      2  C   UNL     1      49.382   8.846  12.195  0.00  0.00    +0.000 C 
ENDROOT
BRANCH   2   3
ATOM      3  C   UNL     1      47.865   9.007  12.108  0.00  0.00    +0.000 A 
ATOM      4  C   UNL     1      47.286  10.267  11.885  0.00  0.00    +0.000 A 
ATOM      5  C   UNL     1      45.902  10.417  11.806  0.00  0.00    +0.000 A 
ATOM      6  C   UNL     1      45.069   9.305  11.926  0.00  0.00    +0.000 A 
ATOM      7  C   UNL     1      45.620   8.040  12.118  0.00  0.00    +0.000 A 
ATOM      8  C   UNL     1      47.010   7.899  12.244  0.00  0.00    +0.000 A 
BRANCH   7   9
ATOM      9  O   UNL     1      44.876   6.896  12.240  0.00  0.00    +0.000 OA
BRANCH   9  10
ATOM     10  C   UNL     1      45.527   5.676  11.840  0.00  0.00    +0.000 C 
ATOM     11  C   UNL     1      45.332   5.407  10.340  0.00  0.00    +0.000 C 
ATOM     12  C   UNL     1      44.591   4.078  10.253  0.00  0.00    +0.000 C 
ATOM     13  N   UNL     1      43.866   4.023  11.517  0.00  0.00    +0.000 NA
ATOM     14  C   UNL     1      43.312   2.711  11.809  0.00  0.00    +0.000 C 
ATOM     15  C   UNL     1      44.829   4.487  12.523  0.00  0.00    +0.000 C 
ENDBRANCH   9  10
ENDBRANCH   7   9
ENDBRANCH   2   3
BRANCH   2  16
ATOM     16  C   UNL     1      49.749   7.538  12.922  0.00  0.00    +0.000 C 
BRANCH  16  17
ATOM     17  O   UNL     1      50.045   7.758  14.312  0.00  0.00    +0.000 OA
BRANCH  17  18
ATOM     18  C   UNL     1      49.422   6.816  15.114  0.00  0.00    +0.000 A 
ATOM     19  C   UNL     1      49.928   6.603  16.384  0.00  0.00    +0.000 A 
ATOM     20  C   UNL     1      49.286   5.670  17.207  0.00  0.00    +0.000 A 
ATOM     21  C   UNL     1      48.161   4.983  16.738  0.00  0.00    +0.000 A 
ATOM     22  C   UNL     1      47.742   5.265  15.446  0.00  0.00    +0.000 A 
ATOM     23  N   UNL     1      48.345   6.160  14.629  0.00  0.00    +0.000 NA
BRANCH  21  24
ATOM     24  C   UNL     1      47.457   4.012  17.611  0.00  0.00    +0.000 C 
ATOM     25  N   UNL     1      47.773   3.961  18.942  0.00  0.00    +0.000 N 
ATOM     26  O   UNL     1      46.610   3.255  17.151  0.00  0.00    +0.000 OA
ATOM     27  H   UNL     1      48.461   4.522  19.418  0.00  0.00    +0.000 HD
ATOM     28  H   UNL     1      47.276   3.275  19.496  0.00  0.00    +0.000 HD
ENDBRANCH  21  24
ENDBRANCH  17  18
ENDBRANCH  16  17
ENDBRANCH   2  16
TORSDOF 7
ENDMDL
MODEL 9
REMARK VINA RESULT:    -6.148      3.009      8.310
REMARK INTER + INTRA:          -9.600
REMARK INTER:                  -8.420
REMARK INTRA:                  -1.179
REMARK UNBOUND:                -0.935
REMARK  Name = 
REMARK  9 active torsions:
REMARK  status: ('A' for Active; 'I' for Inactive)
REMARK    1  A    between atoms: C_1  and  C_2
REMARK    2  A    between atoms: C_2  and  C_3
REMARK    3  A    between atoms: C_2  and  C_14
REMARK    4  A    between atoms: C_3  and  O_4
REMARK    5  A    between atoms: O_4  and  C_5
REMARK    6  A    between atoms: C_8  and  C_9
REMARK    7  A    between atoms: C_18  and  O_19
REMARK    8  A    between atoms: O_19  and  C_20
REMARK    9  A    between atoms: N_23  and  C_24
REMARK                            x       y       z     vdW  Elec       q    Type
REMARK                         _______ _______ _______ _____ _____    ______ ____
ROOT
ATOM      1  C   UNL     1      49.580   9.860  11.483  0.00  0.00    +0.000 C 
ATOM      2  C   UNL     1      49.328   8.389  11.843  0.00  0.00    +0.000 C 
ENDROOT
BRANCH   2   3
ATOM      3  C   UNL     1      47.842   8.148  12.100  0.00  0.00    +0.000 A 
ATOM      4  C   UNL     1      46.952   9.224  12.247  0.00  0.00    +0.000 A 
ATOM      5  C   UNL     1      45.595   9.007  12.483  0.00  0.00    +0.000 A 
ATOM      6  C   UNL     1      45.096   7.707  12.553  0.00  0.00    +0.000 A 
ATOM      7  C   UNL     1      45.952   6.622  12.381  0.00  0.00    +0.000 A 
ATOM      8  C   UNL     1      47.325   6.843  12.192  0.00  0.00    +0.000 A 
BRANCH   7   9
ATOM      9  O   UNL     1      45.545   5.315  12.429  0.00  0.00    +0.000 OA
BRANCH   9  10
ATOM     10  C   UNL     1      44.310   5.014  11.754  0.00  0.00    +0.000 C 
ATOM     11  C   UNL     1      43.561   3.867  12.449  0.00  0.00    +0.000 C 
ATOM     12  C   UNL     1      43.449   2.758  11.409  0.00  0.00    +0.000 C 
ATOM     13  N   UNL     1      44.598   3.001  10.545  0.00  0.00    +0.000 NA
ATOM     14  C   UNL     1      44.552   2.256   9.299  0.00  0.00    +0.000 C 
ATOM     15  C   UNL     1      44.624   4.456  10.356  0.00  0.00    +0.000 C 
ENDBRANCH   9  10
ENDBRANCH   7   9
ENDBRANCH   2   3
BRANCH   2  16
ATOM     16  C   UNL     1      50.168   7.960  13.062  0.00  0.00    +0.000 C 
BRANCH  16  17
ATOM     17  O   UNL     1      49.925   8.799  14.206  0.00  0.00    +0.000 OA
BRANCH  17  18
ATOM     18  C   UNL     1      49.484   8.056  15.288  0.00  0.00    +0.000 A 
ATOM     19  C   UNL     1      49.159   8.730  16.452  0.00  0.00    +0.000 A 
ATOM     20  C   UNL     1      48.688   7.987  17.541  0.00  0.00    +0.000 A 
ATOM     21  C   UNL     1      48.557   6.598  17.433  0.00  0.00    +0.000 A 
ATOM     22  C   UNL     1      48.919   6.021  16.225  0.00  0.00    +0.000 A 
ATOM     23  N   UNL     1      49.378   6.716  15.158  0.00  0.00    +0.000 NA
BRANCH  21  24
ATOM     24  C   UNL     1      48.034   5.804  18.572  0.00  0.00    +0.000 C 
ATOM     25  N   UNL     1      46.746   5.342  18.528  0.00  0.00    +0.000 N 
ATOM     26  O   UNL     1      48.738   5.567  19.547  0.00  0.00    +0.000 OA
ATOM     27  H   UNL     1      46.079   5.492  17.788  0.00  0.00    +0.000 HD
ATOM     28  H   UNL     1      46.429   4.816  19.332  0.00  0.00    +0.000 HD
ENDBRANCH  21  24
ENDBRANCH  17  18
ENDBRANCH  16  17
ENDBRANCH   2  16
TORSDOF 7
ENDMDL
