MODEL 1
REMARK VINA RESULT:    -7.873      0.000      0.000
REMARK INTER + INTRA:          -9.924
REMARK INTER:                  -9.254
REMARK INTRA:                  -0.671
REMARK UNBOUND:                -0.671
REMARK  Name = 
REMARK  3 active torsions:
REMARK  status: ('A' for Active; 'I' for Inactive)
REMARK    1  A    between atoms: C_4  and  C_5
REMARK    2  A    between atoms: C_12  and  C_13
REMARK    3  A    between atoms: C_13  and  N_14
REMARK                            x       y       z     vdW  Elec       q    Type
REMARK                         _______ _______ _______ _____ _____    ______ ____
ROOT
ATOM      1 CL   UNL     1      48.504   7.569  11.357  0.00  0.00    +0.000 Cl
ATOM      2  C   UNL     1      47.386   6.578  12.209  0.00  0.00    +0.000 A 
ATOM      3  C   UNL     1      47.752   6.021  13.428  0.00  0.00    +0.000 A 
ATOM      4  C   UNL     1      46.865   5.191  14.126  0.00  0.00    +0.000 A 
ATOM      5  C   UNL     1      45.612   4.912  13.539  0.00  0.00    +0.000 A 
ATOM      6  C   UNL     1      45.237   5.437  12.279  0.00  0.00    +0.000 A 
ATOM      7  C   UNL     1      46.138   6.309  11.649  0.00  0.00    +0.000 A 
ENDROOT
BRANCH   4   8
ATOM      8  C   UNL     1      47.251   4.565  15.459  0.00  0.00    +0.000 C 
ATOM      9  C   UNL     1      48.304   5.394  16.216  0.00  0.00    +0.000 C 
ATOM     10  C   UNL     1      48.765   4.670  17.474  0.00  0.00    +0.000 C 
ATOM     11  O   UNL     1      49.256   3.370  17.155  0.00  0.00    +0.000 OA
ATOM     12  C   UNL     1      48.247   2.539  16.587  0.00  0.00    +0.000 C 
ATOM     13  C   UNL     1      47.748   3.122  15.270  0.00  0.00    +0.000 C 
ENDBRANCH   4   8
BRANCH   6  14
ATOM     14  C   UNL     1      43.934   5.006  11.595  0.00  0.00    +0.000 C 
ATOM     15  C   UNL     1      43.021   6.160  11.217  0.00  0.00    +0.000 C 
ATOM     16  C   UNL     1      42.591   5.227  12.291  0.00  0.00    +0.000 C 
BRANCH  14  17
ATOM     17  N   UNL     1      44.007   3.701  10.920  0.00  0.00    +0.000 N 
ATOM     18  C   UNL     1      44.729   3.434   9.759  0.00  0.00    +0.000 A 
ATOM     19  C   UNL     1      44.870   4.324   8.695  0.00  0.00    +0.000 A 
ATOM     20  N   UNL     1      45.539   4.039   7.550  0.00  0.00    +0.000 NA
ATOM     21  C   UNL     1      46.060   2.800   7.497  0.00  0.00    +0.000 A 
ATOM     22 CL   UNL     1      46.914   2.420   6.064  0.00  0.00    +0.000 Cl
ATOM     23  C   UNL     1      45.923   1.892   8.531  0.00  0.00    +0.000 A 
ATOM     24  N   UNL     1      45.256   2.190   9.676  0.00  0.00    +0.000 NA
ATOM     25  H   UNL     1      44.125   2.892  11.527  0.00  0.00    +0.000 HD
ENDBRANCH  14  17
ENDBRANCH   6  14
TORSDOF 3
ENDMDL
MODEL 2
REMARK VINA RESULT:    -6.955      4.384      7.422
REMARK INTER + INTRA:          -8.846
REMARK INTER:                  -8.040
REMARK INTRA:                  -0.806
REMARK UNBOUND:                -0.671
REMARK  Name = 
REMARK  3 active torsions:
REMARK  status: ('A' for Active; 'I' for Inactive)
REMARK    1  A    between atoms: C_4  and  C_5
REMARK    2  A    between atoms: C_12  and  C_13
REMARK    3  A    between atoms: C_13  and  N_14
REMARK                            x       y       z     vdW  Elec       q    Type
REMARK                         _______ _______ _______ _____ _____    ______ ____
ROOT
ATOM      1 CL   UNL     1      44.562  10.069  12.157  0.00  0.00    +0.000 Cl
ATOM      2  C   UNL     1      45.613   8.710  12.060  0.00  0.00    +0.000 A 
ATOM      3  C   UNL     1      45.077   7.436  11.915  0.00  0.00    +0.000 A 
ATOM      4  C   UNL     1      45.914   6.314  11.859  0.00  0.00    +0.000 A 
ATOM      5  C   UNL     1      47.305   6.514  11.992  0.00  0.00    +0.000 A 
ATOM      6  C   UNL     1      47.867   7.800  12.182  0.00  0.00    +0.000 A 
ATOM      7  C   UNL     1      46.990   8.895  12.172  0.00  0.00    +0.000 A 
ENDROOT
BRANCH   4   8
ATOM      8  C   UNL     1      45.346   4.910  11.708  0.00  0.00    +0.000 C 
ATOM      9  C   UNL     1      44.913   4.603  10.263  0.00  0.00    +0.000 C 
ATOM     10  C   UNL     1      44.226   3.246  10.178  0.00  0.00    +0.000 C 
ATOM     11  O   UNL     1      43.122   3.184  11.077  0.00  0.00    +0.000 OA
ATOM     12  C   UNL     1      43.528   3.319  12.437  0.00  0.00    +0.000 C 
ATOM     13  C   UNL     1      44.171   4.680  12.674  0.00  0.00    +0.000 C 
ENDBRANCH   4   8
BRANCH   6  14
ATOM     14  C   UNL     1      49.362   7.978  12.468  0.00  0.00    +0.000 C 
ATOM     15  C   UNL     1      49.934   9.299  11.980  0.00  0.00    +0.000 C 
ATOM     16  C   UNL     1      50.363   8.041  11.314  0.00  0.00    +0.000 C 
BRANCH  14  17
ATOM     17  N   UNL     1      49.862   7.183  13.600  0.00  0.00    +0.000 N 
ATOM     18  C   UNL     1      49.391   7.259  14.909  0.00  0.00    +0.000 A 
ATOM     19  C   UNL     1      48.984   8.437  15.534  0.00  0.00    +0.000 A 
ATOM     20  N   UNL     1      48.567   8.508  16.822  0.00  0.00    +0.000 NA
ATOM     21  C   UNL     1      48.586   7.338  17.485  0.00  0.00    +0.000 A 
ATOM     22 CL   UNL     1      48.057   7.402  19.110  0.00  0.00    +0.000 Cl
ATOM     23  C   UNL     1      48.998   6.157  16.894  0.00  0.00    +0.000 A 
ATOM     24  N   UNL     1      49.409   6.096  15.601  0.00  0.00    +0.000 NA
ATOM     25  H   UNL     1      50.033   6.197  13.410  0.00  0.00    +0.000 HD
ENDBRANCH  14  17
ENDBRANCH   6  14
TORSDOF 3
ENDMDL
MODEL 3
REMARK VINA RESULT:    -6.135      5.320      7.488
REMARK INTER + INTRA:          -7.881
REMARK INTER:                  -7.299
REMARK INTRA:                  -0.582
REMARK UNBOUND:                -0.671
REMARK  Name = 
REMARK  3 active torsions:
REMARK  status: ('A' for Active; 'I' for Inactive)
REMARK    1  A    between atoms: C_4  and  C_5
REMARK    2  A    between atoms: C_12  and  C_13
REMARK    3  A    between atoms: C_13  and  N_14
REMARK                            x       y       z     vdW  Elec       q    Type
REMARK                         _______ _______ _______ _____ _____    ______ ____
ROOT
ATOM      1 CL   UNL     1      47.791   8.962  13.854  0.00  0.00    +0.000 Cl
ATOM      2  C   UNL     1      46.390   8.786  12.871  0.00  0.00    +0.000 A 
ATOM      3  C   UNL     1      45.883   7.517  12.618  0.00  0.00    +0.000 A 
ATOM      4  C   UNL     1      44.759   7.350  11.800  0.00  0.00    +0.000 A 
ATOM      5  C   UNL     1      44.184   8.500  11.216  0.00  0.00    +0.000 A 
ATOM      6  C   UNL     1      44.711   9.797  11.428  0.00  0.00    +0.000 A 
ATOM      7  C   UNL     1      45.802   9.914  12.302  0.00  0.00    +0.000 A 
ENDROOT
BRANCH   4   8
ATOM      8  C   UNL     1      44.194   5.968  11.504  0.00  0.00    +0.000 C 
ATOM      9  C   UNL     1      43.991   5.130  12.780  0.00  0.00    +0.000 C 
ATOM     10  C   UNL     1      43.555   3.712  12.435  0.00  0.00    +0.000 C 
ATOM     11  O   UNL     1      44.493   3.099  11.553  0.00  0.00    +0.000 OA
ATOM     12  C   UNL     1      44.582   3.782  10.305  0.00  0.00    +0.000 C 
ATOM     13  C   UNL     1      45.083   5.207  10.507  0.00  0.00    +0.000 C 
ENDBRANCH   4   8
BRANCH   6  14
ATOM     14  C   UNL     1      44.160  11.011  10.671  0.00  0.00    +0.000 C 
ATOM     15  C   UNL     1      44.245  10.888   9.158  0.00  0.00    +0.000 C 
ATOM     16  C   UNL     1      45.098  11.893   9.847  0.00  0.00    +0.000 C 
BRANCH  14  17
ATOM     17  N   UNL     1      43.169  11.796  11.423  0.00  0.00    +0.000 N 
ATOM     18  C   UNL     1      41.828  11.457  11.586  0.00  0.00    +0.000 A 
ATOM     19  C   UNL     1      41.042  10.854  10.606  0.00  0.00    +0.000 A 
ATOM     20  N   UNL     1      39.725  10.566  10.759  0.00  0.00    +0.000 NA
ATOM     21  C   UNL     1      39.205  10.926  11.947  0.00  0.00    +0.000 A 
ATOM     22 CL   UNL     1      37.548  10.567  12.165  0.00  0.00    +0.000 Cl
ATOM     23  C   UNL     1      39.959  11.539  12.931  0.00  0.00    +0.000 A 
ATOM     24  N   UNL     1      41.278  11.817  12.770  0.00  0.00    +0.000 NA
ATOM     25  H   UNL     1      43.485  12.171  12.316  0.00  0.00    +0.000 HD
ENDBRANCH  14  17
ENDBRANCH   6  14
TORSDOF 3
ENDMDL
MODEL 4
REMARK VINA RESULT:    -6.131      4.829      7.671
REMARK INTER + INTRA:          -7.877
REMARK INTER:                  -7.178
REMARK INTRA:                  -0.699
REMARK UNBOUND:                -0.671
REMARK  Name = 
REMARK  3 active torsions:
REMARK  status: ('A' for Active; 'I' for Inactive)
REMARK    1  A    between atoms: C_4  and  C_5
REMARK    2  A    between atoms: C_12  and  C_13
REMARK    3  A    between atoms: C_13  and  N_14
REMARK                            x       y       z     vdW  Elec       q    Type
REMARK                         _______ _______ _______ _____ _____    ______ ____
ROOT
ATOM      1 CL   UNL     1      50.186   8.574  14.361  0.00  0.00    +0.000 Cl
ATOM      2  C   UNL     1      49.128   7.229  14.540  0.00  0.00    +0.000 A 
ATOM      3  C   UNL     1      48.229   6.923  13.526  0.00  0.00    +0.000 A 
ATOM      4  C   UNL     1      47.342   5.847  13.662  0.00  0.00    +0.000 A 
ATOM      5  C   UNL     1      47.366   5.114  14.868  0.00  0.00    +0.000 A 
ATOM      6  C   UNL     1      48.246   5.436  15.929  0.00  0.00    +0.000 A 
ATOM      7  C   UNL     1      49.153   6.485  15.718  0.00  0.00    +0.000 A 
ENDROOT
BRANCH   4   8
ATOM      8  C   UNL     1      46.344   5.501  12.566  0.00  0.00    +0.000 C 
ATOM      9  C   UNL     1      45.172   6.497  12.502  0.00  0.00    +0.000 C 
ATOM     10  C   UNL     1      44.128   6.043  11.489  0.00  0.00    +0.000 C 
ATOM     11  O   UNL     1      43.676   4.725  11.790  0.00  0.00    +0.000 OA
ATOM     12  C   UNL     1      44.726   3.765  11.708  0.00  0.00    +0.000 C 
ATOM     13  C   UNL     1      45.813   4.067  12.732  0.00  0.00    +0.000 C 
ENDBRANCH   4   8
BRANCH   6  14
ATOM     14  C   UNL     1      48.155   4.720  17.281  0.00  0.00    +0.000 C 
ATOM     15  C   UNL     1      46.961   3.788  17.410  0.00  0.00    +0.000 C 
ATOM     16  C   UNL     1      47.000   5.023  18.236  0.00  0.00    +0.000 C 
BRANCH  14  17
ATOM     17  N   UNL     1      49.440   4.583  17.983  0.00  0.00    +0.000 N 
ATOM     18  C   UNL     1      50.383   3.585  17.750  0.00  0.00    +0.000 A 
ATOM     19  C   UNL     1      50.072   2.260  17.447  0.00  0.00    +0.000 A 
ATOM     20  N   UNL     1      50.997   1.286  17.264  0.00  0.00    +0.000 NA
ATOM     21  C   UNL     1      52.273   1.686  17.413  0.00  0.00    +0.000 A 
ATOM     22 CL   UNL     1      53.457   0.474  17.180  0.00  0.00    +0.000 Cl
ATOM     23  C   UNL     1      52.609   2.989  17.728  0.00  0.00    +0.000 A 
ATOM     24  N   UNL     1      51.675   3.960  17.903  0.00  0.00    +0.000 NA
ATOM     25  H   UNL     1      49.961   5.447  18.128  0.00  0.00    +0.000 HD
ENDBRANCH  14  17
ENDBRANCH   6  14
TORSDOF 3
ENDMDL
MODEL 5
REMARK VINA RESULT:    -5.910      4.625      7.840
REMARK INTER + INTRA:          -7.618
REMARK INTER:                  -7.500
REMARK INTRA:                  -0.118
REMARK UNBOUND:                -0.671
REMARK  Name = 
REMARK  3 active torsions:
REMARK  status: ('A' for Active; 'I' for Inactive)
REMARK    1  A    between atoms: C_4  and  C_5
REMARK    2  A    between atoms: C_12  and  C_13
REMARK    3  A    between atoms: C_13  and  N_14
REMARK                            x       y       z     vdW  Elec       q    Type
REMARK                         _______ _______ _______ _____ _____    ______ ____
ROOT
ATOM      1 CL   UNL     1      48.723   8.435  12.582  0.00  0.00    +0.000 Cl
ATOM      2  C   UNL     1      47.913   7.031  13.159  0.00  0.00    +0.000 A 
ATOM      3  C   UNL     1      46.810   6.542  12.470  0.00  0.00    +0.000 A 
ATOM      4  C   UNL     1      46.121   5.416  12.938  0.00  0.00    +0.000 A 
ATOM      5  C   UNL     1      46.558   4.820  14.141  0.00  0.00    +0.000 A 
ATOM      6  C   UNL     1      47.654   5.328  14.879  0.00  0.00    +0.000 A 
ATOM      7  C   UNL     1      48.344   6.422  14.337  0.00  0.00    +0.000 A 
ENDROOT
BRANCH   4   8
ATOM      8  C   UNL     1      44.905   4.870  12.202  0.00  0.00    +0.000 C 
ATOM      9  C   UNL     1      44.612   3.402  12.559  0.00  0.00    +0.000 C 
ATOM     10  C   UNL     1      43.477   2.850  11.705  0.00  0.00    +0.000 C 
ATOM     11  O   UNL     1      43.773   3.000  10.319  0.00  0.00    +0.000 OA
ATOM     12  C   UNL     1      43.902   4.369   9.942  0.00  0.00    +0.000 C 
ATOM     13  C   UNL     1      45.062   5.024  10.680  0.00  0.00    +0.000 C 
ENDBRANCH   4   8
BRANCH   6  14
ATOM     14  C   UNL     1      48.020   4.755  16.253  0.00  0.00    +0.000 C 
ATOM     15  C   UNL     1      47.663   3.288  16.427  0.00  0.00    +0.000 C 
ATOM     16  C   UNL     1      46.920   4.306  17.216  0.00  0.00    +0.000 C 
BRANCH  14  17
ATOM     17  N   UNL     1      49.107   5.470  16.938  0.00  0.00    +0.000 N 
ATOM     18  C   UNL     1      50.372   4.950  17.203  0.00  0.00    +0.000 A 
ATOM     19  C   UNL     1      50.622   3.625  17.558  0.00  0.00    +0.000 A 
ATOM     20  N   UNL     1      51.852   3.139  17.856  0.00  0.00    +0.000 NA
ATOM     21  C   UNL     1      52.845   4.045  17.801  0.00  0.00    +0.000 A 
ATOM     22 CL   UNL     1      54.406   3.452  18.167  0.00  0.00    +0.000 Cl
ATOM     23  C   UNL     1      52.623   5.369  17.467  0.00  0.00    +0.000 A 
ATOM     24  N   UNL     1      51.387   5.845  17.164  0.00  0.00    +0.000 NA
ATOM     25  H   UNL     1      49.244   6.441  16.661  0.00  0.00    +0.000 HD
ENDBRANCH  14  17
ENDBRANCH   6  14
TORSDOF 3
ENDMDL
MODEL 6
REMARK VINA RESULT:    -5.865      4.744      8.515
REMARK INTER + INTRA:          -7.564
REMARK INTER:                  -7.207
REMARK INTRA:                  -0.357
REMARK UNBOUND:                -0.671
REMARK  Name = 
REMARK  3 active torsions:
REMARK  status: ('A' for Active; 'I' for Inactive)
REMARK    1  A    between atoms: C_4  and  C_5
REMARK    2  A    between atoms: C_12  and  C_13
REMARK    3  A    between atoms: C_13  and  N_14
REMARK                            x       y       z     vdW  Elec       q    Type
REMARK                         _______ _______ _______ _____ _____    ______ ____
ROOT
ATOM      1 CL   UNL     1      49.646   8.091  13.954  0.00  0.00    +0.000 Cl
ATOM      2  C   UNL     1      48.559   6.791  14.252  0.00  0.00    +0.000 A 
ATOM      3  C   UNL     1      47.610   6.456  13.294  0.00  0.00    +0.000 A 
ATOM      4  C   UNL     1      46.700   5.418  13.528  0.00  0.00    +0.000 A 
ATOM      5  C   UNL     1      46.754   4.752  14.772  0.00  0.00    +0.000 A 
ATOM      6  C   UNL     1      47.687   5.106  15.776  0.00  0.00    +0.000 A 
ATOM      7  C   UNL     1      48.613   6.114  15.469  0.00  0.00    +0.000 A 
ENDROOT
BRANCH   4   8
ATOM      8  C   UNL     1      45.647   5.041  12.495  0.00  0.00    +0.000 C 
ATOM      9  C   UNL     1      44.316   5.785  12.714  0.00  0.00    +0.000 C 
ATOM     10  C   UNL     1      43.248   5.284  11.750  0.00  0.00    +0.000 C 
ATOM     11  O   UNL     1      43.083   3.873  11.872  0.00  0.00    +0.000 OA
ATOM     12  C   UNL     1      44.270   3.161  11.528  0.00  0.00    +0.000 C 
ATOM     13  C   UNL     1      45.408   3.522  12.474  0.00  0.00    +0.000 C 
ENDBRANCH   4   8
BRANCH   6  14
ATOM     14  C   UNL     1      47.633   4.469  17.169  0.00  0.00    +0.000 C 
ATOM     15  C   UNL     1      48.623   3.334  17.371  0.00  0.00    +0.000 C 
ATOM     16  C   UNL     1      47.170   3.021  17.336  0.00  0.00    +0.000 C 
BRANCH  14  17
ATOM     17  N   UNL     1      47.101   5.352  18.219  0.00  0.00    +0.000 N 
ATOM     18  C   UNL     1      47.845   6.278  18.946  0.00  0.00    +0.000 A 
ATOM     19  C   UNL     1      49.159   6.078  19.368  0.00  0.00    +0.000 A 
ATOM     20  N   UNL     1      49.860   6.969  20.113  0.00  0.00    +0.000 NA
ATOM     21  C   UNL     1      49.183   8.084  20.443  0.00  0.00    +0.000 A 
ATOM     22 CL   UNL     1      50.051   9.223  21.377  0.00  0.00    +0.000 Cl
ATOM     23  C   UNL     1      47.875   8.300  20.051  0.00  0.00    +0.000 A 
ATOM     24  N   UNL     1      47.183   7.405  19.300  0.00  0.00    +0.000 NA
ATOM     25  H   UNL     1      46.205   5.793  18.017  0.00  0.00    +0.000 HD
ENDBRANCH  14  17
ENDBRANCH   6  14
TORSDOF 3
ENDMDL
MODEL 7
REMARK VINA RESULT:    -5.840      3.298      4.864
REMARK INTER + INTRA:          -7.535
REMARK INTER:                  -6.794
REMARK INTRA:                  -0.741
REMARK UNBOUND:                -0.671
REMARK  Name = 
REMARK  3 active torsions:
REMARK  status: ('A' for Active; 'I' for Inactive)
REMARK    1  A    between atoms: C_4  and  C_5
REMARK    2  A    between atoms: C_12  and  C_13
REMARK    3  A    between atoms: C_13  and  N_14
REMARK                            x       y       z     vdW  Elec       q    Type
REMARK                         _______ _______ _______ _____ _____    ______ ____
ROOT
ATOM      1 CL   UNL     1      48.241  10.635  17.444  0.00  0.00    +0.000 Cl
ATOM      2  C   UNL     1      48.362   9.151  16.581  0.00  0.00    +0.000 A 
ATOM      3  C   UNL     1      48.744   7.996  17.252  0.00  0.00    +0.000 A 
ATOM      4  C   UNL     1      48.872   6.783  16.563  0.00  0.00    +0.000 A 
ATOM      5  C   UNL     1      48.639   6.781  15.170  0.00  0.00    +0.000 A 
ATOM      6  C   UNL     1      48.289   7.956  14.462  0.00  0.00    +0.000 A 
ATOM      7  C   UNL     1      48.117   9.131  15.209  0.00  0.00    +0.000 A 
ENDROOT
BRANCH   4   8
ATOM      8  C   UNL     1      49.297   5.508  17.277  0.00  0.00    +0.000 C 
ATOM      9  C   UNL     1      50.800   5.217  17.116  0.00  0.00    +0.000 C 
ATOM     10  C   UNL     1      51.162   3.869  17.726  0.00  0.00    +0.000 C 
ATOM     11  O   UNL     1      50.366   2.831  17.158  0.00  0.00    +0.000 OA
ATOM     12  C   UNL     1      48.977   3.010  17.427  0.00  0.00    +0.000 C 
ATOM     13  C   UNL     1      48.470   4.303  16.801  0.00  0.00    +0.000 C 
ENDBRANCH   4   8
BRANCH   6  14
ATOM     14  C   UNL     1      48.182   7.959  12.933  0.00  0.00    +0.000 C 
ATOM     15  C   UNL     1      49.458   7.538  12.222  0.00  0.00    +0.000 C 
ATOM     16  C   UNL     1      49.005   8.949  12.107  0.00  0.00    +0.000 C 
BRANCH  14  17
ATOM     17  N   UNL     1      46.812   7.804  12.421  0.00  0.00    +0.000 N 
ATOM     18  C   UNL     1      46.037   6.652  12.529  0.00  0.00    +0.000 A 
ATOM     19  C   UNL     1      46.536   5.354  12.431  0.00  0.00    +0.000 A 
ATOM     20  N   UNL     1      45.766   4.239  12.495  0.00  0.00    +0.000 NA
ATOM     21  C   UNL     1      44.450   4.471  12.646  0.00  0.00    +0.000 A 
ATOM     22 CL   UNL     1      43.462   3.078  12.735  0.00  0.00    +0.000 Cl
ATOM     23  C   UNL     1      43.927   5.748  12.730  0.00  0.00    +0.000 A 
ATOM     24  N   UNL     1      44.707   6.859  12.671  0.00  0.00    +0.000 NA
ATOM     25  H   UNL     1      46.186   8.592  12.581  0.00  0.00    +0.000 HD
ENDBRANCH  14  17
ENDBRANCH   6  14
TORSDOF 3
ENDMDL
MODEL 8
REMARK VINA RESULT:    -5.804      5.027      8.331
REMARK INTER + INTRA:          -7.493
REMARK INTER:                  -6.647
REMARK INTRA:                  -0.846
REMARK UNBOUND:                -0.671
REMARK  Name = 
REMARK  3 active torsions:
REMARK  status: ('A' for Active; 'I' for Inactive)
REMARK    1  A    between atoms: C_4  and  C_5
REMARK    2  A    between atoms: C_12  and  C_13
REMARK    3  A    between atoms: C_13  and  N_14
REMARK                            x       y       z     vdW  Elec       q    Type
REMARK                         _______ _______ _______ _____ _____    ______ ____
ROOT
ATOM      1 CL   UNL     1      44.972   4.831  10.947  0.00  0.00    +0.000 Cl
ATOM      2  C   UNL     1      45.608   6.343  11.465  0.00  0.00    +0.000 A 
ATOM      3  C   UNL     1      44.803   7.475  11.433  0.00  0.00    +0.000 A 
ATOM      4  C   UNL     1      45.309   8.720  11.826  0.00  0.00    +0.000 A 
ATOM      5  C   UNL     1      46.663   8.794  12.218  0.00  0.00    +0.000 A 
ATOM      6  C   UNL     1      47.511   7.660  12.219  0.00  0.00    +0.000 A 
ATOM      7  C   UNL     1      46.939   6.427  11.872  0.00  0.00    +0.000 A 
ENDROOT
BRANCH   4   8
ATOM      8  C   UNL     1      44.445   9.972  11.790  0.00  0.00    +0.000 C 
ATOM      9  C   UNL     1      43.352   9.902  10.708  0.00  0.00    +0.000 C 
ATOM     10  C   UNL     1      42.598  11.222  10.609  0.00  0.00    +0.000 C 
ATOM     11  O   UNL     1      43.501  12.299  10.369  0.00  0.00    +0.000 OA
ATOM     12  C   UNL     1      44.429  12.471  11.437  0.00  0.00    +0.000 C 
ATOM     13  C   UNL     1      45.304  11.233  11.594  0.00  0.00    +0.000 C 
ENDBRANCH   4   8
BRANCH   6  14
ATOM     14  C   UNL     1      49.011   7.791  12.508  0.00  0.00    +0.000 C 
ATOM     15  C   UNL     1      49.611   9.120  12.083  0.00  0.00    +0.000 C 
ATOM     16  C   UNL     1      50.011   7.886  11.356  0.00  0.00    +0.000 C 
BRANCH  14  17
ATOM     17  N   UNL     1      49.494   6.932  13.600  0.00  0.00    +0.000 N 
ATOM     18  C   UNL     1      49.143   7.059  14.942  0.00  0.00    +0.000 A 
ATOM     19  C   UNL     1      48.943   8.276  15.592  0.00  0.00    +0.000 A 
ATOM     20  N   UNL     1      48.644   8.392  16.910  0.00  0.00    +0.000 NA
ATOM     21  C   UNL     1      48.566   7.225  17.575  0.00  0.00    +0.000 A 
ATOM     22 CL   UNL     1      48.183   7.347  19.236  0.00  0.00    +0.000 Cl
ATOM     23  C   UNL     1      48.774   6.005  16.957  0.00  0.00    +0.000 A 
ATOM     24  N   UNL     1      49.068   5.899  15.636  0.00  0.00    +0.000 NA
ATOM     25  H   UNL     1      49.521   5.933  13.401  0.00  0.00    +0.000 HD
ENDBRANCH  14  17
ENDBRANCH   6  14
TORSDOF 3
ENDMDL
MODEL 9
REMARK VINA RESULT:    -5.670      4.441      6.969
REMARK INTER + INTRA:          -7.335
REMARK INTER:                  -6.909
REMARK INTRA:                  -0.426
REMARK UNBOUND:                -0.671
REMARK  Name = 
REMARK  3 active torsions:
REMARK  status: ('A' for Active; 'I' for Inactive)
REMARK    1  A    between atoms: C_4  and  C_5
REMARK    2  A    between atoms: C_12  and  C_13
REMARK    3  A    between atoms: C_13  and  N_14
REMARK                            x       y       z     vdW  Elec       q    Type
REMARK                         _______ _______ _______ _____ _____    ______ ____
ROOT
ATOM      1 CL   UNL     1      47.012   4.571  15.182  0.00  0.00    +0.000 Cl
ATOM      2  C   UNL     1      46.538   5.436  13.773  0.00  0.00    +0.000 A 
ATOM      3  C   UNL     1      45.984   4.750  12.700  0.00  0.00    +0.000 A 
ATOM      4  C   UNL     1      45.614   5.432  11.534  0.00  0.00    +0.000 A 
ATOM      5  C   UNL     1      45.854   6.822  11.471  0.00  0.00    +0.000 A 
ATOM      6  C   UNL     1      46.455   7.532  12.538  0.00  0.00    +0.000 A 
ATOM      7  C   UNL     1      46.753   6.812  13.705  0.00  0.00    +0.000 A 
ENDROOT
BRANCH   4   8
ATOM      8  C   UNL     1      45.014   4.697  10.344  0.00  0.00    +0.000 C 
ATOM      9  C   UNL     1      44.853   3.188  10.605  0.00  0.00    +0.000 C 
ATOM     10  C   UNL     1      44.379   2.466   9.350  0.00  0.00    +0.000 C 
ATOM     11  O   UNL     1      45.267   2.715   8.262  0.00  0.00    +0.000 OA
ATOM     12  C   UNL     1      45.313   4.096   7.911  0.00  0.00    +0.000 C 
ATOM     13  C   UNL     1      45.845   4.928   9.071  0.00  0.00    +0.000 C 
ENDBRANCH   4   8
BRANCH   6  14
ATOM     14  C   UNL     1      46.837   9.009  12.392  0.00  0.00    +0.000 C 
ATOM     15  C   UNL     1      48.019   9.256  11.469  0.00  0.00    +0.000 C 
ATOM     16  C   UNL     1      48.180   9.512  12.925  0.00  0.00    +0.000 C 
BRANCH  14  17
ATOM     17  N   UNL     1      45.739   9.949  12.664  0.00  0.00    +0.000 N 
ATOM     18  C   UNL     1      44.820  10.407  11.724  0.00  0.00    +0.000 A 
ATOM     19  C   UNL     1      45.126  10.691  10.393  0.00  0.00    +0.000 A 
ATOM     20  N   UNL     1      44.233  11.177   9.496  0.00  0.00    +0.000 NA
ATOM     21  C   UNL     1      43.000  11.392   9.989  0.00  0.00    +0.000 A 
ATOM     22 CL   UNL     1      41.856  12.000   8.872  0.00  0.00    +0.000 Cl
ATOM     23  C   UNL     1      42.673  11.134  11.307  0.00  0.00    +0.000 A 
ATOM     24  N   UNL     1      43.573  10.641  12.197  0.00  0.00    +0.000 NA
ATOM     25  H   UNL     1      45.219   9.787  13.525  0.00  0.00    +0.000 HD
ENDBRANCH  14  17
ENDBRANCH   6  14
TORSDOF 3
ENDMDL
