MODEL 1
REMARK VINA RESULT:    -8.049      0.000      0.000
REMARK INTER + INTRA:         -12.113
REMARK INTER:                 -11.342
REMARK INTRA:                  -0.770
REMARK UNBOUND:                -0.770
REMARK  Name = 
REMARK  8 active torsions:
REMARK  status: ('A' for Active; 'I' for Inactive)
REMARK    1  A    between atoms: C_1  and  O_2
REMARK    2  A    between atoms: O_2  and  C_3
REMARK    3  A    between atoms: C_8  and  C_9
REMARK    4  A    between atoms: N_11  and  C_12
REMARK    5  A    between atoms: C_12  and  C_13
REMARK    6  A    between atoms: C_16  and  C_17
REMARK    7  A    between atoms: C_17  and  N_18
REMARK    8  A    between atoms: C_19  and  C_21
REMARK                            x       y       z     vdW  Elec       q    Type
REMARK                         _______ _______ _______ _____ _____    ______ ____
ROOT
ATOM      1  C   UNL     1      44.762   5.301  10.828  0.00  0.00    +0.000 A 
ATOM      2  C   UNL     1      44.269   5.691  12.081  0.00  0.00    +0.000 A 
ATOM      3  C   UNL     1      44.956   6.628  12.861  0.00  0.00    +0.000 A 
ATOM      4  C   UNL     1      46.141   7.214  12.394  0.00  0.00    +0.000 A 
ATOM      5  C   UNL     1      46.637   6.820  11.143  0.00  0.00    +0.000 A 
ATOM      6  C   UNL     1      45.950   5.882  10.365  0.00  0.00    +0.000 A 
ENDROOT
BRANCH   1   7
ATOM      7  C   UNL     1      44.012   4.313   9.972  0.00  0.00    +0.000 C 
BRANCH   7  10
ATOM      8  C   UNL     1      45.528   2.753   8.797  0.00  0.00    +0.000 C 
ATOM      9  O   UNL     1      45.597   1.999   9.764  0.00  0.00    +0.000 OA
ATOM     10  N   UNL     1      44.798   3.916   8.830  0.00  0.00    +0.000 N 
ATOM     11  H   UNL     1      44.775   4.495   7.997  0.00  0.00    +0.000 HD
BRANCH   8  17
ATOM     12  C   UNL     1      46.714   1.124   7.176  0.00  0.00    +0.000 A 
ATOM     13  C   UNL     1      47.413   0.948   5.971  0.00  0.00    +0.000 A 
ATOM     14  C   UNL     1      47.613   2.016   5.094  0.00  0.00    +0.000 A 
ATOM     15  C   UNL     1      47.112   3.274   5.403  0.00  0.00    +0.000 A 
ATOM     16  C   UNL     1      46.428   3.469   6.604  0.00  0.00    +0.000 A 
ATOM     17  C   UNL     1      46.231   2.410   7.510  0.00  0.00    +0.000 A 
BRANCH  12  19
ATOM     18  C   UNL     1      46.842  -1.218   7.667  0.00  0.00    +0.000 C 
ATOM     19  O   UNL     1      46.478   0.100   8.059  0.00  0.00    +0.000 OA
ENDBRANCH  12  19
ENDBRANCH   8  17
ENDBRANCH   7  10
ENDBRANCH   1   7
BRANCH   4  20
ATOM     20  C   UNL     1      46.900   8.211  13.235  0.00  0.00    +0.000 C 
BRANCH  20  21
ATOM     21  N   UNL     1      47.372   7.600  14.452  0.00  0.00    +0.000 N 
ATOM     22  C   UNL     1      48.525   6.859  14.495  0.00  0.00    +0.000 C 
ATOM     23  O   UNL     1      49.244   6.710  13.510  0.00  0.00    +0.000 OA
ATOM     24  H   UNL     1      46.692   7.503  15.198  0.00  0.00    +0.000 HD
BRANCH  22  25
ATOM     25  C   UNL     1      48.885   6.297  15.804  0.00  0.00    +0.000 A 
ATOM     26  C   UNL     1      49.878   6.895  16.567  0.00  0.00    +0.000 A 
ATOM     27  S   UNL     1      50.106   6.160  18.091  0.00  0.00    +0.000 S 
ATOM     28  C   UNL     1      48.924   4.982  17.761  0.00  0.00    +0.000 A 
ATOM     29  N   UNL     1      48.628   4.010  18.668  0.00  0.00    +0.000 NA
ATOM     30  C   UNL     1      47.737   3.166  18.273  0.00  0.00    +0.000 A 
ATOM     31  N   UNL     1      47.114   3.203  17.053  0.00  0.00    +0.000 N 
ATOM     32  C   UNL     1      47.363   4.175  16.117  0.00  0.00    +0.000 A 
ATOM     33  O   UNL     1      46.763   4.193  15.045  0.00  0.00    +0.000 OA
ATOM     34  C   UNL     1      48.358   5.152  16.510  0.00  0.00    +0.000 A 
ATOM     35  H   UNL     1      46.422   2.509  16.801  0.00  0.00    +0.000 HD
ENDBRANCH  22  25
ENDBRANCH  20  21
ENDBRANCH   4  20
TORSDOF 7
ENDMDL
MODEL 2
REMARK VINA RESULT:    -7.538      3.300      8.941
REMARK INTER + INTRA:         -11.394
REMARK INTER:                 -10.145
REMARK INTRA:                  -1.249
REMARK UNBOUND:                -0.770
REMARK  Name = 
REMARK  8 active torsions:
REMARK  status: ('A' for Active; 'I' for Inactive)
REMARK    1  A    between atoms: C_1  and  O_2
REMARK    2  A    between atoms: O_2  and  C_3
REMARK    3  A    between atoms: C_8  and  C_9
REMARK    4  A    between atoms: N_11  and  C_12
REMARK    5  A    between atoms: C_12  and  C_13
REMARK    6  A    between atoms: C_16  and  C_17
REMARK    7  A    between atoms: C_17  and  N_18
REMARK    8  A    between atoms: C_19  and  C_21
REMARK                            x       y       z     vdW  Elec       q    Type
REMARK                         _______ _______ _______ _____ _____    ______ ____
ROOT
ATOM      1  C   UNL     1      50.414   7.474  15.316  0.00  0.00    +0.000 A 
ATOM      2  C   UNL     1      49.178   6.814  15.340  0.00  0.00    +0.000 A 
ATOM      3  C   UNL     1      48.293   6.912  14.259  0.00  0.00    +0.000 A 
ATOM      4  C   UNL     1      48.637   7.653  13.121  0.00  0.00    +0.000 A 
ATOM      5  C   UNL     1      49.871   8.318  13.100  0.00  0.00    +0.000 A 
ATOM      6  C   UNL     1      50.753   8.221  14.181  0.00  0.00    +0.000 A 
ENDROOT
BRANCH   1   7
ATOM      7  C   UNL     1      51.381   7.350  16.466  0.00  0.00    +0.000 C 
BRANCH   7  10
ATOM      8  C   UNL     1      51.289   5.202  17.686  0.00  0.00    +0.000 C 
ATOM      9  O   UNL     1      50.516   5.648  18.530  0.00  0.00    +0.000 OA
ATOM     10  N   UNL     1      51.778   5.978  16.663  0.00  0.00    +0.000 N 
ATOM     11  H   UNL     1      52.408   5.551  15.993  0.00  0.00    +0.000 HD
BRANCH   8  17
ATOM     12  C   UNL     1      50.932   2.677  17.256  0.00  0.00    +0.000 A 
ATOM     13  C   UNL     1      51.413   1.367  17.410  0.00  0.00    +0.000 A 
ATOM     14  C   UNL     1      52.657   1.123  17.996  0.00  0.00    +0.000 A 
ATOM     15  C   UNL     1      53.442   2.183  18.429  0.00  0.00    +0.000 A 
ATOM     16  C   UNL     1      52.972   3.491  18.297  0.00  0.00    +0.000 A 
ATOM     17  C   UNL     1      51.714   3.757  17.726  0.00  0.00    +0.000 A 
BRANCH  12  19
ATOM     18  C   UNL     1      48.546   2.778  17.444  0.00  0.00    +0.000 C 
ATOM     19  O   UNL     1      49.724   2.965  16.670  0.00  0.00    +0.000 OA
ENDBRANCH  12  19
ENDBRANCH   8  17
ENDBRANCH   7  10
ENDBRANCH   1   7
BRANCH   4  20
ATOM     20  C   UNL     1      47.683   7.781  11.958  0.00  0.00    +0.000 C 
BRANCH  20  21
ATOM     21  N   UNL     1      46.961   6.552  11.750  0.00  0.00    +0.000 N 
ATOM     22  C   UNL     1      45.593   6.490  11.816  0.00  0.00    +0.000 C 
ATOM     23  O   UNL     1      44.902   7.487  12.013  0.00  0.00    +0.000 OA
ATOM     24  H   UNL     1      47.500   5.696  11.829  0.00  0.00    +0.000 HD
BRANCH  22  25
ATOM     25  C   UNL     1      44.992   5.171  11.581  0.00  0.00    +0.000 A 
ATOM     26  C   UNL     1      44.308   4.527  12.603  0.00  0.00    +0.000 A 
ATOM     27  S   UNL     1      43.604   3.045  12.129  0.00  0.00    +0.000 S 
ATOM     28  C   UNL     1      44.237   3.185  10.555  0.00  0.00    +0.000 A 
ATOM     29  N   UNL     1      44.016   2.220   9.621  0.00  0.00    +0.000 NA
ATOM     30  C   UNL     1      44.581   2.440   8.483  0.00  0.00    +0.000 A 
ATOM     31  N   UNL     1      45.349   3.537   8.193  0.00  0.00    +0.000 N 
ATOM     32  C   UNL     1      45.581   4.546   9.095  0.00  0.00    +0.000 A 
ATOM     33  O   UNL     1      46.250   5.529   8.789  0.00  0.00    +0.000 OA
ATOM     34  C   UNL     1      44.967   4.349  10.393  0.00  0.00    +0.000 A 
ATOM     35  H   UNL     1      45.767   3.653   7.279  0.00  0.00    +0.000 HD
ENDBRANCH  22  25
ENDBRANCH  20  21
ENDBRANCH   4  20
TORSDOF 7
ENDMDL
MODEL 3
REMARK VINA RESULT:    -7.259      3.138      4.917
REMARK INTER + INTRA:         -11.000
REMARK INTER:                  -9.884
REMARK INTRA:                  -1.116
REMARK UNBOUND:                -0.770
REMARK  Name = 
REMARK  8 active torsions:
REMARK  status: ('A' for Active; 'I' for Inactive)
REMARK    1  A    between atoms: C_1  and  O_2
REMARK    2  A    between atoms: O_2  and  C_3
REMARK    3  A    between atoms: C_8  and  C_9
REMARK    4  A    between atoms: N_11  and  C_12
REMARK    5  A    between atoms: C_12  and  C_13
REMARK    6  A    between atoms: C_16  and  C_17
REMARK    7  A    between atoms: C_17  and  N_18
REMARK    8  A    between atoms: C_19  and  C_21
REMARK                            x       y       z     vdW  Elec       q    Type
REMARK                         _______ _______ _______ _____ _____    ______ ____
ROOT
ATOM      1  C   UNL     1      47.898   7.763  13.312  0.00  0.00    +0.000 A 
ATOM      2  C   UNL     1      48.054   8.935  14.067  0.00  0.00    +0.000 A 
ATOM      3  C   UNL     1      48.414   8.872  15.418  0.00  0.00    +0.000 A 
ATOM      4  C   UNL     1      48.650   7.638  16.038  0.00  0.00    +0.000 A 
ATOM      5  C   UNL     1      48.488   6.467  15.285  0.00  0.00    +0.000 A 
ATOM      6  C   UNL     1      48.126   6.530  13.935  0.00  0.00    +0.000 A 
ENDROOT
BRANCH   1   7
ATOM      7  C   UNL     1      47.537   7.826  11.850  0.00  0.00    +0.000 C 
BRANCH   7  10
ATOM      8  C   UNL     1      45.620   6.443  11.125  0.00  0.00    +0.000 C 
ATOM      9  O   UNL     1      44.822   7.362  11.281  0.00  0.00    +0.000 OA
ATOM     10  N   UNL     1      46.958   6.582  11.407  0.00  0.00    +0.000 N 
ATOM     11  H   UNL     1      47.569   5.787  11.252  0.00  0.00    +0.000 HD
BRANCH   8  17
ATOM     12  C   UNL     1      44.527   4.110  11.349  0.00  0.00    +0.000 A 
ATOM     13  C   UNL     1      44.206   2.886  10.739  0.00  0.00    +0.000 A 
ATOM     14  C   UNL     1      44.479   2.662   9.389  0.00  0.00    +0.000 A 
ATOM     15  C   UNL     1      45.071   3.659   8.624  0.00  0.00    +0.000 A 
ATOM     16  C   UNL     1      45.412   4.876   9.218  0.00  0.00    +0.000 A 
ATOM     17  C   UNL     1      45.160   5.115  10.582  0.00  0.00    +0.000 A 
BRANCH  12  19
ATOM     18  C   UNL     1      42.980   4.908  12.995  0.00  0.00    +0.000 C 
ATOM     19  O   UNL     1      44.260   4.381  12.667  0.00  0.00    +0.000 OA
ENDBRANCH  12  19
ENDBRANCH   8  17
ENDBRANCH   7  10
ENDBRANCH   1   7
BRANCH   4  20
ATOM     20  C   UNL     1      49.019   7.559  17.500  0.00  0.00    +0.000 C 
BRANCH  20  21
ATOM     21  N   UNL     1      50.078   6.604  17.709  0.00  0.00    +0.000 N 
ATOM     22  C   UNL     1      49.958   5.567  18.597  0.00  0.00    +0.000 C 
ATOM     23  O   UNL     1      48.926   5.366  19.234  0.00  0.00    +0.000 OA
ATOM     24  H   UNL     1      51.001   6.881  17.392  0.00  0.00    +0.000 HD
BRANCH  22  25
ATOM     25  C   UNL     1      51.116   4.670  18.707  0.00  0.00    +0.000 A 
ATOM     26  C   UNL     1      52.233   5.062  19.432  0.00  0.00    +0.000 A 
ATOM     27  S   UNL     1      53.446   3.865  19.523  0.00  0.00    +0.000 S 
ATOM     28  C   UNL     1      52.545   2.800  18.548  0.00  0.00    +0.000 A 
ATOM     29  N   UNL     1      53.029   1.571  18.216  0.00  0.00    +0.000 NA
ATOM     30  C   UNL     1      52.256   0.884  17.446  0.00  0.00    +0.000 A 
ATOM     31  N   UNL     1      51.043   1.313  16.975  0.00  0.00    +0.000 N 
ATOM     32  C   UNL     1      50.504   2.533  17.300  0.00  0.00    +0.000 A 
ATOM     33  O   UNL     1      49.400   2.871  16.883  0.00  0.00    +0.000 OA
ATOM     34  C   UNL     1      51.333   3.348  18.166  0.00  0.00    +0.000 A 
ATOM     35  H   UNL     1      50.482   0.726  16.372  0.00  0.00    +0.000 HD
ENDBRANCH  22  25
ENDBRANCH  20  21
ENDBRANCH   4  20
TORSDOF 7
ENDMDL
MODEL 4
REMARK VINA RESULT:    -7.082      3.866      9.071
REMARK INTER + INTRA:         -10.751
REMARK INTER:                  -9.634
REMARK INTRA:                  -1.117
REMARK UNBOUND:                -0.770
REMARK  Name = 
REMARK  8 active torsions:
REMARK  status: ('A' for Active; 'I' for Inactive)
REMARK    1  A    between atoms: C_1  and  O_2
REMARK    2  A    between atoms: O_2  and  C_3
REMARK    3  A    between atoms: C_8  and  C_9
REMARK    4  A    between atoms: N_11  and  C_12
REMARK    5  A    between atoms: C_12  and  C_13
REMARK    6  A    between atoms: C_16  and  C_17
REMARK    7  A    between atoms: C_17  and  N_18
REMARK    8  A    between atoms: C_19  and  C_21
REMARK                            x       y       z     vdW  Elec       q    Type
REMARK                         _______ _______ _______ _____ _____    ______ ____
ROOT
ATOM      1  C   UNL     1      49.027   5.269  17.097  0.00  0.00    +0.000 A 
ATOM      2  C   UNL     1      49.819   6.330  16.637  0.00  0.00    +0.000 A 
ATOM      3  C   UNL     1      49.556   6.937  15.403  0.00  0.00    +0.000 A 
ATOM      4  C   UNL     1      48.480   6.510  14.613  0.00  0.00    +0.000 A 
ATOM      5  C   UNL     1      47.692   5.445  15.071  0.00  0.00    +0.000 A 
ATOM      6  C   UNL     1      47.957   4.839  16.303  0.00  0.00    +0.000 A 
ENDROOT
BRANCH   1   7
ATOM      7  C   UNL     1      49.290   4.631  18.437  0.00  0.00    +0.000 C 
BRANCH   7  10
ATOM      8  C   UNL     1      50.879   2.884  17.706  0.00  0.00    +0.000 C 
ATOM      9  O   UNL     1      50.041   2.336  16.996  0.00  0.00    +0.000 OA
ATOM     10  N   UNL     1      50.583   3.992  18.462  0.00  0.00    +0.000 N 
ATOM     11  H   UNL     1      51.319   4.404  19.024  0.00  0.00    +0.000 HD
BRANCH   8  17
ATOM     12  C   UNL     1      53.440   3.185  17.898  0.00  0.00    +0.000 A 
ATOM     13  C   UNL     1      54.711   2.589  17.861  0.00  0.00    +0.000 A 
ATOM     14  C   UNL     1      54.854   1.208  17.711  0.00  0.00    +0.000 A 
ATOM     15  C   UNL     1      53.729   0.400  17.603  0.00  0.00    +0.000 A 
ATOM     16  C   UNL     1      52.458   0.978  17.622  0.00  0.00    +0.000 A 
ATOM     17  C   UNL     1      52.294   2.369  17.754  0.00  0.00    +0.000 A 
BRANCH  12  19
ATOM     18  C   UNL     1      53.822   5.409  17.094  0.00  0.00    +0.000 C 
ATOM     19  O   UNL     1      53.252   4.534  18.061  0.00  0.00    +0.000 OA
ENDBRANCH  12  19
ENDBRANCH   8  17
ENDBRANCH   7  10
ENDBRANCH   1   7
BRANCH   4  20
ATOM     20  C   UNL     1      48.199   7.144  13.272  0.00  0.00    +0.000 C 
BRANCH  20  21
ATOM     21  N   UNL     1      47.490   6.231  12.412  0.00  0.00    +0.000 N 
ATOM     22  C   UNL     1      46.292   6.558  11.832  0.00  0.00    +0.000 C 
ATOM     23  O   UNL     1      45.775   7.664  11.977  0.00  0.00    +0.000 OA
ATOM     24  H   UNL     1      47.760   5.255  12.473  0.00  0.00    +0.000 HD
BRANCH  22  25
ATOM     25  C   UNL     1      45.682   5.530  10.978  0.00  0.00    +0.000 A 
ATOM     26  C   UNL     1      45.823   5.599   9.599  0.00  0.00    +0.000 A 
ATOM     27  S   UNL     1      45.124   4.279   8.772  0.00  0.00    +0.000 S 
ATOM     28  C   UNL     1      44.558   3.598  10.225  0.00  0.00    +0.000 A 
ATOM     29  N   UNL     1      43.846   2.437  10.227  0.00  0.00    +0.000 NA
ATOM     30  C   UNL     1      43.454   2.054  11.394  0.00  0.00    +0.000 A 
ATOM     31  N   UNL     1      43.706   2.726  12.561  0.00  0.00    +0.000 N 
ATOM     32  C   UNL     1      44.438   3.886  12.612  0.00  0.00    +0.000 A 
ATOM     33  O   UNL     1      44.670   4.444  13.681  0.00  0.00    +0.000 OA
ATOM     34  C   UNL     1      44.905   4.363  11.325  0.00  0.00    +0.000 A 
ATOM     35  H   UNL     1      43.370   2.373  13.448  0.00  0.00    +0.000 HD
ENDBRANCH  22  25
ENDBRANCH  20  21
ENDBRANCH   4  20
TORSDOF 7
ENDMDL
MODEL 5
REMARK VINA RESULT:    -7.034      3.233      9.596
REMARK INTER + INTRA:         -10.683
REMARK INTER:                  -9.384
REMARK INTRA:                  -1.299
REMARK UNBOUND:                -0.770
REMARK  Name = 
REMARK  8 active torsions:
REMARK  status: ('A' for Active; 'I' for Inactive)
REMARK    1  A    between atoms: C_1  and  O_2
REMARK    2  A    between atoms: O_2  and  C_3
REMARK    3  A    between atoms: C_8  and  C_9
REMARK    4  A    between atoms: N_11  and  C_12
REMARK    5  A    between atoms: C_12  and  C_13
REMARK    6  A    between atoms: C_16  and  C_17
REMARK    7  A    between atoms: C_17  and  N_18
REMARK    8  A    between atoms: C_19  and  C_21
REMARK                            x       y       z     vdW  Elec       q    Type
REMARK                         _______ _______ _______ _____ _____    ______ ____
ROOT
ATOM      1  C   UNL     1      50.363   7.508  14.921  0.00  0.00    +0.000 A 
ATOM      2  C   UNL     1      50.706   8.150  13.723  0.00  0.00    +0.000 A 
ATOM      3  C   UNL     1      49.781   8.253  12.677  0.00  0.00    +0.000 A 
ATOM      4  C   UNL     1      48.485   7.737  12.817  0.00  0.00    +0.000 A 
ATOM      5  C   UNL     1      48.145   7.090  14.013  0.00  0.00    +0.000 A 
ATOM      6  C   UNL     1      49.071   6.986  15.056  0.00  0.00    +0.000 A 
ENDROOT
BRANCH   1   7
ATOM      7  C   UNL     1      51.346   7.418  16.061  0.00  0.00    +0.000 C 
BRANCH   7  10
ATOM      8  C   UNL     1      50.657   5.707  17.707  0.00  0.00    +0.000 C 
ATOM      9  O   UNL     1      51.145   4.793  17.049  0.00  0.00    +0.000 OA
ATOM     10  N   UNL     1      50.691   7.012  17.279  0.00  0.00    +0.000 N 
ATOM     11  H   UNL     1      50.276   7.724  17.870  0.00  0.00    +0.000 HD
BRANCH   8  17
ATOM     12  C   UNL     1      48.627   5.448  19.288  0.00  0.00    +0.000 A 
ATOM     13  C   UNL     1      48.160   5.240  20.595  0.00  0.00    +0.000 A 
ATOM     14  C   UNL     1      49.047   4.991  21.644  0.00  0.00    +0.000 A 
ATOM     15  C   UNL     1      50.414   4.941  21.403  0.00  0.00    +0.000 A 
ATOM     16  C   UNL     1      50.896   5.162  20.111  0.00  0.00    +0.000 A 
ATOM     17  C   UNL     1      50.019   5.430  19.043  0.00  0.00    +0.000 A 
BRANCH  12  19
ATOM     18  C   UNL     1      47.292   4.551  17.512  0.00  0.00    +0.000 C 
ATOM     19  O   UNL     1      47.791   5.677  18.223  0.00  0.00    +0.000 OA
ENDBRANCH  12  19
ENDBRANCH   8  17
ENDBRANCH   7  10
ENDBRANCH   1   7
BRANCH   4  20
ATOM     20  C   UNL     1      47.487   7.826  11.688  0.00  0.00    +0.000 C 
BRANCH  20  21
ATOM     21  N   UNL     1      46.809   6.567  11.504  0.00  0.00    +0.000 N 
ATOM     22  C   UNL     1      45.456   6.437  11.678  0.00  0.00    +0.000 C 
ATOM     23  O   UNL     1      44.737   7.393  11.959  0.00  0.00    +0.000 OA
ATOM     24  H   UNL     1      47.393   5.738  11.515  0.00  0.00    +0.000 HD
BRANCH  22  25
ATOM     25  C   UNL     1      44.900   5.095  11.455  0.00  0.00    +0.000 A 
ATOM     26  C   UNL     1      44.215   4.448  12.475  0.00  0.00    +0.000 A 
ATOM     27  S   UNL     1      43.568   2.938  12.013  0.00  0.00    +0.000 S 
ATOM     28  C   UNL     1      44.228   3.070  10.451  0.00  0.00    +0.000 A 
ATOM     29  N   UNL     1      44.056   2.082   9.529  0.00  0.00    +0.000 NA
ATOM     30  C   UNL     1      44.638   2.300   8.400  0.00  0.00    +0.000 A 
ATOM     31  N   UNL     1      45.377   3.415   8.105  0.00  0.00    +0.000 N 
ATOM     32  C   UNL     1      45.559   4.446   8.993  0.00  0.00    +0.000 A 
ATOM     33  O   UNL     1      46.204   5.444   8.683  0.00  0.00    +0.000 OA
ATOM     34  C   UNL     1      44.926   4.253  10.282  0.00  0.00    +0.000 A 
ATOM     35  H   UNL     1      45.810   3.528   7.198  0.00  0.00    +0.000 HD
ENDBRANCH  22  25
ENDBRANCH  20  21
ENDBRANCH   4  20
TORSDOF 7
ENDMDL
MODEL 6
REMARK VINA RESULT:    -6.764      2.091      3.278
REMARK INTER + INTRA:         -10.302
REMARK INTER:                  -9.437
REMARK INTRA:                  -0.864
REMARK UNBOUND:                -0.770
REMARK  Name = 
REMARK  8 active torsions:
REMARK  status: ('A' for Active; 'I' for Inactive)
REMARK    1  A    between atoms: C_1  and  O_2
REMARK    2  A    between atoms: O_2  and  C_3
REMARK    3  A    between atoms: C_8  and  C_9
REMARK    4  A    between atoms: N_11  and  C_12
REMARK    5  A    between atoms: C_12  and  C_13
REMARK    6  A    between atoms: C_16  and  C_17
REMARK    7  A    between atoms: C_17  and  N_18
REMARK    8  A    between atoms: C_19  and  C_21
REMARK                            x       y       z     vdW  Elec       q    Type
REMARK                         _______ _______ _______ _____ _____    ______ ____
ROOT
ATOM      1  C   UNL     1      46.213   7.748  12.185  0.00  0.00    +0.000 A 
ATOM      2  C   UNL     1      47.347   6.932  12.308  0.00  0.00    +0.000 A 
ATOM      3  C   UNL     1      48.414   7.311  13.132  0.00  0.00    +0.000 A 
ATOM      4  C   UNL     1      48.360   8.501  13.868  0.00  0.00    +0.000 A 
ATOM      5  C   UNL     1      47.228   9.320  13.740  0.00  0.00    +0.000 A 
ATOM      6  C   UNL     1      46.163   8.941  12.916  0.00  0.00    +0.000 A 
ENDROOT
BRANCH   1   7
ATOM      7  C   UNL     1      45.050   7.332  11.320  0.00  0.00    +0.000 C 
BRANCH   7  10
ATOM      8  C   UNL     1      44.319   5.235  10.235  0.00  0.00    +0.000 C 
ATOM      9  O   UNL     1      43.132   5.477  10.433  0.00  0.00    +0.000 OA
ATOM     10  N   UNL     1      45.317   6.078  10.662  0.00  0.00    +0.000 N 
ATOM     11  H   UNL     1      46.279   5.826  10.463  0.00  0.00    +0.000 HD
BRANCH   8  17
ATOM     12  C   UNL     1      44.313   2.686   9.796  0.00  0.00    +0.000 A 
ATOM     13  C   UNL     1      44.822   1.609   9.054  0.00  0.00    +0.000 A 
ATOM     14  C   UNL     1      45.709   1.820   7.997  0.00  0.00    +0.000 A 
ATOM     15  C   UNL     1      46.097   3.110   7.660  0.00  0.00    +0.000 A 
ATOM     16  C   UNL     1      45.613   4.192   8.399  0.00  0.00    +0.000 A 
ATOM     17  C   UNL     1      44.731   3.999   9.478  0.00  0.00    +0.000 A 
BRANCH  12  19
ATOM     18  C   UNL     1      43.921   2.641  12.160  0.00  0.00    +0.000 C 
ATOM     19  O   UNL     1      43.426   2.528  10.831  0.00  0.00    +0.000 OA
ENDBRANCH  12  19
ENDBRANCH   8  17
ENDBRANCH   7  10
ENDBRANCH   1   7
BRANCH   4  20
ATOM     20  C   UNL     1      49.513   8.928  14.744  0.00  0.00    +0.000 C 
BRANCH  20  21
ATOM     21  N   UNL     1      49.580   8.118  15.934  0.00  0.00    +0.000 N 
ATOM     22  C   UNL     1      48.864   8.422  17.062  0.00  0.00    +0.000 C 
ATOM     23  O   UNL     1      48.091   9.376  17.110  0.00  0.00    +0.000 OA
ATOM     24  H   UNL     1      50.372   7.488  16.004  0.00  0.00    +0.000 HD
BRANCH  22  25
ATOM     25  C   UNL     1      49.028   7.507  18.200  0.00  0.00    +0.000 A 
ATOM     26  C   UNL     1      49.397   8.003  19.443  0.00  0.00    +0.000 A 
ATOM     27  S   UNL     1      49.459   6.812  20.664  0.00  0.00    +0.000 S 
ATOM     28  C   UNL     1      49.049   5.582  19.562  0.00  0.00    +0.000 A 
ATOM     29  N   UNL     1      48.946   4.284  19.963  0.00  0.00    +0.000 NA
ATOM     30  C   UNL     1      48.661   3.455  19.018  0.00  0.00    +0.000 A 
ATOM     31  N   UNL     1      48.471   3.803  17.706  0.00  0.00    +0.000 N 
ATOM     32  C   UNL     1      48.543   5.099  17.259  0.00  0.00    +0.000 A 
ATOM     33  O   UNL     1      48.337   5.376  16.081  0.00  0.00    +0.000 OA
ATOM     34  C   UNL     1      48.860   6.074  18.283  0.00  0.00    +0.000 A 
ATOM     35  H   UNL     1      48.250   3.104  17.010  0.00  0.00    +0.000 HD
ENDBRANCH  22  25
ENDBRANCH  20  21
ENDBRANCH   4  20
TORSDOF 7
ENDMDL
MODEL 7
REMARK VINA RESULT:    -6.682      3.385      9.755
REMARK INTER + INTRA:         -10.187
REMARK INTER:                  -8.548
REMARK INTRA:                  -1.639
REMARK UNBOUND:                -0.770
REMARK  Name = 
REMARK  8 active torsions:
REMARK  status: ('A' for Active; 'I' for Inactive)
REMARK    1  A    between atoms: C_1  and  O_2
REMARK    2  A    between atoms: O_2  and  C_3
REMARK    3  A    between atoms: C_8  and  C_9
REMARK    4  A    between atoms: N_11  and  C_12
REMARK    5  A    between atoms: C_12  and  C_13
REMARK    6  A    between atoms: C_16  and  C_17
REMARK    7  A    between atoms: C_17  and  N_18
REMARK    8  A    between atoms: C_19  and  C_21
REMARK                            x       y       z     vdW  Elec       q    Type
REMARK                         _______ _______ _______ _____ _____    ______ ____
ROOT
ATOM      1  C   UNL     1      50.222   8.684  15.280  0.00  0.00    +0.000 A 
ATOM      2  C   UNL     1      49.815   9.778  14.504  0.00  0.00    +0.000 A 
ATOM      3  C   UNL     1      49.156   9.584  13.285  0.00  0.00    +0.000 A 
ATOM      4  C   UNL     1      48.868   8.291  12.826  0.00  0.00    +0.000 A 
ATOM      5  C   UNL     1      49.282   7.197  13.600  0.00  0.00    +0.000 A 
ATOM      6  C   UNL     1      49.942   7.393  14.817  0.00  0.00    +0.000 A 
ENDROOT
BRANCH   1   7
ATOM      7  C   UNL     1      50.909   8.888  16.607  0.00  0.00    +0.000 C 
BRANCH   7  10
ATOM      8  C   UNL     1      49.296   8.702  18.472  0.00  0.00    +0.000 C 
ATOM      9  O   UNL     1      48.984   9.887  18.398  0.00  0.00    +0.000 OA
ATOM     10  N   UNL     1      50.247   8.145  17.652  0.00  0.00    +0.000 N 
ATOM     11  H   UNL     1      50.457   7.158  17.757  0.00  0.00    +0.000 HD
BRANCH   8  17
ATOM     12  C   UNL     1      48.046   6.539  19.141  0.00  0.00    +0.000 A 
ATOM     13  C   UNL     1      47.379   5.816  20.143  0.00  0.00    +0.000 A 
ATOM     14  C   UNL     1      47.295   6.305  21.448  0.00  0.00    +0.000 A 
ATOM     15  C   UNL     1      47.882   7.521  21.775  0.00  0.00    +0.000 A 
ATOM     16  C   UNL     1      48.535   8.260  20.787  0.00  0.00    +0.000 A 
ATOM     17  C   UNL     1      48.615   7.793  19.462  0.00  0.00    +0.000 A 
BRANCH  12  19
ATOM     18  C   UNL     1      48.692   4.782  17.646  0.00  0.00    +0.000 C 
ATOM     19  O   UNL     1      48.168   6.089  17.851  0.00  0.00    +0.000 OA
ENDBRANCH  12  19
ENDBRANCH   8  17
ENDBRANCH   7  10
ENDBRANCH   1   7
BRANCH   4  20
ATOM     20  C   UNL     1      48.176   8.071  11.503  0.00  0.00    +0.000 C 
BRANCH  20  21
ATOM     21  N   UNL     1      47.356   6.886  11.546  0.00  0.00    +0.000 N 
ATOM     22  C   UNL     1      45.996   6.947  11.703  0.00  0.00    +0.000 C 
ATOM     23  O   UNL     1      45.392   8.016  11.774  0.00  0.00    +0.000 OA
ATOM     24  H   UNL     1      47.838   6.013  11.733  0.00  0.00    +0.000 HD
BRANCH  22  25
ATOM     25  C   UNL     1      45.288   5.661  11.726  0.00  0.00    +0.000 A 
ATOM     26  C   UNL     1      44.685   5.220  12.897  0.00  0.00    +0.000 A 
ATOM     27  S   UNL     1      43.838   3.749  12.719  0.00  0.00    +0.000 S 
ATOM     28  C   UNL     1      44.295   3.619  11.085  0.00  0.00    +0.000 A 
ATOM     29  N   UNL     1      43.907   2.555  10.329  0.00  0.00    +0.000 NA
ATOM     30  C   UNL     1      44.351   2.571   9.119  0.00  0.00    +0.000 A 
ATOM     31  N   UNL     1      45.149   3.553   8.594  0.00  0.00    +0.000 N 
ATOM     32  C   UNL     1      45.547   4.655   9.310  0.00  0.00    +0.000 A 
ATOM     33  O   UNL     1      46.239   5.530   8.797  0.00  0.00    +0.000 OA
ATOM     34  C   UNL     1      45.075   4.688  10.679  0.00  0.00    +0.000 A 
ATOM     35  H   UNL     1      45.467   3.508   7.634  0.00  0.00    +0.000 HD
ENDBRANCH  22  25
ENDBRANCH  20  21
ENDBRANCH   4  20
TORSDOF 7
ENDMDL
MODEL 8
REMARK VINA RESULT:    -6.671      4.311      8.594
REMARK INTER + INTRA:         -10.172
REMARK INTER:                  -8.642
REMARK INTRA:                  -1.530
REMARK UNBOUND:                -0.770
REMARK  Name = 
REMARK  8 active torsions:
REMARK  status: ('A' for Active; 'I' for Inactive)
REMARK    1  A    between atoms: C_1  and  O_2
REMARK    2  A    between atoms: O_2  and  C_3
REMARK    3  A    between atoms: C_8  and  C_9
REMARK    4  A    between atoms: N_11  and  C_12
REMARK    5  A    between atoms: C_12  and  C_13
REMARK    6  A    between atoms: C_16  and  C_17
REMARK    7  A    between atoms: C_17  and  N_18
REMARK    8  A    between atoms: C_19  and  C_21
REMARK                            x       y       z     vdW  Elec       q    Type
REMARK                         _______ _______ _______ _____ _____    ______ ____
ROOT
ATOM      1  C   UNL     1      51.051   7.815  15.842  0.00  0.00    +0.000 A 
ATOM      2  C   UNL     1      51.536   8.088  14.556  0.00  0.00    +0.000 A 
ATOM      3  C   UNL     1      50.670   8.507  13.539  0.00  0.00    +0.000 A 
ATOM      4  C   UNL     1      49.304   8.685  13.793  0.00  0.00    +0.000 A 
ATOM      5  C   UNL     1      48.818   8.406  15.078  0.00  0.00    +0.000 A 
ATOM      6  C   UNL     1      49.684   7.986  16.093  0.00  0.00    +0.000 A 
ENDROOT
BRANCH   1   7
ATOM      7  C   UNL     1      51.983   7.389  16.948  0.00  0.00    +0.000 C 
BRANCH   7  10
ATOM      8  C   UNL     1      51.639   5.166  17.972  0.00  0.00    +0.000 C 
ATOM      9  O   UNL     1      51.062   5.639  18.947  0.00  0.00    +0.000 OA
ATOM     10  N   UNL     1      52.143   5.956  16.968  0.00  0.00    +0.000 N 
ATOM     11  H   UNL     1      52.605   5.506  16.185  0.00  0.00    +0.000 HD
BRANCH   8  17
ATOM     12  C   UNL     1      50.807   2.812  17.299  0.00  0.00    +0.000 A 
ATOM     13  C   UNL     1      51.048   1.429  17.278  0.00  0.00    +0.000 A 
ATOM     14  C   UNL     1      52.255   0.902  17.744  0.00  0.00    +0.000 A 
ATOM     15  C   UNL     1      53.241   1.750  18.232  0.00  0.00    +0.000 A 
ATOM     16  C   UNL     1      53.011   3.126  18.275  0.00  0.00    +0.000 A 
ATOM     17  C   UNL     1      51.795   3.675  17.826  0.00  0.00    +0.000 A 
BRANCH  12  19
ATOM     18  C   UNL     1      48.412   2.774  17.219  0.00  0.00    +0.000 C 
ATOM     19  O   UNL     1      49.644   3.374  16.835  0.00  0.00    +0.000 OA
ENDBRANCH  12  19
ENDBRANCH   8  17
ENDBRANCH   7  10
ENDBRANCH   1   7
BRANCH   4  20
ATOM     20  C   UNL     1      48.358   9.118  12.698  0.00  0.00    +0.000 C 
BRANCH  20  21
ATOM     21  N   UNL     1      47.468   8.044  12.337  0.00  0.00    +0.000 N 
ATOM     22  C   UNL     1      46.131   8.073  12.638  0.00  0.00    +0.000 C 
ATOM     23  O   UNL     1      45.607   9.036  13.196  0.00  0.00    +0.000 OA
ATOM     24  H   UNL     1      47.904   7.158  12.106  0.00  0.00    +0.000 HD
BRANCH  22  25
ATOM     25  C   UNL     1      45.343   6.911  12.208  0.00  0.00    +0.000 A 
ATOM     26  C   UNL     1      44.204   7.091  11.435  0.00  0.00    +0.000 A 
ATOM     27  S   UNL     1      43.463   5.629  10.957  0.00  0.00    +0.000 S 
ATOM     28  C   UNL     1      44.607   4.705  11.813  0.00  0.00    +0.000 A 
ATOM     29  N   UNL     1      44.539   3.345  11.833  0.00  0.00    +0.000 NA
ATOM     30  C   UNL     1      45.449   2.776  12.547  0.00  0.00    +0.000 A 
ATOM     31  N   UNL     1      46.423   3.442  13.244  0.00  0.00    +0.000 N 
ATOM     32  C   UNL     1      46.545   4.809  13.236  0.00  0.00    +0.000 A 
ATOM     33  O   UNL     1      47.449   5.370  13.850  0.00  0.00    +0.000 OA
ATOM     34  C   UNL     1      45.545   5.501  12.448  0.00  0.00    +0.000 A 
ATOM     35  H   UNL     1      47.111   2.937  13.788  0.00  0.00    +0.000 HD
ENDBRANCH  22  25
ENDBRANCH  20  21
ENDBRANCH   4  20
TORSDOF 7
ENDMDL
MODEL 9
REMARK VINA RESULT:    -6.469      2.643      3.942
REMARK INTER + INTRA:          -9.887
REMARK INTER:                  -9.110
REMARK INTRA:                  -0.777
REMARK UNBOUND:                -0.770
REMARK  Name = 
REMARK  8 active torsions:
REMARK  status: ('A' for Active; 'I' for Inactive)
REMARK    1  A    between atoms: C_1  and  O_2
REMARK    2  A    between atoms: O_2  and  C_3
REMARK    3  A    between atoms: C_8  and  C_9
REMARK    4  A    between atoms: N_11  and  C_12
REMARK    5  A    between atoms: C_12  and  C_13
REMARK    6  A    between atoms: C_16  and  C_17
REMARK    7  A    between atoms: C_17  and  N_18
REMARK    8  A    between atoms: C_19  and  C_21
REMARK                            x       y       z     vdW  Elec       q    Type
REMARK                         _______ _______ _______ _____ _____    ______ ____
ROOT
ATOM      1  C   UNL     1      46.857   7.762  12.309  0.00  0.00    +0.000 A 
ATOM      2  C   UNL     1      48.011   7.069  11.917  0.00  0.00    +0.000 A 
ATOM      3  C   UNL     1      49.279   7.510  12.315  0.00  0.00    +0.000 A 
ATOM      4  C   UNL     1      49.419   8.639  13.133  0.00  0.00    +0.000 A 
ATOM      5  C   UNL     1      48.264   9.334  13.519  0.00  0.00    +0.000 A 
ATOM      6  C   UNL     1      46.998   8.894  13.120  0.00  0.00    +0.000 A 
ENDROOT
BRANCH   1   7
ATOM      7  C   UNL     1      45.488   7.276  11.906  0.00  0.00    +0.000 C 
BRANCH   7  10
ATOM      8  C   UNL     1      44.476   5.429  10.612  0.00  0.00    +0.000 C 
ATOM      9  O   UNL     1      43.341   5.875  10.751  0.00  0.00    +0.000 OA
ATOM     10  N   UNL     1      45.573   6.040  11.168  0.00  0.00    +0.000 N 
ATOM     11  H   UNL     1      46.486   5.627  11.013  0.00  0.00    +0.000 HD
BRANCH   8  17
ATOM     12  C   UNL     1      44.142   2.926  10.056  0.00  0.00    +0.000 A 
ATOM     13  C   UNL     1      44.498   1.831   9.251  0.00  0.00    +0.000 A 
ATOM     14  C   UNL     1      45.382   1.983   8.181  0.00  0.00    +0.000 A 
ATOM     15  C   UNL     1      45.921   3.231   7.895  0.00  0.00    +0.000 A 
ATOM     16  C   UNL     1      45.591   4.326   8.695  0.00  0.00    +0.000 A 
ATOM     17  C   UNL     1      44.714   4.191   9.788  0.00  0.00    +0.000 A 
BRANCH  12  19
ATOM     18  C   UNL     1      43.799   2.778  12.422  0.00  0.00    +0.000 C 
ATOM     19  O   UNL     1      43.264   2.827  11.105  0.00  0.00    +0.000 OA
ENDBRANCH  12  19
ENDBRANCH   8  17
ENDBRANCH   7  10
ENDBRANCH   1   7
BRANCH   4  20
ATOM     20  C   UNL     1      50.782   9.134  13.551  0.00  0.00    +0.000 C 
BRANCH  20  21
ATOM     21  N   UNL     1      51.489   8.121  14.294  0.00  0.00    +0.000 N 
ATOM     22  C   UNL     1      51.405   8.027  15.659  0.00  0.00    +0.000 C 
ATOM     23  O   UNL     1      50.689   8.773  16.323  0.00  0.00    +0.000 OA
ATOM     24  H   UNL     1      52.256   7.664  13.811  0.00  0.00    +0.000 HD
BRANCH  22  25
ATOM     25  C   UNL     1      52.178   6.945  16.282  0.00  0.00    +0.000 A 
ATOM     26  C   UNL     1      53.560   7.041  16.374  0.00  0.00    +0.000 A 
ATOM     27  S   UNL     1      54.284   5.735  17.202  0.00  0.00    +0.000 S 
ATOM     28  C   UNL     1      52.781   4.966  17.416  0.00  0.00    +0.000 A 
ATOM     29  N   UNL     1      52.691   3.765  18.052  0.00  0.00    +0.000 NA
ATOM     30  C   UNL     1      51.496   3.284  18.115  0.00  0.00    +0.000 A 
ATOM     31  N   UNL     1      50.382   3.892  17.598  0.00  0.00    +0.000 N 
ATOM     32  C   UNL     1      50.421   5.112  16.969  0.00  0.00    +0.000 A 
ATOM     33  O   UNL     1      49.397   5.640  16.546  0.00  0.00    +0.000 OA
ATOM     34  C   UNL     1      51.742   5.700  16.871  0.00  0.00    +0.000 A 
ATOM     35  H   UNL     1      49.470   3.462  17.679  0.00  0.00    +0.000 HD
ENDBRANCH  22  25
ENDBRANCH  20  21
ENDBRANCH   4  20
TORSDOF 7
ENDMDL
