MODEL 1
REMARK VINA RESULT:    -8.195      0.000      0.000
REMARK INTER + INTRA:         -12.887
REMARK INTER:                 -11.788
REMARK INTRA:                  -1.099
REMARK UNBOUND:                -1.099
REMARK  Name = 
REMARK  8 active torsions:
REMARK  status: ('A' for Active; 'I' for Inactive)
REMARK    1  A    between atoms: C_2  and  C_22
REMARK    2  A    between atoms: N_3  and  C_4
REMARK    3  A    between atoms: C_4  and  C_5
REMARK    4  A    between atoms: C_8  and  C_9
REMARK    5  A    between atoms: C_9  and  N_10
REMARK    6  A    between atoms: N_10  and  C_11
REMARK    7  A    between atoms: C_11  and  C_12
REMARK    8  A    between atoms: C_12  and  O_13
REMARK                            x       y       z     vdW  Elec       q    Type
REMARK                         _______ _______ _______ _____ _____    ______ ____
ROOT
ATOM      1  C   UNL     1      48.156   6.913  14.134  0.00  0.00    +0.000 A 
ATOM      2  C   UNL     1      48.270   7.629  12.940  0.00  0.00    +0.000 A 
ATOM      3  C   UNL     1      47.513   7.274  11.821  0.00  0.00    +0.000 A 
ATOM      4  C   UNL     1      46.594   6.215  11.886  0.00  0.00    +0.000 A 
ATOM      5  C   UNL     1      46.569   5.423  13.044  0.00  0.00    +0.000 A 
ATOM      6  C   UNL     1      47.338   5.772  14.162  0.00  0.00    +0.000 A 
ENDROOT
BRANCH   1   7
ATOM      7  C   UNL     1      48.801   7.450  15.389  0.00  0.00    +0.000 C 
BRANCH   7  10
ATOM      8  O   UNL     1      48.691   5.832  17.743  0.00  0.00    +0.000 OA
ATOM      9  C   UNL     1      49.704   5.836  17.053  0.00  0.00    +0.000 C 
ATOM     10  N   UNL     1      49.816   6.548  15.885  0.00  0.00    +0.000 N 
ATOM     11  H   UNL     1      50.697   6.550  15.390  0.00  0.00    +0.000 HD
BRANCH   9  12
ATOM     12  C   UNL     1      50.877   5.023  17.410  0.00  0.00    +0.000 A 
ATOM     13  C   UNL     1      52.064   5.628  17.803  0.00  0.00    +0.000 A 
ATOM     14  S   UNL     1      53.296   4.511  18.194  0.00  0.00    +0.000 S 
ATOM     15  C   UNL     1      52.298   3.186  17.811  0.00  0.00    +0.000 A 
ATOM     16  N   UNL     1      52.753   1.909  17.922  0.00  0.00    +0.000 NA
ATOM     17  C   UNL     1      51.902   1.006  17.567  0.00  0.00    +0.000 A 
ATOM     18  N   UNL     1      50.635   1.267  17.115  0.00  0.00    +0.000 N 
ATOM     19  C   UNL     1      50.116   2.532  17.028  0.00  0.00    +0.000 A 
ATOM     20  O   UNL     1      48.949   2.717  16.697  0.00  0.00    +0.000 OA
ATOM     21  C   UNL     1      51.038   3.588  17.404  0.00  0.00    +0.000 A 
ATOM     22  H   UNL     1      50.010   0.512  16.867  0.00  0.00    +0.000 HD
ENDBRANCH   9  12
ENDBRANCH   7  10
ENDBRANCH   1   7
BRANCH   4  23
ATOM     23  C   UNL     1      45.514   6.092  10.825  0.00  0.00    +0.000 C 
BRANCH  23  24
ATOM     24  N   UNL     1      44.929   4.755  10.671  0.00  0.00    +0.000 N 
ATOM     25  C   UNL     1      45.420   4.121   9.496  0.00  0.00    +0.000 A 
ATOM     26  C   UNL     1      45.340   2.734   9.386  0.00  0.00    +0.000 A 
ATOM     27  C   UNL     1      45.775   2.103   8.224  0.00  0.00    +0.000 A 
ATOM     28  C   UNL     1      46.278   2.885   7.207  0.00  0.00    +0.000 A 
ATOM     29  N   UNL     1      46.363   4.222   7.316  0.00  0.00    +0.000 NA
ATOM     30  N   UNL     1      45.935   4.835   8.471  0.00  0.00    +0.000 NA
BRANCH  24  31
ATOM     31  C   UNL     1      43.460   4.623  10.777  0.00  0.00    +0.000 C 
BRANCH  31  32
ATOM     32  C   UNL     1      42.830   5.186  12.066  0.00  0.00    +0.000 C 
BRANCH  32  33
ATOM     33  O   UNL     1      42.044   6.336  11.739  0.00  0.00    +0.000 OA
ATOM     34  H   UNL     1      42.549   7.121  12.015  0.00  0.00    +0.000 HD
ENDBRANCH  32  33
ENDBRANCH  31  32
ENDBRANCH  24  31
ENDBRANCH  23  24
ENDBRANCH   4  23
TORSDOF 8
ENDMDL
MODEL 2
REMARK VINA RESULT:    -7.523      2.280      2.809
REMARK INTER + INTRA:         -11.921
REMARK INTER:                 -10.894
REMARK INTRA:                  -1.027
REMARK UNBOUND:                -1.099
REMARK  Name = 
REMARK  8 active torsions:
REMARK  status: ('A' for Active; 'I' for Inactive)
REMARK    1  A    between atoms: C_2  and  C_22
REMARK    2  A    between atoms: N_3  and  C_4
REMARK    3  A    between atoms: C_4  and  C_5
REMARK    4  A    between atoms: C_8  and  C_9
REMARK    5  A    between atoms: C_9  and  N_10
REMARK    6  A    between atoms: N_10  and  C_11
REMARK    7  A    between atoms: C_11  and  C_12
REMARK    8  A    between atoms: C_12  and  O_13
REMARK                            x       y       z     vdW  Elec       q    Type
REMARK                         _______ _______ _______ _____ _____    ______ ____
ROOT
ATOM      1  C   UNL     1      48.304   7.071  13.659  0.00  0.00    +0.000 A 
ATOM      2  C   UNL     1      47.717   5.804  13.624  0.00  0.00    +0.000 A 
ATOM      3  C   UNL     1      46.588   5.564  12.836  0.00  0.00    +0.000 A 
ATOM      4  C   UNL     1      46.046   6.581  12.035  0.00  0.00    +0.000 A 
ATOM      5  C   UNL     1      46.562   7.879  12.164  0.00  0.00    +0.000 A 
ATOM      6  C   UNL     1      47.687   8.122  12.964  0.00  0.00    +0.000 A 
ENDROOT
BRANCH   1   7
ATOM      7  C   UNL     1      49.647   7.249  14.327  0.00  0.00    +0.000 C 
BRANCH   7  10
ATOM      8  O   UNL     1      51.107   5.849  16.347  0.00  0.00    +0.000 OA
ATOM      9  C   UNL     1      50.220   6.632  16.668  0.00  0.00    +0.000 C 
ATOM     10  N   UNL     1      49.508   7.375  15.760  0.00  0.00    +0.000 N 
ATOM     11  H   UNL     1      48.752   7.962  16.086  0.00  0.00    +0.000 HD
BRANCH   9  12
ATOM     12  C   UNL     1      49.881   6.869  18.080  0.00  0.00    +0.000 A 
ATOM     13  C   UNL     1      50.064   8.122  18.652  0.00  0.00    +0.000 A 
ATOM     14  S   UNL     1      49.590   8.193  20.291  0.00  0.00    +0.000 S 
ATOM     15  C   UNL     1      49.164   6.545  20.302  0.00  0.00    +0.000 A 
ATOM     16  N   UNL     1      48.682   5.951  21.427  0.00  0.00    +0.000 NA
ATOM     17  C   UNL     1      48.433   4.692  21.302  0.00  0.00    +0.000 A 
ATOM     18  N   UNL     1      48.618   3.973  20.149  0.00  0.00    +0.000 N 
ATOM     19  C   UNL     1      49.059   4.535  18.979  0.00  0.00    +0.000 A 
ATOM     20  O   UNL     1      49.132   3.875  17.947  0.00  0.00    +0.000 OA
ATOM     21  C   UNL     1      49.367   5.950  19.069  0.00  0.00    +0.000 A 
ATOM     22  H   UNL     1      48.388   2.990  20.111  0.00  0.00    +0.000 HD
ENDBRANCH   9  12
ENDBRANCH   7  10
ENDBRANCH   1   7
BRANCH   4  23
ATOM     23  C   UNL     1      45.095   6.221  10.906  0.00  0.00    +0.000 C 
BRANCH  23  24
ATOM     24  N   UNL     1      44.601   4.839  10.912  0.00  0.00    +0.000 N 
ATOM     25  C   UNL     1      45.101   4.118   9.792  0.00  0.00    +0.000 A 
ATOM     26  C   UNL     1      45.115   2.726   9.829  0.00  0.00    +0.000 A 
ATOM     27  C   UNL     1      45.558   2.006   8.724  0.00  0.00    +0.000 A 
ATOM     28  C   UNL     1      45.975   2.707   7.614  0.00  0.00    +0.000 A 
ATOM     29  N   UNL     1      45.969   4.051   7.580  0.00  0.00    +0.000 NA
ATOM     30  N   UNL     1      45.534   4.753   8.680  0.00  0.00    +0.000 NA
BRANCH  24  31
ATOM     31  C   UNL     1      43.149   4.622  11.086  0.00  0.00    +0.000 C 
BRANCH  31  32
ATOM     32  C   UNL     1      42.422   5.648  11.976  0.00  0.00    +0.000 C 
BRANCH  32  33
ATOM     33  O   UNL     1      42.783   5.422  13.341  0.00  0.00    +0.000 OA
ATOM     34  H   UNL     1      43.750   5.315  13.372  0.00  0.00    +0.000 HD
ENDBRANCH  32  33
ENDBRANCH  31  32
ENDBRANCH  24  31
ENDBRANCH  23  24
ENDBRANCH   4  23
TORSDOF 8
ENDMDL
MODEL 3
REMARK VINA RESULT:    -7.369      2.439      3.518
REMARK INTER + INTRA:         -11.699
REMARK INTER:                 -10.512
REMARK INTRA:                  -1.187
REMARK UNBOUND:                -1.099
REMARK  Name = 
REMARK  8 active torsions:
REMARK  status: ('A' for Active; 'I' for Inactive)
REMARK    1  A    between atoms: C_2  and  C_22
REMARK    2  A    between atoms: N_3  and  C_4
REMARK    3  A    between atoms: C_4  and  C_5
REMARK    4  A    between atoms: C_8  and  C_9
REMARK    5  A    between atoms: C_9  and  N_10
REMARK    6  A    between atoms: N_10  and  C_11
REMARK    7  A    between atoms: C_11  and  C_12
REMARK    8  A    between atoms: C_12  and  O_13
REMARK                            x       y       z     vdW  Elec       q    Type
REMARK                         _______ _______ _______ _____ _____    ______ ____
ROOT
ATOM      1  C   UNL     1      48.557   6.900  13.697  0.00  0.00    +0.000 A 
ATOM      2  C   UNL     1      48.508   7.469  12.422  0.00  0.00    +0.000 A 
ATOM      3  C   UNL     1      47.508   7.104  11.517  0.00  0.00    +0.000 A 
ATOM      4  C   UNL     1      46.510   6.188  11.886  0.00  0.00    +0.000 A 
ATOM      5  C   UNL     1      46.630   5.530  13.118  0.00  0.00    +0.000 A 
ATOM      6  C   UNL     1      47.641   5.887  14.021  0.00  0.00    +0.000 A 
ENDROOT
BRANCH   1   7
ATOM      7  C   UNL     1      49.496   7.473  14.732  0.00  0.00    +0.000 C 
BRANCH   7  10
ATOM      8  O   UNL     1      51.203   6.167  16.617  0.00  0.00    +0.000 OA
ATOM      9  C   UNL     1      50.023   6.357  16.891  0.00  0.00    +0.000 C 
ATOM     10  N   UNL     1      49.154   7.018  16.060  0.00  0.00    +0.000 N 
ATOM     11  H   UNL     1      48.181   7.095  16.323  0.00  0.00    +0.000 HD
BRANCH   9  12
ATOM     12  C   UNL     1      49.457   5.923  18.178  0.00  0.00    +0.000 A 
ATOM     13  C   UNL     1      49.544   4.596  18.580  0.00  0.00    +0.000 A 
ATOM     14  S   UNL     1      48.845   4.304  20.110  0.00  0.00    +0.000 S 
ATOM     15  C   UNL     1      48.367   5.930  20.268  0.00  0.00    +0.000 A 
ATOM     16  N   UNL     1      47.697   6.362  21.371  0.00  0.00    +0.000 NA
ATOM     17  C   UNL     1      47.367   7.609  21.342  0.00  0.00    +0.000 A 
ATOM     18  N   UNL     1      47.652   8.465  20.310  0.00  0.00    +0.000 N 
ATOM     19  C   UNL     1      48.362   8.089  19.199  0.00  0.00    +0.000 A 
ATOM     20  O   UNL     1      48.668   8.906  18.336  0.00  0.00    +0.000 OA
ATOM     21  C   UNL     1      48.746   6.690  19.175  0.00  0.00    +0.000 A 
ATOM     22  H   UNL     1      47.379   9.437  20.355  0.00  0.00    +0.000 HD
ENDBRANCH   9  12
ENDBRANCH   7  10
ENDBRANCH   1   7
BRANCH   4  23
ATOM     23  C   UNL     1      45.232   6.101  11.068  0.00  0.00    +0.000 C 
BRANCH  23  24
ATOM     24  N   UNL     1      44.675   4.753  10.908  0.00  0.00    +0.000 N 
ATOM     25  C   UNL     1      45.167   4.139   9.723  0.00  0.00    +0.000 A 
ATOM     26  C   UNL     1      45.116   2.752   9.602  0.00  0.00    +0.000 A 
ATOM     27  C   UNL     1      45.552   2.141   8.430  0.00  0.00    +0.000 A 
ATOM     28  C   UNL     1      46.027   2.942   7.415  0.00  0.00    +0.000 A 
ATOM     29  N   UNL     1      46.085   4.279   7.534  0.00  0.00    +0.000 NA
ATOM     30  N   UNL     1      45.656   4.873   8.699  0.00  0.00    +0.000 NA
BRANCH  24  31
ATOM     31  C   UNL     1      43.210   4.589  11.029  0.00  0.00    +0.000 C 
BRANCH  31  32
ATOM     32  C   UNL     1      42.473   5.708  11.790  0.00  0.00    +0.000 C 
BRANCH  32  33
ATOM     33  O   UNL     1      42.477   5.404  13.187  0.00  0.00    +0.000 OA
ATOM     34  H   UNL     1      41.905   6.056  13.628  0.00  0.00    +0.000 HD
ENDBRANCH  32  33
ENDBRANCH  31  32
ENDBRANCH  24  31
ENDBRANCH  23  24
ENDBRANCH   4  23
TORSDOF 8
ENDMDL
MODEL 4
REMARK VINA RESULT:    -6.785      2.071      2.813
REMARK INTER + INTRA:         -10.858
REMARK INTER:                  -9.764
REMARK INTRA:                  -1.095
REMARK UNBOUND:                -1.099
REMARK  Name = 
REMARK  8 active torsions:
REMARK  status: ('A' for Active; 'I' for Inactive)
REMARK    1  A    between atoms: C_2  and  C_22
REMARK    2  A    between atoms: N_3  and  C_4
REMARK    3  A    between atoms: C_4  and  C_5
REMARK    4  A    between atoms: C_8  and  C_9
REMARK    5  A    between atoms: C_9  and  N_10
REMARK    6  A    between atoms: N_10  and  C_11
REMARK    7  A    between atoms: C_11  and  C_12
REMARK    8  A    between atoms: C_12  and  O_13
REMARK                            x       y       z     vdW  Elec       q    Type
REMARK                         _______ _______ _______ _____ _____    ______ ____
ROOT
ATOM      1  C   UNL     1      47.716   5.271  15.212  0.00  0.00    +0.000 A 
ATOM      2  C   UNL     1      48.161   6.329  14.416  0.00  0.00    +0.000 A 
ATOM      3  C   UNL     1      47.647   6.518  13.130  0.00  0.00    +0.000 A 
ATOM      4  C   UNL     1      46.648   5.670  12.627  0.00  0.00    +0.000 A 
ATOM      5  C   UNL     1      46.292   4.540  13.378  0.00  0.00    +0.000 A 
ATOM      6  C   UNL     1      46.816   4.344  14.663  0.00  0.00    +0.000 A 
ENDROOT
BRANCH   1   7
ATOM      7  C   UNL     1      48.107   5.221  16.669  0.00  0.00    +0.000 C 
BRANCH   7  10
ATOM      8  O   UNL     1      50.561   3.810  17.069  0.00  0.00    +0.000 OA
ATOM      9  C   UNL     1      50.548   5.036  17.109  0.00  0.00    +0.000 C 
ATOM     10  N   UNL     1      49.421   5.784  16.880  0.00  0.00    +0.000 N 
ATOM     11  H   UNL     1      49.466   6.789  16.980  0.00  0.00    +0.000 HD
BRANCH   9  12
ATOM     12  C   UNL     1      51.775   5.807  17.363  0.00  0.00    +0.000 A 
ATOM     13  C   UNL     1      52.412   6.486  16.332  0.00  0.00    +0.000 A 
ATOM     14  S   UNL     1      53.804   7.335  16.839  0.00  0.00    +0.000 S 
ATOM     15  C   UNL     1      53.626   6.791  18.442  0.00  0.00    +0.000 A 
ATOM     16  N   UNL     1      54.511   7.153  19.410  0.00  0.00    +0.000 NA
ATOM     17  C   UNL     1      54.273   6.641  20.569  0.00  0.00    +0.000 A 
ATOM     18  N   UNL     1      53.226   5.801  20.849  0.00  0.00    +0.000 N 
ATOM     19  C   UNL     1      52.284   5.443  19.921  0.00  0.00    +0.000 A 
ATOM     20  O   UNL     1      51.316   4.757  20.232  0.00  0.00    +0.000 OA
ATOM     21  C   UNL     1      52.512   5.983  18.593  0.00  0.00    +0.000 A 
ATOM     22  H   UNL     1      53.086   5.445  21.785  0.00  0.00    +0.000 HD
ENDBRANCH   9  12
ENDBRANCH   7  10
ENDBRANCH   1   7
BRANCH   4  23
ATOM     23  C   UNL     1      45.829   6.106  11.425  0.00  0.00    +0.000 C 
BRANCH  23  24
ATOM     24  N   UNL     1      44.799   5.158  10.984  0.00  0.00    +0.000 N 
ATOM     25  C   UNL     1      45.156   4.564   9.742  0.00  0.00    +0.000 A 
ATOM     26  C   UNL     1      44.562   3.361   9.366  0.00  0.00    +0.000 A 
ATOM     27  C   UNL     1      44.866   2.791   8.133  0.00  0.00    +0.000 A 
ATOM     28  C   UNL     1      45.760   3.447   7.316  0.00  0.00    +0.000 A 
ATOM     29  N   UNL     1      46.339   4.603   7.681  0.00  0.00    +0.000 NA
ATOM     30  N   UNL     1      46.035   5.155   8.903  0.00  0.00    +0.000 NA
BRANCH  24  31
ATOM     31  C   UNL     1      43.392   5.615  10.977  0.00  0.00    +0.000 C 
BRANCH  31  32
ATOM     32  C   UNL     1      42.516   5.102  12.135  0.00  0.00    +0.000 C 
BRANCH  32  33
ATOM     33  O   UNL     1      42.887   5.781  13.338  0.00  0.00    +0.000 OA
ATOM     34  H   UNL     1      43.536   5.221  13.799  0.00  0.00    +0.000 HD
ENDBRANCH  32  33
ENDBRANCH  31  32
ENDBRANCH  24  31
ENDBRANCH  23  24
ENDBRANCH   4  23
TORSDOF 8
ENDMDL
MODEL 5
REMARK VINA RESULT:    -6.743      2.250      2.403
REMARK INTER + INTRA:         -10.798
REMARK INTER:                  -9.453
REMARK INTRA:                  -1.345
REMARK UNBOUND:                -1.099
REMARK  Name = 
REMARK  8 active torsions:
REMARK  status: ('A' for Active; 'I' for Inactive)
REMARK    1  A    between atoms: C_2  and  C_22
REMARK    2  A    between atoms: N_3  and  C_4
REMARK    3  A    between atoms: C_4  and  C_5
REMARK    4  A    between atoms: C_8  and  C_9
REMARK    5  A    between atoms: C_9  and  N_10
REMARK    6  A    between atoms: N_10  and  C_11
REMARK    7  A    between atoms: C_11  and  C_12
REMARK    8  A    between atoms: C_12  and  O_13
REMARK                            x       y       z     vdW  Elec       q    Type
REMARK                         _______ _______ _______ _____ _____    ______ ____
ROOT
ATOM      1  C   UNL     1      48.868   7.990  13.433  0.00  0.00    +0.000 A 
ATOM      2  C   UNL     1      47.630   8.504  13.827  0.00  0.00    +0.000 A 
ATOM      3  C   UNL     1      46.489   8.285  13.050  0.00  0.00    +0.000 A 
ATOM      4  C   UNL     1      46.557   7.514  11.879  0.00  0.00    +0.000 A 
ATOM      5  C   UNL     1      47.819   7.104  11.423  0.00  0.00    +0.000 A 
ATOM      6  C   UNL     1      48.965   7.333  12.196  0.00  0.00    +0.000 A 
ENDROOT
BRANCH   1   7
ATOM      7  C   UNL     1      50.032   8.037  14.394  0.00  0.00    +0.000 C 
BRANCH   7  10
ATOM      8  O   UNL     1      49.115   8.556  17.051  0.00  0.00    +0.000 OA
ATOM      9  C   UNL     1      49.458   7.422  16.735  0.00  0.00    +0.000 C 
ATOM     10  N   UNL     1      49.864   7.085  15.468  0.00  0.00    +0.000 N 
ATOM     11  H   UNL     1      50.185   6.144  15.285  0.00  0.00    +0.000 HD
BRANCH   9  12
ATOM     12  C   UNL     1      49.414   6.311  17.698  0.00  0.00    +0.000 A 
ATOM     13  C   UNL     1      50.093   6.393  18.907  0.00  0.00    +0.000 A 
ATOM     14  S   UNL     1      49.896   5.009  19.889  0.00  0.00    +0.000 S 
ATOM     15  C   UNL     1      48.933   4.240  18.716  0.00  0.00    +0.000 A 
ATOM     16  N   UNL     1      48.430   2.993  18.927  0.00  0.00    +0.000 NA
ATOM     17  C   UNL     1      47.747   2.519  17.942  0.00  0.00    +0.000 A 
ATOM     18  N   UNL     1      47.517   3.182  16.764  0.00  0.00    +0.000 N 
ATOM     19  C   UNL     1      47.964   4.454  16.521  0.00  0.00    +0.000 A 
ATOM     20  O   UNL     1      47.666   5.044  15.487  0.00  0.00    +0.000 OA
ATOM     21  C   UNL     1      48.751   5.031  17.595  0.00  0.00    +0.000 A 
ATOM     22  H   UNL     1      46.959   2.760  16.034  0.00  0.00    +0.000 HD
ENDBRANCH   9  12
ENDBRANCH   7  10
ENDBRANCH   1   7
BRANCH   4  23
ATOM     23  C   UNL     1      45.281   6.957  11.272  0.00  0.00    +0.000 C 
BRANCH  23  24
ATOM     24  N   UNL     1      44.914   5.604  11.705  0.00  0.00    +0.000 N 
ATOM     25  C   UNL     1      44.946   4.695  10.611  0.00  0.00    +0.000 A 
ATOM     26  C   UNL     1      45.054   3.329  10.863  0.00  0.00    +0.000 A 
ATOM     27  C   UNL     1      45.041   2.425   9.804  0.00  0.00    +0.000 A 
ATOM     28  C   UNL     1      44.922   2.921   8.525  0.00  0.00    +0.000 A 
ATOM     29  N   UNL     1      44.826   4.239   8.281  0.00  0.00    +0.000 NA
ATOM     30  N   UNL     1      44.845   5.125   9.334  0.00  0.00    +0.000 NA
BRANCH  24  31
ATOM     31  C   UNL     1      43.677   5.442  12.501  0.00  0.00    +0.000 C 
BRANCH  31  32
ATOM     32  C   UNL     1      42.364   5.420  11.697  0.00  0.00    +0.000 C 
BRANCH  32  33
ATOM     33  O   UNL     1      41.770   6.721  11.735  0.00  0.00    +0.000 OA
ATOM     34  H   UNL     1      41.652   6.959  12.671  0.00  0.00    +0.000 HD
ENDBRANCH  32  33
ENDBRANCH  31  32
ENDBRANCH  24  31
ENDBRANCH  23  24
ENDBRANCH   4  23
TORSDOF 8
ENDMDL
MODEL 6
REMARK VINA RESULT:    -6.454      3.407      5.309
REMARK INTER + INTRA:         -10.382
REMARK INTER:                  -9.249
REMARK INTRA:                  -1.134
REMARK UNBOUND:                -1.099
REMARK  Name = 
REMARK  8 active torsions:
REMARK  status: ('A' for Active; 'I' for Inactive)
REMARK    1  A    between atoms: C_2  and  C_22
REMARK    2  A    between atoms: N_3  and  C_4
REMARK    3  A    between atoms: C_4  and  C_5
REMARK    4  A    between atoms: C_8  and  C_9
REMARK    5  A    between atoms: C_9  and  N_10
REMARK    6  A    between atoms: N_10  and  C_11
REMARK    7  A    between atoms: C_11  and  C_12
REMARK    8  A    between atoms: C_12  and  O_13
REMARK                            x       y       z     vdW  Elec       q    Type
REMARK                         _______ _______ _______ _____ _____    ______ ____
ROOT
ATOM      1  C   UNL     1      48.679   5.398  16.413  0.00  0.00    +0.000 A 
ATOM      2  C   UNL     1      48.885   6.393  15.454  0.00  0.00    +0.000 A 
ATOM      3  C   UNL     1      48.111   6.431  14.290  0.00  0.00    +0.000 A 
ATOM      4  C   UNL     1      47.088   5.493  14.081  0.00  0.00    +0.000 A 
ATOM      5  C   UNL     1      46.964   4.427  14.985  0.00  0.00    +0.000 A 
ATOM      6  C   UNL     1      47.748   4.382  16.145  0.00  0.00    +0.000 A 
ENDROOT
BRANCH   1   7
ATOM      7  C   UNL     1      49.358   5.510  17.757  0.00  0.00    +0.000 C 
BRANCH   7  10
ATOM      8  O   UNL     1      46.965   6.032  19.230  0.00  0.00    +0.000 OA
ATOM      9  C   UNL     1      47.797   6.920  19.084  0.00  0.00    +0.000 C 
ATOM     10  N   UNL     1      48.990   6.734  18.431  0.00  0.00    +0.000 N 
ATOM     11  H   UNL     1      49.609   7.521  18.298  0.00  0.00    +0.000 HD
BRANCH   9  12
ATOM     12  C   UNL     1      47.592   8.263  19.649  0.00  0.00    +0.000 A 
ATOM     13  C   UNL     1      47.298   8.428  20.997  0.00  0.00    +0.000 A 
ATOM     14  S   UNL     1      47.119  10.063  21.456  0.00  0.00    +0.000 S 
ATOM     15  C   UNL     1      47.387  10.601  19.864  0.00  0.00    +0.000 A 
ATOM     16  N   UNL     1      47.362  11.927  19.557  0.00  0.00    +0.000 NA
ATOM     17  C   UNL     1      47.547  12.190  18.308  0.00  0.00    +0.000 A 
ATOM     18  N   UNL     1      47.760  11.245  17.338  0.00  0.00    +0.000 N 
ATOM     19  C   UNL     1      47.838   9.903  17.603  0.00  0.00    +0.000 A 
ATOM     20  O   UNL     1      48.114   9.096  16.720  0.00  0.00    +0.000 OA
ATOM     21  C   UNL     1      47.624   9.551  18.995  0.00  0.00    +0.000 A 
ATOM     22  H   UNL     1      47.915  11.517  16.376  0.00  0.00    +0.000 HD
ENDBRANCH   9  12
ENDBRANCH   7  10
ENDBRANCH   1   7
BRANCH   4  23
ATOM     23  C   UNL     1      46.016   5.771  13.041  0.00  0.00    +0.000 C 
BRANCH  23  24
ATOM     24  N   UNL     1      45.215   4.611  12.633  0.00  0.00    +0.000 N 
ATOM     25  C   UNL     1      45.278   4.423  11.224  0.00  0.00    +0.000 A 
ATOM     26  C   UNL     1      44.963   3.176  10.688  0.00  0.00    +0.000 A 
ATOM     27  C   UNL     1      44.976   2.989   9.309  0.00  0.00    +0.000 A 
ATOM     28  C   UNL     1      45.307   4.061   8.510  0.00  0.00    +0.000 A 
ATOM     29  N   UNL     1      45.620   5.262   9.026  0.00  0.00    +0.000 NA
ATOM     30  N   UNL     1      45.609   5.434  10.391  0.00  0.00    +0.000 NA
BRANCH  24  31
ATOM     31  C   UNL     1      43.823   4.521  13.124  0.00  0.00    +0.000 C 
BRANCH  31  32
ATOM     32  C   UNL     1      42.857   5.598  12.595  0.00  0.00    +0.000 C 
BRANCH  32  33
ATOM     33  O   UNL     1      41.897   4.982  11.732  0.00  0.00    +0.000 OA
ATOM     34  H   UNL     1      42.297   4.162  11.390  0.00  0.00    +0.000 HD
ENDBRANCH  32  33
ENDBRANCH  31  32
ENDBRANCH  24  31
ENDBRANCH  23  24
ENDBRANCH   4  23
TORSDOF 8
ENDMDL
MODEL 7
REMARK VINA RESULT:    -6.355      5.153      6.087
REMARK INTER + INTRA:         -10.241
REMARK INTER:                  -8.931
REMARK INTRA:                  -1.310
REMARK UNBOUND:                -1.099
REMARK  Name = 
REMARK  8 active torsions:
REMARK  status: ('A' for Active; 'I' for Inactive)
REMARK    1  A    between atoms: C_2  and  C_22
REMARK    2  A    between atoms: N_3  and  C_4
REMARK    3  A    between atoms: C_4  and  C_5
REMARK    4  A    between atoms: C_8  and  C_9
REMARK    5  A    between atoms: C_9  and  N_10
REMARK    6  A    between atoms: N_10  and  C_11
REMARK    7  A    between atoms: C_11  and  C_12
REMARK    8  A    between atoms: C_12  and  O_13
REMARK                            x       y       z     vdW  Elec       q    Type
REMARK                         _______ _______ _______ _____ _____    ______ ____
ROOT
ATOM      1  C   UNL     1      47.828   8.416  12.889  0.00  0.00    +0.000 A 
ATOM      2  C   UNL     1      48.176   7.317  12.099  0.00  0.00    +0.000 A 
ATOM      3  C   UNL     1      47.190   6.542  11.482  0.00  0.00    +0.000 A 
ATOM      4  C   UNL     1      45.833   6.876  11.613  0.00  0.00    +0.000 A 
ATOM      5  C   UNL     1      45.480   7.902  12.501  0.00  0.00    +0.000 A 
ATOM      6  C   UNL     1      46.469   8.672  13.130  0.00  0.00    +0.000 A 
ENDROOT
BRANCH   1   7
ATOM      7  C   UNL     1      48.903   9.370  13.351  0.00  0.00    +0.000 C 
BRANCH   7  10
ATOM      8  O   UNL     1      51.736   9.607  13.647  0.00  0.00    +0.000 OA
ATOM      9  C   UNL     1      51.225   9.749  12.542  0.00  0.00    +0.000 C 
ATOM     10  N   UNL     1      49.879   9.604  12.312  0.00  0.00    +0.000 N 
ATOM     11  H   UNL     1      49.514   9.786  11.387  0.00  0.00    +0.000 HD
BRANCH   9  12
ATOM     12  C   UNL     1      52.039  10.045  11.353  0.00  0.00    +0.000 A 
ATOM     13  C   UNL     1      52.580  11.310  11.161  0.00  0.00    +0.000 A 
ATOM     14  S   UNL     1      53.508  11.439   9.733  0.00  0.00    +0.000 S 
ATOM     15  C   UNL     1      53.184   9.824   9.304  0.00  0.00    +0.000 A 
ATOM     16  N   UNL     1      53.685   9.287   8.159  0.00  0.00    +0.000 NA
ATOM     17  C   UNL     1      53.332   8.065   7.943  0.00  0.00    +0.000 A 
ATOM     18  N   UNL     1      52.525   7.330   8.773  0.00  0.00    +0.000 N 
ATOM     19  C   UNL     1      52.033   7.812   9.958  0.00  0.00    +0.000 A 
ATOM     20  O   UNL     1      51.383   7.094  10.712  0.00  0.00    +0.000 OA
ATOM     21  C   UNL     1      52.390   9.189  10.243  0.00  0.00    +0.000 A 
ATOM     22  H   UNL     1      52.298   6.370   8.554  0.00  0.00    +0.000 HD
ENDBRANCH   9  12
ENDBRANCH   7  10
ENDBRANCH   1   7
BRANCH   4  23
ATOM     23  C   UNL     1      44.820   6.291  10.643  0.00  0.00    +0.000 C 
BRANCH  23  24
ATOM     24  N   UNL     1      44.521   4.866  10.824  0.00  0.00    +0.000 N 
ATOM     25  C   UNL     1      45.015   4.103   9.729  0.00  0.00    +0.000 A 
ATOM     26  C   UNL     1      45.222   2.734   9.891  0.00  0.00    +0.000 A 
ATOM     27  C   UNL     1      45.661   1.967   8.816  0.00  0.00    +0.000 A 
ATOM     28  C   UNL     1      45.880   2.597   7.612  0.00  0.00    +0.000 A 
ATOM     29  N   UNL     1      45.688   3.918   7.457  0.00  0.00    +0.000 NA
ATOM     30  N   UNL     1      45.259   4.669   8.527  0.00  0.00    +0.000 NA
BRANCH  24  31
ATOM     31  C   UNL     1      43.133   4.485  11.161  0.00  0.00    +0.000 C 
BRANCH  31  32
ATOM     32  C   UNL     1      42.316   5.545  11.924  0.00  0.00    +0.000 C 
BRANCH  32  33
ATOM     33  O   UNL     1      42.727   5.555  13.294  0.00  0.00    +0.000 OA
ATOM     34  H   UNL     1      43.566   6.047  13.342  0.00  0.00    +0.000 HD
ENDBRANCH  32  33
ENDBRANCH  31  32
ENDBRANCH  24  31
ENDBRANCH  23  24
ENDBRANCH   4  23
TORSDOF 8
ENDMDL
MODEL 8
REMARK VINA RESULT:    -6.045      3.766      9.438
REMARK INTER + INTRA:          -9.794
REMARK INTER:                  -8.749
REMARK INTRA:                  -1.045
REMARK UNBOUND:                -1.099
REMARK  Name = 
REMARK  8 active torsions:
REMARK  status: ('A' for Active; 'I' for Inactive)
REMARK    1  A    between atoms: C_2  and  C_22
REMARK    2  A    between atoms: N_3  and  C_4
REMARK    3  A    between atoms: C_4  and  C_5
REMARK    4  A    between atoms: C_8  and  C_9
REMARK    5  A    between atoms: C_9  and  N_10
REMARK    6  A    between atoms: N_10  and  C_11
REMARK    7  A    between atoms: C_11  and  C_12
REMARK    8  A    between atoms: C_12  and  O_13
REMARK                            x       y       z     vdW  Elec       q    Type
REMARK                         _______ _______ _______ _____ _____    ______ ____
ROOT
ATOM      1  C   UNL     1      48.272   7.903  13.582  0.00  0.00    +0.000 A 
ATOM      2  C   UNL     1      48.423   6.667  14.217  0.00  0.00    +0.000 A 
ATOM      3  C   UNL     1      48.985   6.587  15.494  0.00  0.00    +0.000 A 
ATOM      4  C   UNL     1      49.373   7.749  16.179  0.00  0.00    +0.000 A 
ATOM      5  C   UNL     1      49.332   8.973  15.494  0.00  0.00    +0.000 A 
ATOM      6  C   UNL     1      48.780   9.052  14.208  0.00  0.00    +0.000 A 
ENDROOT
BRANCH   1   7
ATOM      7  C   UNL     1      47.458   7.992  12.313  0.00  0.00    +0.000 C 
BRANCH   7  10
ATOM      8  O   UNL     1      44.755   7.733  11.419  0.00  0.00    +0.000 OA
ATOM      9  C   UNL     1      45.408   6.730  11.685  0.00  0.00    +0.000 C 
ATOM     10  N   UNL     1      46.724   6.770  12.074  0.00  0.00    +0.000 N 
ATOM     11  H   UNL     1      47.190   5.911  12.330  0.00  0.00    +0.000 HD
BRANCH   9  12
ATOM     12  C   UNL     1      44.830   5.383  11.557  0.00  0.00    +0.000 A 
ATOM     13  C   UNL     1      44.132   4.809  12.612  0.00  0.00    +0.000 A 
ATOM     14  S   UNL     1      43.525   3.253  12.255  0.00  0.00    +0.000 S 
ATOM     15  C   UNL     1      44.210   3.278  10.697  0.00  0.00    +0.000 A 
ATOM     16  N   UNL     1      44.068   2.223   9.850  0.00  0.00    +0.000 NA
ATOM     17  C   UNL     1      44.667   2.363   8.716  0.00  0.00    +0.000 A 
ATOM     18  N   UNL     1      45.392   3.469   8.351  0.00  0.00    +0.000 N 
ATOM     19  C   UNL     1      45.526   4.574   9.150  0.00  0.00    +0.000 A 
ATOM     20  O   UNL     1      46.113   5.575   8.753  0.00  0.00    +0.000 OA
ATOM     21  C   UNL     1      44.881   4.462  10.446  0.00  0.00    +0.000 A 
ATOM     22  H   UNL     1      45.824   3.524   7.439  0.00  0.00    +0.000 HD
ENDBRANCH   9  12
ENDBRANCH   7  10
ENDBRANCH   1   7
BRANCH   4  23
ATOM     23  C   UNL     1      49.601   7.695  17.680  0.00  0.00    +0.000 C 
BRANCH  23  24
ATOM     24  N   UNL     1      48.388   7.732  18.505  0.00  0.00    +0.000 N 
ATOM     25  C   UNL     1      48.198   9.025  19.068  0.00  0.00    +0.000 A 
ATOM     26  C   UNL     1      46.930   9.395  19.512  0.00  0.00    +0.000 A 
ATOM     27  C   UNL     1      46.738  10.639  20.106  0.00  0.00    +0.000 A 
ATOM     28  C   UNL     1      47.826  11.474  20.235  0.00  0.00    +0.000 A 
ATOM     29  N   UNL     1      49.047  11.121  19.799  0.00  0.00    +0.000 NA
ATOM     30  N   UNL     1      49.225   9.891  19.209  0.00  0.00    +0.000 NA
BRANCH  24  31
ATOM     31  C   UNL     1      48.208   6.673  19.521  0.00  0.00    +0.000 C 
BRANCH  31  32
ATOM     32  C   UNL     1      46.853   5.940  19.489  0.00  0.00    +0.000 C 
BRANCH  32  33
ATOM     33  O   UNL     1      46.733   5.233  18.251  0.00  0.00    +0.000 OA
ATOM     34  H   UNL     1      47.581   4.784  18.090  0.00  0.00    +0.000 HD
ENDBRANCH  32  33
ENDBRANCH  31  32
ENDBRANCH  24  31
ENDBRANCH  23  24
ENDBRANCH   4  23
TORSDOF 8
ENDMDL
MODEL 9
REMARK VINA RESULT:    -5.868      1.622      2.517
REMARK INTER + INTRA:          -9.540
REMARK INTER:                  -8.536
REMARK INTRA:                  -1.004
REMARK UNBOUND:                -1.099
REMARK  Name = 
REMARK  8 active torsions:
REMARK  status: ('A' for Active; 'I' for Inactive)
REMARK    1  A    between atoms: C_2  and  C_22
REMARK    2  A    between atoms: N_3  and  C_4
REMARK    3  A    between atoms: C_4  and  C_5
REMARK    4  A    between atoms: C_8  and  C_9
REMARK    5  A    between atoms: C_9  and  N_10
REMARK    6  A    between atoms: N_10  and  C_11
REMARK    7  A    between atoms: C_11  and  C_12
REMARK    8  A    between atoms: C_12  and  O_13
REMARK                            x       y       z     vdW  Elec       q    Type
REMARK                         _______ _______ _______ _____ _____    ______ ____
ROOT
ATOM      1  C   UNL     1      50.189   7.766  15.148  0.00  0.00    +0.000 A 
ATOM      2  C   UNL     1      49.160   6.855  15.401  0.00  0.00    +0.000 A 
ATOM      3  C   UNL     1      48.210   6.563  14.419  0.00  0.00    +0.000 A 
ATOM      4  C   UNL     1      48.293   7.149  13.147  0.00  0.00    +0.000 A 
ATOM      5  C   UNL     1      49.252   8.151  12.934  0.00  0.00    +0.000 A 
ATOM      6  C   UNL     1      50.197   8.453  13.924  0.00  0.00    +0.000 A 
ENDROOT
BRANCH   1   7
ATOM      7  C   UNL     1      51.329   7.891  16.129  0.00  0.00    +0.000 C 
BRANCH   7  10
ATOM      8  O   UNL     1      52.039   7.011  18.755  0.00  0.00    +0.000 OA
ATOM      9  C   UNL     1      52.195   6.261  17.797  0.00  0.00    +0.000 C 
ATOM     10  N   UNL     1      51.835   6.594  16.515  0.00  0.00    +0.000 N 
ATOM     11  H   UNL     1      52.039   5.951  15.762  0.00  0.00    +0.000 HD
BRANCH   9  12
ATOM     12  C   UNL     1      52.747   4.908  17.965  0.00  0.00    +0.000 A 
ATOM     13  C   UNL     1      54.086   4.723  18.284  0.00  0.00    +0.000 A 
ATOM     14  S   UNL     1      54.521   3.080  18.455  0.00  0.00    +0.000 S 
ATOM     15  C   UNL     1      52.947   2.562  18.069  0.00  0.00    +0.000 A 
ATOM     16  N   UNL     1      52.633   1.238  18.029  0.00  0.00    +0.000 NA
ATOM     17  C   UNL     1      51.414   0.988  17.690  0.00  0.00    +0.000 A 
ATOM     18  N   UNL     1      50.478   1.944  17.392  0.00  0.00    +0.000 N 
ATOM     19  C   UNL     1      50.732   3.289  17.462  0.00  0.00    +0.000 A 
ATOM     20  O   UNL     1      49.844   4.113  17.268  0.00  0.00    +0.000 OA
ATOM     21  C   UNL     1      52.096   3.626  17.826  0.00  0.00    +0.000 A 
ATOM     22  H   UNL     1      49.532   1.683  17.148  0.00  0.00    +0.000 HD
ENDBRANCH   9  12
ENDBRANCH   7  10
ENDBRANCH   1   7
BRANCH   4  23
ATOM     23  C   UNL     1      47.519   6.542  11.989  0.00  0.00    +0.000 C 
BRANCH  23  24
ATOM     24  N   UNL     1      46.141   6.138  12.292  0.00  0.00    +0.000 N 
ATOM     25  C   UNL     1      45.568   5.434  11.197  0.00  0.00    +0.000 A 
ATOM     26  C   UNL     1      44.466   4.611  11.418  0.00  0.00    +0.000 A 
ATOM     27  C   UNL     1      43.866   3.951  10.350  0.00  0.00    +0.000 A 
ATOM     28  C   UNL     1      44.393   4.137   9.091  0.00  0.00    +0.000 A 
ATOM     29  N   UNL     1      45.461   4.924   8.877  0.00  0.00    +0.000 NA
ATOM     30  N   UNL     1      46.049   5.568   9.941  0.00  0.00    +0.000 NA
BRANCH  24  31
ATOM     31  C   UNL     1      45.215   7.168  12.811  0.00  0.00    +0.000 C 
BRANCH  31  32
ATOM     32  C   UNL     1      45.005   8.396  11.905  0.00  0.00    +0.000 C 
BRANCH  32  33
ATOM     33  O   UNL     1      43.926   8.133  11.004  0.00  0.00    +0.000 OA
ATOM     34  H   UNL     1      43.467   8.977  10.846  0.00  0.00    +0.000 HD
ENDBRANCH  32  33
ENDBRANCH  31  32
ENDBRANCH  24  31
ENDBRANCH  23  24
ENDBRANCH   4  23
TORSDOF 8
ENDMDL
