MODEL 1
REMARK VINA RESULT:    -6.934      0.000      0.000
REMARK INTER + INTRA:         -10.365
REMARK INTER:                  -9.975
REMARK INTRA:                  -0.390
REMARK UNBOUND:                -0.390
REMARK  Name = 
REMARK  8 active torsions:
REMARK  status: ('A' for Active; 'I' for Inactive)
REMARK    1  A    between atoms: C_2  and  C_21
REMARK    2  A    between atoms: N_3  and  C_4
REMARK    3  A    between atoms: C_4  and  C_5
REMARK    4  A    between atoms: C_8  and  C_9
REMARK    5  A    between atoms: C_9  and  N_10
REMARK    6  A    between atoms: N_13  and  C_14
REMARK    7  A    between atoms: C_14  and  C_15
REMARK    8  A    between atoms: C_15  and  O_16
REMARK                            x       y       z     vdW  Elec       q    Type
REMARK                         _______ _______ _______ _____ _____    ______ ____
ROOT
ATOM      1  C   UNL     1      48.333   8.063  13.168  0.00  0.00    +0.000 A 
ATOM      2  C   UNL     1      47.786   8.778  14.242  0.00  0.00    +0.000 A 
ATOM      3  C   UNL     1      48.446   8.842  15.477  0.00  0.00    +0.000 A 
ATOM      4  C   UNL     1      49.682   8.210  15.670  0.00  0.00    +0.000 A 
ATOM      5  C   UNL     1      50.266   7.561  14.570  0.00  0.00    +0.000 A 
ATOM      6  C   UNL     1      49.602   7.492  13.332  0.00  0.00    +0.000 A 
ENDROOT
BRANCH   1   7
ATOM      7  C   UNL     1      47.540   7.898  11.891  0.00  0.00    +0.000 C 
BRANCH   7  10
ATOM      8  O   UNL     1      44.806   7.515  12.181  0.00  0.00    +0.000 OA
ATOM      9  C   UNL     1      45.497   6.543  11.881  0.00  0.00    +0.000 C 
ATOM     10  N   UNL     1      46.869   6.624  11.800  0.00  0.00    +0.000 N 
ATOM     11  H   UNL     1      47.387   5.868  11.366  0.00  0.00    +0.000 HD
BRANCH   9  12
ATOM     12  C   UNL     1      44.890   5.230  11.618  0.00  0.00    +0.000 A 
ATOM     13  C   UNL     1      44.121   4.607  12.594  0.00  0.00    +0.000 A 
ATOM     14  S   UNL     1      43.513   3.085  12.122  0.00  0.00    +0.000 S 
ATOM     15  C   UNL     1      44.206   3.228  10.575  0.00  0.00    +0.000 A 
ATOM     16  N   UNL     1      44.037   2.255   9.641  0.00  0.00    +0.000 NA
ATOM     17  C   UNL     1      44.587   2.516   8.498  0.00  0.00    +0.000 A 
ATOM     18  N   UNL     1      45.294   3.652   8.209  0.00  0.00    +0.000 N 
ATOM     19  C   UNL     1      45.522   4.637   9.136  0.00  0.00    +0.000 A 
ATOM     20  O   UNL     1      46.206   5.617   8.855  0.00  0.00    +0.000 OA
ATOM     21  C   UNL     1      44.911   4.412  10.429  0.00  0.00    +0.000 A 
ATOM     22  H   UNL     1      45.706   3.785   7.300  0.00  0.00    +0.000 HD
ENDBRANCH   9  12
ENDBRANCH   7  10
ENDBRANCH   1   7
BRANCH   4  23
ATOM     23  C   UNL     1      50.369   8.257  17.029  0.00  0.00    +0.000 C 
BRANCH  23  24
ATOM     24  N   UNL     1      49.729   7.434  18.075  0.00  0.00    +0.000 NA
ATOM     25  C   UNL     1      50.676   6.483  18.689  0.00  0.00    +0.000 C 
ATOM     26  C   UNL     1      51.129   5.330  17.762  0.00  0.00    +0.000 C 
ATOM     27  N   UNL     1      50.059   4.558  17.099  0.00  0.00    +0.000 NA
ATOM     28  C   UNL     1      48.865   5.366  16.790  0.00  0.00    +0.000 C 
ATOM     29  C   UNL     1      48.574   6.652  17.611  0.00  0.00    +0.000 C 
BRANCH  27  30
ATOM     30  C   UNL     1      49.808   3.271  17.777  0.00  0.00    +0.000 C 
BRANCH  30  31
ATOM     31  C   UNL     1      50.452   2.041  17.105  0.00  0.00    +0.000 C 
BRANCH  31  32
ATOM     32  O   UNL     1      49.702   1.630  15.964  0.00  0.00    +0.000 OA
ATOM     33  H   UNL     1      50.347   1.208  15.365  0.00  0.00    +0.000 HD
ENDBRANCH  31  32
ENDBRANCH  30  31
ENDBRANCH  27  30
ENDBRANCH  23  24
ENDBRANCH   4  23
TORSDOF 8
ENDMDL
MODEL 2
REMARK VINA RESULT:    -6.765      2.961      8.743
REMARK INTER + INTRA:         -10.121
REMARK INTER:                  -9.291
REMARK INTRA:                  -0.830
REMARK UNBOUND:                -0.390
REMARK  Name = 
REMARK  8 active torsions:
REMARK  status: ('A' for Active; 'I' for Inactive)
REMARK    1  A    between atoms: C_2  and  C_21
REMARK    2  A    between atoms: N_3  and  C_4
REMARK    3  A    between atoms: C_4  and  C_5
REMARK    4  A    between atoms: C_8  and  C_9
REMARK    5  A    between atoms: C_9  and  N_10
REMARK    6  A    between atoms: N_13  and  C_14
REMARK    7  A    between atoms: C_14  and  C_15
REMARK    8  A    between atoms: C_15  and  O_16
REMARK                            x       y       z     vdW  Elec       q    Type
REMARK                         _______ _______ _______ _____ _____    ______ ____
ROOT
ATOM      1  C   UNL     1      45.488   7.390  12.343  0.00  0.00    +0.000 A 
ATOM      2  C   UNL     1      46.551   6.528  12.038  0.00  0.00    +0.000 A 
ATOM      3  C   UNL     1      46.314   5.218  11.602  0.00  0.00    +0.000 A 
ATOM      4  C   UNL     1      45.008   4.734  11.439  0.00  0.00    +0.000 A 
ATOM      5  C   UNL     1      43.946   5.624  11.668  0.00  0.00    +0.000 A 
ATOM      6  C   UNL     1      44.183   6.938  12.111  0.00  0.00    +0.000 A 
ENDROOT
BRANCH   1   7
ATOM      7  C   UNL     1      45.770   8.752  12.937  0.00  0.00    +0.000 C 
BRANCH   7  10
ATOM      8  O   UNL     1      48.449   9.460  12.781  0.00  0.00    +0.000 OA
ATOM      9  C   UNL     1      47.995   9.154  13.881  0.00  0.00    +0.000 C 
ATOM     10  N   UNL     1      46.702   8.709  14.037  0.00  0.00    +0.000 N 
ATOM     11  H   UNL     1      46.304   8.654  14.968  0.00  0.00    +0.000 HD
BRANCH   9  12
ATOM     12  C   UNL     1      48.827   9.224  15.093  0.00  0.00    +0.000 A 
ATOM     13  C   UNL     1      49.207  10.458  15.608  0.00  0.00    +0.000 A 
ATOM     14  S   UNL     1      50.183  10.347  17.003  0.00  0.00    +0.000 S 
ATOM     15  C   UNL     1      50.084   8.649  17.003  0.00  0.00    +0.000 A 
ATOM     16  N   UNL     1      50.689   7.914  17.974  0.00  0.00    +0.000 NA
ATOM     17  C   UNL     1      50.498   6.638  17.869  0.00  0.00    +0.000 A 
ATOM     18  N   UNL     1      49.766   6.033  16.883  0.00  0.00    +0.000 N 
ATOM     19  C   UNL     1      49.175   6.736  15.864  0.00  0.00    +0.000 A 
ATOM     20  O   UNL     1      48.570   6.153  14.968  0.00  0.00    +0.000 OA
ATOM     21  C   UNL     1      49.335   8.173  15.940  0.00  0.00    +0.000 A 
ATOM     22  H   UNL     1      49.667   5.031  16.856  0.00  0.00    +0.000 HD
ENDBRANCH   9  12
ENDBRANCH   7  10
ENDBRANCH   1   7
BRANCH   4  23
ATOM     23  C   UNL     1      44.767   3.295  11.001  0.00  0.00    +0.000 C 
BRANCH  23  24
ATOM     24  N   UNL     1      44.103   3.150   9.689  0.00  0.00    +0.000 NA
ATOM     25  C   UNL     1      44.443   1.872   9.034  0.00  0.00    +0.000 C 
ATOM     26  C   UNL     1      45.907   1.768   8.542  0.00  0.00    +0.000 C 
ATOM     27  N   UNL     1      46.398   2.871   7.692  0.00  0.00    +0.000 NA
ATOM     28  C   UNL     1      45.793   4.174   8.026  0.00  0.00    +0.000 C 
ATOM     29  C   UNL     1      44.410   4.222   8.732  0.00  0.00    +0.000 C 
BRANCH  27  30
ATOM     30  C   UNL     1      46.397   2.508   6.262  0.00  0.00    +0.000 C 
BRANCH  30  31
ATOM     31  C   UNL     1      47.754   2.023   5.709  0.00  0.00    +0.000 C 
BRANCH  31  32
ATOM     32  O   UNL     1      48.837   2.614   6.424  0.00  0.00    +0.000 OA
ATOM     33  H   UNL     1      48.486   2.813   7.313  0.00  0.00    +0.000 HD
ENDBRANCH  31  32
ENDBRANCH  30  31
ENDBRANCH  27  30
ENDBRANCH  23  24
ENDBRANCH   4  23
TORSDOF 8
ENDMDL
MODEL 3
REMARK VINA RESULT:    -6.734      1.287      2.123
REMARK INTER + INTRA:         -10.077
REMARK INTER:                  -9.885
REMARK INTRA:                  -0.192
REMARK UNBOUND:                -0.390
REMARK  Name = 
REMARK  8 active torsions:
REMARK  status: ('A' for Active; 'I' for Inactive)
REMARK    1  A    between atoms: C_2  and  C_21
REMARK    2  A    between atoms: N_3  and  C_4
REMARK    3  A    between atoms: C_4  and  C_5
REMARK    4  A    between atoms: C_8  and  C_9
REMARK    5  A    between atoms: C_9  and  N_10
REMARK    6  A    between atoms: N_13  and  C_14
REMARK    7  A    between atoms: C_14  and  C_15
REMARK    8  A    between atoms: C_15  and  O_16
REMARK                            x       y       z     vdW  Elec       q    Type
REMARK                         _______ _______ _______ _____ _____    ______ ____
ROOT
ATOM      1  C   UNL     1      48.611   8.141  13.301  0.00  0.00    +0.000 A 
ATOM      2  C   UNL     1      49.805   7.470  13.598  0.00  0.00    +0.000 A 
ATOM      3  C   UNL     1      50.340   7.488  14.893  0.00  0.00    +0.000 A 
ATOM      4  C   UNL     1      49.688   8.161  15.936  0.00  0.00    +0.000 A 
ATOM      5  C   UNL     1      48.451   8.765  15.655  0.00  0.00    +0.000 A 
ATOM      6  C   UNL     1      47.917   8.752  14.354  0.00  0.00    +0.000 A 
ENDROOT
BRANCH   1   7
ATOM      7  C   UNL     1      48.125   8.218  11.871  0.00  0.00    +0.000 C 
BRANCH   7  10
ATOM      8  O   UNL     1      45.381   7.807  11.819  0.00  0.00    +0.000 OA
ATOM      9  C   UNL     1      46.106   6.925  11.364  0.00  0.00    +0.000 C 
ATOM     10  N   UNL     1      47.478   7.007  11.426  0.00  0.00    +0.000 N 
ATOM     11  H   UNL     1      48.040   6.368  10.876  0.00  0.00    +0.000 HD
BRANCH   9  12
ATOM     12  C   UNL     1      45.538   5.716  10.748  0.00  0.00    +0.000 A 
ATOM     13  C   UNL     1      45.764   5.445   9.404  0.00  0.00    +0.000 A 
ATOM     14  S   UNL     1      45.015   4.013   8.857  0.00  0.00    +0.000 S 
ATOM     15  C   UNL     1      44.410   3.672  10.410  0.00  0.00    +0.000 A 
ATOM     16  N   UNL     1      43.686   2.546  10.647  0.00  0.00    +0.000 NA
ATOM     17  C   UNL     1      43.324   2.398  11.881  0.00  0.00    +0.000 A 
ATOM     18  N   UNL     1      43.612   3.274  12.893  0.00  0.00    +0.000 N 
ATOM     19  C   UNL     1      44.304   4.440  12.687  0.00  0.00    +0.000 A 
ATOM     20  O   UNL     1      44.498   5.226  13.610  0.00  0.00    +0.000 OA
ATOM     21  C   UNL     1      44.756   4.651  11.328  0.00  0.00    +0.000 A 
ATOM     22  H   UNL     1      43.289   3.102  13.831  0.00  0.00    +0.000 HD
ENDBRANCH   9  12
ENDBRANCH   7  10
ENDBRANCH   1   7
BRANCH   4  23
ATOM     23  C   UNL     1      50.301   8.203  17.330  0.00  0.00    +0.000 C 
BRANCH  23  24
ATOM     24  N   UNL     1      49.652   7.319  18.319  0.00  0.00    +0.000 NA
ATOM     25  C   UNL     1      50.596   6.338  18.889  0.00  0.00    +0.000 C 
ATOM     26  C   UNL     1      51.064   5.242  17.902  0.00  0.00    +0.000 C 
ATOM     27  N   UNL     1      50.006   4.505  17.183  0.00  0.00    +0.000 NA
ATOM     28  C   UNL     1      48.812   5.326  16.907  0.00  0.00    +0.000 C 
ATOM     29  C   UNL     1      48.506   6.562  17.796  0.00  0.00    +0.000 C 
BRANCH  27  30
ATOM     30  C   UNL     1      49.752   3.181  17.783  0.00  0.00    +0.000 C 
BRANCH  30  31
ATOM     31  C   UNL     1      50.408   1.993  17.048  0.00  0.00    +0.000 C 
BRANCH  31  32
ATOM     32  O   UNL     1      49.650   1.622  15.899  0.00  0.00    +0.000 OA
ATOM     33  H   UNL     1      50.304   1.307  15.245  0.00  0.00    +0.000 HD
ENDBRANCH  31  32
ENDBRANCH  30  31
ENDBRANCH  27  30
ENDBRANCH  23  24
ENDBRANCH   4  23
TORSDOF 8
ENDMDL
MODEL 4
REMARK VINA RESULT:    -6.591      1.476      1.774
REMARK INTER + INTRA:          -9.870
REMARK INTER:                  -8.882
REMARK INTRA:                  -0.988
REMARK UNBOUND:                -0.390
REMARK  Name = 
REMARK  8 active torsions:
REMARK  status: ('A' for Active; 'I' for Inactive)
REMARK    1  A    between atoms: C_2  and  C_21
REMARK    2  A    between atoms: N_3  and  C_4
REMARK    3  A    between atoms: C_4  and  C_5
REMARK    4  A    between atoms: C_8  and  C_9
REMARK    5  A    between atoms: C_9  and  N_10
REMARK    6  A    between atoms: N_13  and  C_14
REMARK    7  A    between atoms: C_14  and  C_15
REMARK    8  A    between atoms: C_15  and  O_16
REMARK                            x       y       z     vdW  Elec       q    Type
REMARK                         _______ _______ _______ _____ _____    ______ ____
ROOT
ATOM      1  C   UNL     1      48.389   8.032  13.169  0.00  0.00    +0.000 A 
ATOM      2  C   UNL     1      47.695   8.817  14.101  0.00  0.00    +0.000 A 
ATOM      3  C   UNL     1      48.171   8.973  15.410  0.00  0.00    +0.000 A 
ATOM      4  C   UNL     1      49.365   8.364  15.822  0.00  0.00    +0.000 A 
ATOM      5  C   UNL     1      50.099   7.645  14.866  0.00  0.00    +0.000 A 
ATOM      6  C   UNL     1      49.619   7.483  13.554  0.00  0.00    +0.000 A 
ENDROOT
BRANCH   1   7
ATOM      7  C   UNL     1      47.787   7.772  11.807  0.00  0.00    +0.000 C 
BRANCH   7  10
ATOM      8  O   UNL     1      45.033   7.514  12.028  0.00  0.00    +0.000 OA
ATOM      9  C   UNL     1      45.689   6.505  11.777  0.00  0.00    +0.000 C 
ATOM     10  N   UNL     1      47.065   6.525  11.734  0.00  0.00    +0.000 N 
ATOM     11  H   UNL     1      47.561   5.735  11.338  0.00  0.00    +0.000 HD
BRANCH   9  12
ATOM     12  C   UNL     1      45.033   5.211  11.535  0.00  0.00    +0.000 A 
ATOM     13  C   UNL     1      44.272   4.617  12.534  0.00  0.00    +0.000 A 
ATOM     14  S   UNL     1      43.603   3.113  12.083  0.00  0.00    +0.000 S 
ATOM     15  C   UNL     1      44.259   3.229  10.518  0.00  0.00    +0.000 A 
ATOM     16  N   UNL     1      44.033   2.260   9.592  0.00  0.00    +0.000 NA
ATOM     17  C   UNL     1      44.562   2.499   8.434  0.00  0.00    +0.000 A 
ATOM     18  N   UNL     1      45.297   3.611   8.123  0.00  0.00    +0.000 N 
ATOM     19  C   UNL     1      45.581   4.591   9.040  0.00  0.00    +0.000 A 
ATOM     20  O   UNL     1      46.288   5.548   8.738  0.00  0.00    +0.000 OA
ATOM     21  C   UNL     1      44.997   4.390  10.350  0.00  0.00    +0.000 A 
ATOM     22  H   UNL     1      45.689   3.728   7.203  0.00  0.00    +0.000 HD
ENDBRANCH   9  12
ENDBRANCH   7  10
ENDBRANCH   1   7
BRANCH   4  23
ATOM     23  C   UNL     1      49.849   8.512  17.259  0.00  0.00    +0.000 C 
BRANCH  23  24
ATOM     24  N   UNL     1      48.969   7.900  18.276  0.00  0.00    +0.000 NA
ATOM     25  C   UNL     1      49.530   8.013  19.636  0.00  0.00    +0.000 C 
ATOM     26  C   UNL     1      50.785   7.144  19.893  0.00  0.00    +0.000 C 
ATOM     27  N   UNL     1      50.676   5.712  19.553  0.00  0.00    +0.000 NA
ATOM     28  C   UNL     1      49.787   5.453  18.406  0.00  0.00    +0.000 C 
ATOM     29  C   UNL     1      48.676   6.478  18.047  0.00  0.00    +0.000 C 
BRANCH  27  30
ATOM     30  C   UNL     1      50.444   4.878  20.749  0.00  0.00    +0.000 C 
BRANCH  30  31
ATOM     31  C   UNL     1      48.984   4.841  21.247  0.00  0.00    +0.000 C 
BRANCH  31  32
ATOM     32  O   UNL     1      48.319   3.664  20.796  0.00  0.00    +0.000 OA
ATOM     33  H   UNL     1      48.813   3.371  20.006  0.00  0.00    +0.000 HD
ENDBRANCH  31  32
ENDBRANCH  30  31
ENDBRANCH  27  30
ENDBRANCH  23  24
ENDBRANCH   4  23
TORSDOF 8
ENDMDL
MODEL 5
REMARK VINA RESULT:    -6.545      4.719      8.404
REMARK INTER + INTRA:          -9.804
REMARK INTER:                  -9.235
REMARK INTRA:                  -0.570
REMARK UNBOUND:                -0.390
REMARK  Name = 
REMARK  8 active torsions:
REMARK  status: ('A' for Active; 'I' for Inactive)
REMARK    1  A    between atoms: C_2  and  C_21
REMARK    2  A    between atoms: N_3  and  C_4
REMARK    3  A    between atoms: C_4  and  C_5
REMARK    4  A    between atoms: C_8  and  C_9
REMARK    5  A    between atoms: C_9  and  N_10
REMARK    6  A    between atoms: N_13  and  C_14
REMARK    7  A    between atoms: C_14  and  C_15
REMARK    8  A    between atoms: C_15  and  O_16
REMARK                            x       y       z     vdW  Elec       q    Type
REMARK                         _______ _______ _______ _____ _____    ______ ____
ROOT
ATOM      1  C   UNL     1      45.410   7.585  12.261  0.00  0.00    +0.000 A 
ATOM      2  C   UNL     1      44.183   7.147  11.742  0.00  0.00    +0.000 A 
ATOM      3  C   UNL     1      43.996   5.811  11.365  0.00  0.00    +0.000 A 
ATOM      4  C   UNL     1      45.022   4.867  11.512  0.00  0.00    +0.000 A 
ATOM      5  C   UNL     1      46.222   5.290  12.105  0.00  0.00    +0.000 A 
ATOM      6  C   UNL     1      46.413   6.632  12.479  0.00  0.00    +0.000 A 
ENDROOT
BRANCH   1   7
ATOM      7  C   UNL     1      45.629   9.056  12.536  0.00  0.00    +0.000 C 
BRANCH   7  10
ATOM      8  O   UNL     1      47.991   9.658  13.862  0.00  0.00    +0.000 OA
ATOM      9  C   UNL     1      47.970   9.774  12.638  0.00  0.00    +0.000 C 
ATOM     10  N   UNL     1      46.818   9.579  11.909  0.00  0.00    +0.000 N 
ATOM     11  H   UNL     1      46.878   9.491  10.901  0.00  0.00    +0.000 HD
BRANCH   9  12
ATOM     12  C   UNL     1      49.176  10.157  11.889  0.00  0.00    +0.000 A 
ATOM     13  C   UNL     1      49.403  11.488  11.563  0.00  0.00    +0.000 A 
ATOM     14  S   UNL     1      50.840  11.743  10.679  0.00  0.00    +0.000 S 
ATOM     15  C   UNL     1      51.240  10.091  10.750  0.00  0.00    +0.000 A 
ATOM     16  N   UNL     1      52.392   9.628  10.197  0.00  0.00    +0.000 NA
ATOM     17  C   UNL     1      52.585   8.357  10.360  0.00  0.00    +0.000 A 
ATOM     18  N   UNL     1      51.730   7.513  11.017  0.00  0.00    +0.000 N 
ATOM     19  C   UNL     1      50.540   7.935  11.552  0.00  0.00    +0.000 A 
ATOM     20  O   UNL     1      49.775   7.138  12.087  0.00  0.00    +0.000 OA
ATOM     21  C   UNL     1      50.279   9.353  11.420  0.00  0.00    +0.000 A 
ATOM     22  H   UNL     1      51.938   6.531  11.098  0.00  0.00    +0.000 HD
ENDBRANCH   9  12
ENDBRANCH   7  10
ENDBRANCH   1   7
BRANCH   4  23
ATOM     23  C   UNL     1      44.816   3.426  11.062  0.00  0.00    +0.000 C 
BRANCH  23  24
ATOM     24  N   UNL     1      44.139   3.275   9.757  0.00  0.00    +0.000 NA
ATOM     25  C   UNL     1      44.428   1.972   9.130  0.00  0.00    +0.000 C 
ATOM     26  C   UNL     1      45.884   1.802   8.632  0.00  0.00    +0.000 C 
ATOM     27  N   UNL     1      46.410   2.867   7.756  0.00  0.00    +0.000 NA
ATOM     28  C   UNL     1      45.855   4.199   8.062  0.00  0.00    +0.000 C 
ATOM     29  C   UNL     1      44.480   4.313   8.774  0.00  0.00    +0.000 C 
BRANCH  27  30
ATOM     30  C   UNL     1      46.387   2.472   6.334  0.00  0.00    +0.000 C 
BRANCH  30  31
ATOM     31  C   UNL     1      47.725   1.936   5.783  0.00  0.00    +0.000 C 
BRANCH  31  32
ATOM     32  O   UNL     1      48.829   2.632   6.355  0.00  0.00    +0.000 OA
ATOM     33  H   UNL     1      49.283   1.981   6.923  0.00  0.00    +0.000 HD
ENDBRANCH  31  32
ENDBRANCH  30  31
ENDBRANCH  27  30
ENDBRANCH  23  24
ENDBRANCH   4  23
TORSDOF 8
ENDMDL
MODEL 6
REMARK VINA RESULT:    -6.372      3.615      9.732
REMARK INTER + INTRA:          -9.556
REMARK INTER:                  -8.974
REMARK INTRA:                  -0.582
REMARK UNBOUND:                -0.390
REMARK  Name = 
REMARK  8 active torsions:
REMARK  status: ('A' for Active; 'I' for Inactive)
REMARK    1  A    between atoms: C_2  and  C_21
REMARK    2  A    between atoms: N_3  and  C_4
REMARK    3  A    between atoms: C_4  and  C_5
REMARK    4  A    between atoms: C_8  and  C_9
REMARK    5  A    between atoms: C_9  and  N_10
REMARK    6  A    between atoms: N_13  and  C_14
REMARK    7  A    between atoms: C_14  and  C_15
REMARK    8  A    between atoms: C_15  and  O_16
REMARK                            x       y       z     vdW  Elec       q    Type
REMARK                         _______ _______ _______ _____ _____    ______ ____
ROOT
ATOM      1  C   UNL     1      44.590   3.823  11.036  0.00  0.00    +0.000 A 
ATOM      2  C   UNL     1      45.253   4.900  10.432  0.00  0.00    +0.000 A 
ATOM      3  C   UNL     1      45.703   4.819   9.107  0.00  0.00    +0.000 A 
ATOM      4  C   UNL     1      45.488   3.666   8.339  0.00  0.00    +0.000 A 
ATOM      5  C   UNL     1      44.755   2.618   8.920  0.00  0.00    +0.000 A 
ATOM      6  C   UNL     1      44.307   2.697  10.251  0.00  0.00    +0.000 A 
ENDROOT
BRANCH   1   7
ATOM      7  C   UNL     1      44.233   3.886  12.503  0.00  0.00    +0.000 C 
BRANCH   7  10
ATOM      8  O   UNL     1      46.617   2.979  13.598  0.00  0.00    +0.000 OA
ATOM      9  C   UNL     1      46.345   4.172  13.713  0.00  0.00    +0.000 C 
ATOM     10  N   UNL     1      45.148   4.691  13.276  0.00  0.00    +0.000 N 
ATOM     11  H   UNL     1      45.037   5.696  13.208  0.00  0.00    +0.000 HD
BRANCH   9  12
ATOM     12  C   UNL     1      47.284   5.107  14.353  0.00  0.00    +0.000 A 
ATOM     13  C   UNL     1      47.845   6.145  13.618  0.00  0.00    +0.000 A 
ATOM     14  S   UNL     1      48.922   7.117  14.515  0.00  0.00    +0.000 S 
ATOM     15  C   UNL     1      48.633   6.222  15.933  0.00  0.00    +0.000 A 
ATOM     16  N   UNL     1      49.236   6.556  17.105  0.00  0.00    +0.000 NA
ATOM     17  C   UNL     1      48.894   5.812  18.108  0.00  0.00    +0.000 A 
ATOM     18  N   UNL     1      48.013   4.766  18.043  0.00  0.00    +0.000 N 
ATOM     19  C   UNL     1      47.417   4.372  16.873  0.00  0.00    +0.000 A 
ATOM     20  O   UNL     1      46.673   3.396  16.845  0.00  0.00    +0.000 OA
ATOM     21  C   UNL     1      47.744   5.182  15.718  0.00  0.00    +0.000 A 
ATOM     22  H   UNL     1      47.800   4.221  18.863  0.00  0.00    +0.000 HD
ENDBRANCH   9  12
ENDBRANCH   7  10
ENDBRANCH   1   7
BRANCH   4  23
ATOM     23  C   UNL     1      46.017   3.578   6.913  0.00  0.00    +0.000 C 
BRANCH  23  24
ATOM     24  N   UNL     1      47.322   2.899   6.777  0.00  0.00    +0.000 NA
ATOM     25  C   UNL     1      47.769   2.835   5.373  0.00  0.00    +0.000 C 
ATOM     26  C   UNL     1      46.943   1.885   4.473  0.00  0.00    +0.000 C 
ATOM     27  N   UNL     1      46.757   0.505   4.965  0.00  0.00    +0.000 NA
ATOM     28  C   UNL     1      46.692   0.417   6.436  0.00  0.00    +0.000 C 
ATOM     29  C   UNL     1      47.349   1.526   7.302  0.00  0.00    +0.000 C 
BRANCH  27  30
ATOM     30  C   UNL     1      47.672  -0.444   4.303  0.00  0.00    +0.000 C 
BRANCH  30  31
ATOM     31  C   UNL     1      46.995  -1.444   3.342  0.00  0.00    +0.000 C 
BRANCH  31  32
ATOM     32  O   UNL     1      45.854  -0.860   2.717  0.00  0.00    +0.000 OA
ATOM     33  H   UNL     1      46.158   0.002   2.374  0.00  0.00    +0.000 HD
ENDBRANCH  31  32
ENDBRANCH  30  31
ENDBRANCH  27  30
ENDBRANCH  23  24
ENDBRANCH   4  23
TORSDOF 8
ENDMDL
MODEL 7
REMARK VINA RESULT:    -6.354      3.390      8.601
REMARK INTER + INTRA:          -9.530
REMARK INTER:                  -8.727
REMARK INTRA:                  -0.803
REMARK UNBOUND:                -0.390
REMARK  Name = 
REMARK  8 active torsions:
REMARK  status: ('A' for Active; 'I' for Inactive)
REMARK    1  A    between atoms: C_2  and  C_21
REMARK    2  A    between atoms: N_3  and  C_4
REMARK    3  A    between atoms: C_4  and  C_5
REMARK    4  A    between atoms: C_8  and  C_9
REMARK    5  A    between atoms: C_9  and  N_10
REMARK    6  A    between atoms: N_13  and  C_14
REMARK    7  A    between atoms: C_14  and  C_15
REMARK    8  A    between atoms: C_15  and  O_16
REMARK                            x       y       z     vdW  Elec       q    Type
REMARK                         _______ _______ _______ _____ _____    ______ ____
ROOT
ATOM      1  C   UNL     1      50.755   7.605  15.684  0.00  0.00    +0.000 A 
ATOM      2  C   UNL     1      50.956   7.960  14.342  0.00  0.00    +0.000 A 
ATOM      3  C   UNL     1      50.004   7.646  13.363  0.00  0.00    +0.000 A 
ATOM      4  C   UNL     1      48.813   6.985  13.697  0.00  0.00    +0.000 A 
ATOM      5  C   UNL     1      48.578   6.702  15.052  0.00  0.00    +0.000 A 
ATOM      6  C   UNL     1      49.535   7.012  16.035  0.00  0.00    +0.000 A 
ENDROOT
BRANCH   1   7
ATOM      7  C   UNL     1      51.853   7.837  16.696  0.00  0.00    +0.000 C 
BRANCH   7  10
ATOM      8  O   UNL     1      51.387   6.419  19.036  0.00  0.00    +0.000 OA
ATOM      9  C   UNL     1      52.182   5.949  18.225  0.00  0.00    +0.000 C 
ATOM     10  N   UNL     1      52.536   6.625  17.079  0.00  0.00    +0.000 N 
ATOM     11  H   UNL     1      53.034   6.133  16.346  0.00  0.00    +0.000 HD
BRANCH   9  12
ATOM     12  C   UNL     1      52.818   4.643  18.453  0.00  0.00    +0.000 A 
ATOM     13  C   UNL     1      54.034   4.566  19.121  0.00  0.00    +0.000 A 
ATOM     14  S   UNL     1      54.631   2.975  19.278  0.00  0.00    +0.000 S 
ATOM     15  C   UNL     1      53.259   2.327  18.510  0.00  0.00    +0.000 A 
ATOM     16  N   UNL     1      53.120   0.985  18.343  0.00  0.00    +0.000 NA
ATOM     17  C   UNL     1      52.010   0.633  17.777  0.00  0.00    +0.000 A 
ATOM     18  N   UNL     1      51.035   1.498  17.359  0.00  0.00    +0.000 N 
ATOM     19  C   UNL     1      51.155   2.859  17.472  0.00  0.00    +0.000 A 
ATOM     20  O   UNL     1      50.282   3.605  17.038  0.00  0.00    +0.000 OA
ATOM     21  C   UNL     1      52.368   3.314  18.119  0.00  0.00    +0.000 A 
ATOM     22  H   UNL     1      50.198   1.155  16.915  0.00  0.00    +0.000 HD
ENDBRANCH   9  12
ENDBRANCH   7  10
ENDBRANCH   1   7
BRANCH   4  23
ATOM     23  C   UNL     1      47.805   6.617  12.615  0.00  0.00    +0.000 C 
BRANCH  23  24
ATOM     24  N   UNL     1      46.390   6.778  13.007  0.00  0.00    +0.000 NA
ATOM     25  C   UNL     1      45.819   5.529  13.549  0.00  0.00    +0.000 C 
ATOM     26  C   UNL     1      45.623   4.402  12.507  0.00  0.00    +0.000 C 
ATOM     27  N   UNL     1      44.882   4.758  11.281  0.00  0.00    +0.000 NA
ATOM     28  C   UNL     1      45.085   6.158  10.866  0.00  0.00    +0.000 C 
ATOM     29  C   UNL     1      45.506   7.219  11.918  0.00  0.00    +0.000 C 
BRANCH  27  30
ATOM     30  C   UNL     1      43.480   4.298  11.332  0.00  0.00    +0.000 C 
BRANCH  30  31
ATOM     31  C   UNL     1      42.470   5.337  11.861  0.00  0.00    +0.000 C 
BRANCH  31  32
ATOM     32  O   UNL     1      42.507   5.407  13.285  0.00  0.00    +0.000 OA
ATOM     33  H   UNL     1      43.400   5.104  13.538  0.00  0.00    +0.000 HD
ENDBRANCH  31  32
ENDBRANCH  30  31
ENDBRANCH  27  30
ENDBRANCH  23  24
ENDBRANCH   4  23
TORSDOF 8
ENDMDL
MODEL 8
REMARK VINA RESULT:    -6.182      4.261      6.281
REMARK INTER + INTRA:          -9.283
REMARK INTER:                  -8.491
REMARK INTRA:                  -0.792
REMARK UNBOUND:                -0.390
REMARK  Name = 
REMARK  8 active torsions:
REMARK  status: ('A' for Active; 'I' for Inactive)
REMARK    1  A    between atoms: C_2  and  C_21
REMARK    2  A    between atoms: N_3  and  C_4
REMARK    3  A    between atoms: C_4  and  C_5
REMARK    4  A    between atoms: C_8  and  C_9
REMARK    5  A    between atoms: C_9  and  N_10
REMARK    6  A    between atoms: N_13  and  C_14
REMARK    7  A    between atoms: C_14  and  C_15
REMARK    8  A    between atoms: C_15  and  O_16
REMARK                            x       y       z     vdW  Elec       q    Type
REMARK                         _______ _______ _______ _____ _____    ______ ____
ROOT
ATOM      1  C   UNL     1      48.087   8.576  12.129  0.00  0.00    +0.000 A 
ATOM      2  C   UNL     1      48.902   7.437  12.190  0.00  0.00    +0.000 A 
ATOM      3  C   UNL     1      50.234   7.478  11.756  0.00  0.00    +0.000 A 
ATOM      4  C   UNL     1      50.798   8.664  11.265  0.00  0.00    +0.000 A 
ATOM      5  C   UNL     1      50.005   9.823  11.279  0.00  0.00    +0.000 A 
ATOM      6  C   UNL     1      48.667   9.781  11.709  0.00  0.00    +0.000 A 
ENDROOT
BRANCH   1   7
ATOM      7  C   UNL     1      46.620   8.472  12.478  0.00  0.00    +0.000 C 
BRANCH   7  10
ATOM      8  O   UNL     1      44.318   7.699  11.135  0.00  0.00    +0.000 OA
ATOM      9  C   UNL     1      45.005   6.822  11.655  0.00  0.00    +0.000 C 
ATOM     10  N   UNL     1      46.115   7.122  12.412  0.00  0.00    +0.000 N 
ATOM     11  H   UNL     1      46.762   6.382  12.659  0.00  0.00    +0.000 HD
BRANCH   9  12
ATOM     12  C   UNL     1      44.657   5.400  11.516  0.00  0.00    +0.000 A 
ATOM     13  C   UNL     1      43.942   4.755  12.518  0.00  0.00    +0.000 A 
ATOM     14  S   UNL     1      43.645   3.106  12.197  0.00  0.00    +0.000 S 
ATOM     15  C   UNL     1      44.411   3.208  10.681  0.00  0.00    +0.000 A 
ATOM     16  N   UNL     1      44.481   2.128   9.859  0.00  0.00    +0.000 NA
ATOM     17  C   UNL     1      45.058   2.362   8.723  0.00  0.00    +0.000 A 
ATOM     18  N   UNL     1      45.573   3.571   8.341  0.00  0.00    +0.000 N 
ATOM     19  C   UNL     1      45.559   4.673   9.157  0.00  0.00    +0.000 A 
ATOM     20  O   UNL     1      46.079   5.726   8.799  0.00  0.00    +0.000 OA
ATOM     21  C   UNL     1      44.906   4.479  10.434  0.00  0.00    +0.000 A 
ATOM     22  H   UNL     1      46.020   3.680   7.444  0.00  0.00    +0.000 HD
ENDBRANCH   9  12
ENDBRANCH   7  10
ENDBRANCH   1   7
BRANCH   4  23
ATOM     23  C   UNL     1      52.236   8.684  10.761  0.00  0.00    +0.000 C 
BRANCH  23  24
ATOM     24  N   UNL     1      52.737   7.385  10.267  0.00  0.00    +0.000 NA
ATOM     25  C   UNL     1      54.211   7.344  10.214  0.00  0.00    +0.000 C 
ATOM     26  C   UNL     1      54.845   8.242   9.125  0.00  0.00    +0.000 C 
ATOM     27  N   UNL     1      54.326   8.081   7.752  0.00  0.00    +0.000 NA
ATOM     28  C   UNL     1      52.897   7.719   7.711  0.00  0.00    +0.000 C 
ATOM     29  C   UNL     1      52.247   7.014   8.932  0.00  0.00    +0.000 C 
BRANCH  27  30
ATOM     30  C   UNL     1      55.223   7.259   6.916  0.00  0.00    +0.000 C 
BRANCH  30  31
ATOM     31  C   UNL     1      54.804   7.133   5.437  0.00  0.00    +0.000 C 
BRANCH  31  32
ATOM     32  O   UNL     1      54.232   5.854   5.175  0.00  0.00    +0.000 OA
ATOM     33  H   UNL     1      54.089   5.824   4.210  0.00  0.00    +0.000 HD
ENDBRANCH  31  32
ENDBRANCH  30  31
ENDBRANCH  27  30
ENDBRANCH  23  24
ENDBRANCH   4  23
TORSDOF 8
ENDMDL
MODEL 9
REMARK VINA RESULT:    -6.152      5.601      7.877
REMARK INTER + INTRA:          -9.240
REMARK INTER:                  -8.400
REMARK INTRA:                  -0.840
REMARK UNBOUND:                -0.390
REMARK  Name = 
REMARK  8 active torsions:
REMARK  status: ('A' for Active; 'I' for Inactive)
REMARK    1  A    between atoms: C_2  and  C_21
REMARK    2  A    between atoms: N_3  and  C_4
REMARK    3  A    between atoms: C_4  and  C_5
REMARK    4  A    between atoms: C_8  and  C_9
REMARK    5  A    between atoms: C_9  and  N_10
REMARK    6  A    between atoms: N_13  and  C_14
REMARK    7  A    between atoms: C_14  and  C_15
REMARK    8  A    between atoms: C_15  and  O_16
REMARK                            x       y       z     vdW  Elec       q    Type
REMARK                         _______ _______ _______ _____ _____    ______ ____
ROOT
ATOM      1  C   UNL     1      50.653   9.557  11.741  0.00  0.00    +0.000 A 
ATOM      2  C   UNL     1      49.353   9.937  11.380  0.00  0.00    +0.000 A 
ATOM      3  C   UNL     1      48.240   9.206  11.818  0.00  0.00    +0.000 A 
ATOM      4  C   UNL     1      48.391   8.084  12.645  0.00  0.00    +0.000 A 
ATOM      5  C   UNL     1      49.688   7.752  13.070  0.00  0.00    +0.000 A 
ATOM      6  C   UNL     1      50.806   8.482  12.626  0.00  0.00    +0.000 A 
ENDROOT
BRANCH   1   7
ATOM      7  C   UNL     1      51.841  10.281  11.149  0.00  0.00    +0.000 C 
BRANCH   7  10
ATOM      8  O   UNL     1      54.072   8.736  10.565  0.00  0.00    +0.000 OA
ATOM      9  C   UNL     1      53.283   8.980   9.654  0.00  0.00    +0.000 C 
ATOM     10  N   UNL     1      52.197   9.806   9.834  0.00  0.00    +0.000 N 
ATOM     11  H   UNL     1      51.469   9.830   9.129  0.00  0.00    +0.000 HD
BRANCH   9  12
ATOM     12  C   UNL     1      53.477   8.416   8.310  0.00  0.00    +0.000 A 
ATOM     13  C   UNL     1      53.636   9.258   7.216  0.00  0.00    +0.000 A 
ATOM     14  S   UNL     1      53.830   8.432   5.736  0.00  0.00    +0.000 S 
ATOM     15  C   UNL     1      53.767   6.918   6.511  0.00  0.00    +0.000 A 
ATOM     16  N   UNL     1      53.903   5.766   5.804  0.00  0.00    +0.000 NA
ATOM     17  C   UNL     1      53.872   4.693   6.529  0.00  0.00    +0.000 A 
ATOM     18  N   UNL     1      53.712   4.669   7.888  0.00  0.00    +0.000 N 
ATOM     19  C   UNL     1      53.530   5.808   8.631  0.00  0.00    +0.000 A 
ATOM     20  O   UNL     1      53.337   5.743   9.842  0.00  0.00    +0.000 OA
ATOM     21  C   UNL     1      53.578   7.043   7.878  0.00  0.00    +0.000 A 
ATOM     22  H   UNL     1      53.686   3.796   8.388  0.00  0.00    +0.000 HD
ENDBRANCH   9  12
ENDBRANCH   7  10
ENDBRANCH   1   7
BRANCH   4  23
ATOM     23  C   UNL     1      47.175   7.277  13.081  0.00  0.00    +0.000 C 
BRANCH  23  24
ATOM     24  N   UNL     1      47.000   5.990  12.378  0.00  0.00    +0.000 NA
ATOM     25  C   UNL     1      46.053   6.097  11.252  0.00  0.00    +0.000 C 
ATOM     26  C   UNL     1      44.577   6.312  11.666  0.00  0.00    +0.000 C 
ATOM     27  N   UNL     1      44.023   5.362  12.651  0.00  0.00    +0.000 NA
ATOM     28  C   UNL     1      45.026   4.874  13.615  0.00  0.00    +0.000 C 
ATOM     29  C   UNL     1      46.531   4.890  13.233  0.00  0.00    +0.000 C 
BRANCH  27  30
ATOM     30  C   UNL     1      43.190   4.327  12.009  0.00  0.00    +0.000 C 
BRANCH  30  31
ATOM     31  C   UNL     1      43.810   2.914  11.979  0.00  0.00    +0.000 C 
BRANCH  31  32
ATOM     32  O   UNL     1      42.859   1.947  11.543  0.00  0.00    +0.000 OA
ATOM     33  H   UNL     1      43.214   1.589  10.708  0.00  0.00    +0.000 HD
ENDBRANCH  31  32
ENDBRANCH  30  31
ENDBRANCH  27  30
ENDBRANCH  23  24
ENDBRANCH   4  23
TORSDOF 8
ENDMDL
