MODEL 1
REMARK VINA RESULT:    -8.754      0.000      0.000
REMARK INTER + INTRA:         -12.533
REMARK INTER:                 -11.825
REMARK INTRA:                  -0.708
REMARK UNBOUND:                -0.708
REMARK  Name = 
REMARK  8 active torsions:
REMARK  status: ('A' for Active; 'I' for Inactive)
REMARK    1  A    between atoms: C_1  and  C_2
REMARK    2  A    between atoms: C_2  and  C_3
REMARK    3  A    between atoms: C_2  and  O_4
REMARK    4  A    between atoms: C_2  and  C_11
REMARK    5  A    between atoms: O_4  and  C_5
REMARK    6  A    between atoms: C_14  and  C_15
REMARK    7  A    between atoms: C_15  and  N_16
REMARK    8  A    between atoms: C_17  and  C_19
REMARK                            x       y       z     vdW  Elec       q    Type
REMARK                         _______ _______ _______ _____ _____    ______ ____
ROOT
ATOM      1  C   UNL     1      44.834   5.048  11.985  0.00  0.00    +0.000 A 
ATOM      2  C   UNL     1      45.409   6.261  11.559  0.00  0.00    +0.000 A 
ATOM      3  C   UNL     1      46.561   6.784  12.154  0.00  0.00    +0.000 A 
ATOM      4  C   UNL     1      47.198   6.099  13.190  0.00  0.00    +0.000 A 
ATOM      5  C   UNL     1      46.645   4.890  13.629  0.00  0.00    +0.000 A 
ATOM      6  C   UNL     1      45.483   4.372  13.036  0.00  0.00    +0.000 A 
ENDROOT
BRANCH   1   8
ATOM      7  C   UNL     1      42.369   5.323  11.767  0.00  0.00    +0.000 C 
ATOM      8  C   UNL     1      43.558   4.445  11.323  0.00  0.00    +0.000 C 
ATOM      9  C   UNL     1      43.385   2.972  11.760  0.00  0.00    +0.000 C 
BRANCH   8  10
ATOM     10  O   UNL     1      43.774   4.538   9.895  0.00  0.00    +0.000 OA
BRANCH  10  11
ATOM     11  C   UNL     1      44.628   3.732   9.196  0.00  0.00    +0.000 A 
ATOM     12  C   UNL     1      44.754   2.345   9.300  0.00  0.00    +0.000 A 
ATOM     13  C   UNL     1      45.712   1.645   8.562  0.00  0.00    +0.000 A 
ATOM     14  C   UNL     1      46.542   2.318   7.680  0.00  0.00    +0.000 A 
ATOM     15  C   UNL     1      46.412   3.696   7.536  0.00  0.00    +0.000 A 
ATOM     16  C   UNL     1      45.464   4.396   8.293  0.00  0.00    +0.000 A 
ENDBRANCH  10  11
ENDBRANCH   8  10
ENDBRANCH   1   8
BRANCH   4  17
ATOM     17  C   UNL     1      48.410   6.691  13.857  0.00  0.00    +0.000 C 
BRANCH  17  18
ATOM     18  N   UNL     1      48.168   6.916  15.261  0.00  0.00    +0.000 N 
ATOM     19  C   UNL     1      49.105   6.581  16.204  0.00  0.00    +0.000 C 
ATOM     20  O   UNL     1      50.201   6.120  15.897  0.00  0.00    +0.000 OA
ATOM     21  H   UNL     1      47.209   7.097  15.541  0.00  0.00    +0.000 HD
BRANCH  19  22
ATOM     22  C   UNL     1      48.759   6.861  17.604  0.00  0.00    +0.000 A 
ATOM     23  C   UNL     1      48.516   8.169  18.002  0.00  0.00    +0.000 A 
ATOM     24  S   UNL     1      48.070   8.315  19.641  0.00  0.00    +0.000 S 
ATOM     25  C   UNL     1      48.241   6.642  19.893  0.00  0.00    +0.000 A 
ATOM     26  N   UNL     1      48.021   6.093  21.118  0.00  0.00    +0.000 NA
ATOM     27  C   UNL     1      48.224   4.819  21.176  0.00  0.00    +0.000 A 
ATOM     28  N   UNL     1      48.623   4.043  20.118  0.00  0.00    +0.000 N 
ATOM     29  C   UNL     1      48.829   4.549  18.856  0.00  0.00    +0.000 A 
ATOM     30  O   UNL     1      49.151   3.820  17.924  0.00  0.00    +0.000 OA
ATOM     31  C   UNL     1      48.621   5.979  18.738  0.00  0.00    +0.000 A 
ATOM     32  H   UNL     1      48.762   3.050  20.227  0.00  0.00    +0.000 HD
ENDBRANCH  19  22
ENDBRANCH  17  18
ENDBRANCH   4  17
TORSDOF 6
ENDMDL
MODEL 2
REMARK VINA RESULT:    -8.431      1.478      2.275
REMARK INTER + INTRA:         -12.096
REMARK INTER:                 -11.251
REMARK INTRA:                  -0.844
REMARK UNBOUND:                -0.708
REMARK  Name = 
REMARK  8 active torsions:
REMARK  status: ('A' for Active; 'I' for Inactive)
REMARK    1  A    between atoms: C_1  and  C_2
REMARK    2  A    between atoms: C_2  and  C_3
REMARK    3  A    between atoms: C_2  and  O_4
REMARK    4  A    between atoms: C_2  and  C_11
REMARK    5  A    between atoms: O_4  and  C_5
REMARK    6  A    between atoms: C_14  and  C_15
REMARK    7  A    between atoms: C_15  and  N_16
REMARK    8  A    between atoms: C_17  and  C_19
REMARK                            x       y       z     vdW  Elec       q    Type
REMARK                         _______ _______ _______ _____ _____    ______ ____
ROOT
ATOM      1  C   UNL     1      44.896   4.968  11.899  0.00  0.00    +0.000 A 
ATOM      2  C   UNL     1      45.387   6.264  11.648  0.00  0.00    +0.000 A 
ATOM      3  C   UNL     1      46.511   6.771  12.308  0.00  0.00    +0.000 A 
ATOM      4  C   UNL     1      47.202   5.989  13.235  0.00  0.00    +0.000 A 
ATOM      5  C   UNL     1      46.733   4.698  13.499  0.00  0.00    +0.000 A 
ATOM      6  C   UNL     1      45.599   4.194  12.842  0.00  0.00    +0.000 A 
ENDROOT
BRANCH   1   8
ATOM      7  C   UNL     1      42.445   5.253  11.569  0.00  0.00    +0.000 C 
ATOM      8  C   UNL     1      43.654   4.383  11.162  0.00  0.00    +0.000 C 
ATOM      9  C   UNL     1      43.459   2.901  11.554  0.00  0.00    +0.000 C 
BRANCH   8  10
ATOM     10  O   UNL     1      43.938   4.512   9.748  0.00  0.00    +0.000 OA
BRANCH  10  11
ATOM     11  C   UNL     1      44.790   3.691   9.062  0.00  0.00    +0.000 A 
ATOM     12  C   UNL     1      44.908   2.305   9.186  0.00  0.00    +0.000 A 
ATOM     13  C   UNL     1      45.863   1.590   8.459  0.00  0.00    +0.000 A 
ATOM     14  C   UNL     1      46.698   2.247   7.569  0.00  0.00    +0.000 A 
ATOM     15  C   UNL     1      46.576   3.622   7.406  0.00  0.00    +0.000 A 
ATOM     16  C   UNL     1      45.631   4.338   8.152  0.00  0.00    +0.000 A 
ENDBRANCH  10  11
ENDBRANCH   8  10
ENDBRANCH   1   8
BRANCH   4  17
ATOM     17  C   UNL     1      48.382   6.558  13.975  0.00  0.00    +0.000 C 
BRANCH  17  18
ATOM     18  N   UNL     1      48.057   6.793  15.361  0.00  0.00    +0.000 N 
ATOM     19  C   UNL     1      48.891   6.376  16.365  0.00  0.00    +0.000 C 
ATOM     20  O   UNL     1      49.965   5.828  16.133  0.00  0.00    +0.000 OA
ATOM     21  H   UNL     1      47.098   7.050  15.573  0.00  0.00    +0.000 HD
BRANCH  19  22
ATOM     22  C   UNL     1      48.467   6.674  17.740  0.00  0.00    +0.000 A 
ATOM     23  C   UNL     1      48.384   5.644  18.669  0.00  0.00    +0.000 A 
ATOM     24  S   UNL     1      47.935   6.165  20.229  0.00  0.00    +0.000 S 
ATOM     25  C   UNL     1      47.779   7.776  19.706  0.00  0.00    +0.000 A 
ATOM     26  N   UNL     1      47.393   8.756  20.566  0.00  0.00    +0.000 NA
ATOM     27  C   UNL     1      47.278   9.924  20.027  0.00  0.00    +0.000 A 
ATOM     28  N   UNL     1      47.520  10.201  18.706  0.00  0.00    +0.000 N 
ATOM     29  C   UNL     1      47.941   9.250  17.808  0.00  0.00    +0.000 A 
ATOM     30  O   UNL     1      48.183   9.539  16.642  0.00  0.00    +0.000 OA
ATOM     31  C   UNL     1      48.079   7.916  18.362  0.00  0.00    +0.000 A 
ATOM     32  H   UNL     1      47.416  11.138  18.346  0.00  0.00    +0.000 HD
ENDBRANCH  19  22
ENDBRANCH  17  18
ENDBRANCH   4  17
TORSDOF 6
ENDMDL
MODEL 3
REMARK VINA RESULT:    -8.035      2.049      2.292
REMARK INTER + INTRA:         -11.562
REMARK INTER:                 -10.522
REMARK INTRA:                  -1.040
REMARK UNBOUND:                -0.708
REMARK  Name = 
REMARK  8 active torsions:
REMARK  status: ('A' for Active; 'I' for Inactive)
REMARK    1  A    between atoms: C_1  and  C_2
REMARK    2  A    between atoms: C_2  and  C_3
REMARK    3  A    between atoms: C_2  and  O_4
REMARK    4  A    between atoms: C_2  and  C_11
REMARK    5  A    between atoms: O_4  and  C_5
REMARK    6  A    between atoms: C_14  and  C_15
REMARK    7  A    between atoms: C_15  and  N_16
REMARK    8  A    between atoms: C_17  and  C_19
REMARK                            x       y       z     vdW  Elec       q    Type
REMARK                         _______ _______ _______ _____ _____    ______ ____
ROOT
ATOM      1  C   UNL     1      44.735   5.519  11.717  0.00  0.00    +0.000 A 
ATOM      2  C   UNL     1      44.886   6.884  11.407  0.00  0.00    +0.000 A 
ATOM      3  C   UNL     1      46.031   7.603  11.765  0.00  0.00    +0.000 A 
ATOM      4  C   UNL     1      47.083   6.975  12.434  0.00  0.00    +0.000 A 
ATOM      5  C   UNL     1      46.955   5.618  12.751  0.00  0.00    +0.000 A 
ATOM      6  C   UNL     1      45.801   4.901  12.399  0.00  0.00    +0.000 A 
ENDROOT
BRANCH   1   8
ATOM      7  C   UNL     1      42.246   5.523  11.764  0.00  0.00    +0.000 C 
ATOM      8  C   UNL     1      43.472   4.700  11.313  0.00  0.00    +0.000 C 
ATOM      9  C   UNL     1      43.512   3.307  11.980  0.00  0.00    +0.000 C 
BRANCH   8  10
ATOM     10  O   UNL     1      43.523   4.585   9.871  0.00  0.00    +0.000 OA
BRANCH  10  11
ATOM     11  C   UNL     1      44.489   3.896   9.193  0.00  0.00    +0.000 A 
ATOM     12  C   UNL     1      45.459   4.423   8.336  0.00  0.00    +0.000 A 
ATOM     13  C   UNL     1      46.358   3.595   7.661  0.00  0.00    +0.000 A 
ATOM     14  C   UNL     1      46.325   2.224   7.854  0.00  0.00    +0.000 A 
ATOM     15  C   UNL     1      45.390   1.679   8.727  0.00  0.00    +0.000 A 
ATOM     16  C   UNL     1      44.476   2.511   9.387  0.00  0.00    +0.000 A 
ENDBRANCH  10  11
ENDBRANCH   8  10
ENDBRANCH   1   8
BRANCH   4  17
ATOM     17  C   UNL     1      48.290   7.766  12.859  0.00  0.00    +0.000 C 
BRANCH  17  18
ATOM     18  N   UNL     1      49.058   7.046  13.846  0.00  0.00    +0.000 N 
ATOM     19  C   UNL     1      49.173   7.510  15.130  0.00  0.00    +0.000 C 
ATOM     20  O   UNL     1      48.597   8.527  15.509  0.00  0.00    +0.000 OA
ATOM     21  H   UNL     1      49.697   6.335  13.504  0.00  0.00    +0.000 HD
BRANCH  19  22
ATOM     22  C   UNL     1      49.972   6.696  16.055  0.00  0.00    +0.000 A 
ATOM     23  C   UNL     1      51.257   7.102  16.390  0.00  0.00    +0.000 A 
ATOM     24  S   UNL     1      52.027   6.081  17.518  0.00  0.00    +0.000 S 
ATOM     25  C   UNL     1      50.692   5.027  17.555  0.00  0.00    +0.000 A 
ATOM     26  N   UNL     1      50.707   3.907  18.328  0.00  0.00    +0.000 NA
ATOM     27  C   UNL     1      49.645   3.178  18.230  0.00  0.00    +0.000 A 
ATOM     28  N   UNL     1      48.567   3.471  17.434  0.00  0.00    +0.000 N 
ATOM     29  C   UNL     1      48.496   4.605  16.661  0.00  0.00    +0.000 A 
ATOM     30  O   UNL     1      47.502   4.855  15.988  0.00  0.00    +0.000 OA
ATOM     31  C   UNL     1      49.669   5.456  16.728  0.00  0.00    +0.000 A 
ATOM     32  H   UNL     1      47.764   2.861  17.406  0.00  0.00    +0.000 HD
ENDBRANCH  19  22
ENDBRANCH  17  18
ENDBRANCH   4  17
TORSDOF 6
ENDMDL
MODEL 4
REMARK VINA RESULT:    -7.759      1.403      1.891
REMARK INTER + INTRA:         -11.189
REMARK INTER:                 -10.406
REMARK INTRA:                  -0.783
REMARK UNBOUND:                -0.708
REMARK  Name = 
REMARK  8 active torsions:
REMARK  status: ('A' for Active; 'I' for Inactive)
REMARK    1  A    between atoms: C_1  and  C_2
REMARK    2  A    between atoms: C_2  and  C_3
REMARK    3  A    between atoms: C_2  and  O_4
REMARK    4  A    between atoms: C_2  and  C_11
REMARK    5  A    between atoms: O_4  and  C_5
REMARK    6  A    between atoms: C_14  and  C_15
REMARK    7  A    between atoms: C_15  and  N_16
REMARK    8  A    between atoms: C_17  and  C_19
REMARK                            x       y       z     vdW  Elec       q    Type
REMARK                         _______ _______ _______ _____ _____    ______ ____
ROOT
ATOM      1  C   UNL     1      44.681   5.456  12.017  0.00  0.00    +0.000 A 
ATOM      2  C   UNL     1      45.728   4.831  12.721  0.00  0.00    +0.000 A 
ATOM      3  C   UNL     1      46.782   5.559  13.283  0.00  0.00    +0.000 A 
ATOM      4  C   UNL     1      46.818   6.950  13.178  0.00  0.00    +0.000 A 
ATOM      5  C   UNL     1      45.787   7.593  12.484  0.00  0.00    +0.000 A 
ATOM      6  C   UNL     1      44.735   6.859  11.913  0.00  0.00    +0.000 A 
ENDROOT
BRANCH   1   8
ATOM      7  C   UNL     1      42.203   5.421  11.776  0.00  0.00    +0.000 C 
ATOM      8  C   UNL     1      43.493   4.660  11.398  0.00  0.00    +0.000 C 
ATOM      9  C   UNL     1      43.490   3.213  11.940  0.00  0.00    +0.000 C 
BRANCH   8  10
ATOM     10  O   UNL     1      43.710   4.677   9.967  0.00  0.00    +0.000 OA
BRANCH  10  11
ATOM     11  C   UNL     1      44.505   3.784   9.304  0.00  0.00    +0.000 A 
ATOM     12  C   UNL     1      44.482   2.391   9.414  0.00  0.00    +0.000 A 
ATOM     13  C   UNL     1      45.392   1.594   8.715  0.00  0.00    +0.000 A 
ATOM     14  C   UNL     1      46.322   2.174   7.868  0.00  0.00    +0.000 A 
ATOM     15  C   UNL     1      46.341   3.556   7.718  0.00  0.00    +0.000 A 
ATOM     16  C   UNL     1      45.441   4.354   8.436  0.00  0.00    +0.000 A 
ENDBRANCH  10  11
ENDBRANCH   8  10
ENDBRANCH   1   8
BRANCH   4  17
ATOM     17  C   UNL     1      47.979   7.723  13.743  0.00  0.00    +0.000 C 
BRANCH  17  18
ATOM     18  N   UNL     1      47.742   8.077  15.120  0.00  0.00    +0.000 N 
ATOM     19  C   UNL     1      48.590   8.920  15.791  0.00  0.00    +0.000 C 
ATOM     20  O   UNL     1      49.557   9.441  15.243  0.00  0.00    +0.000 OA
ATOM     21  H   UNL     1      47.082   7.504  15.637  0.00  0.00    +0.000 HD
BRANCH  19  22
ATOM     22  C   UNL     1      48.249   9.220  17.189  0.00  0.00    +0.000 A 
ATOM     23  C   UNL     1      48.044  10.538  17.576  0.00  0.00    +0.000 A 
ATOM     24  S   UNL     1      47.600  10.710  19.213  0.00  0.00    +0.000 S 
ATOM     25  C   UNL     1      47.723   9.035  19.478  0.00  0.00    +0.000 A 
ATOM     26  N   UNL     1      47.485   8.502  20.707  0.00  0.00    +0.000 NA
ATOM     27  C   UNL     1      47.652   7.223  20.776  0.00  0.00    +0.000 A 
ATOM     28  N   UNL     1      48.030   6.428  19.725  0.00  0.00    +0.000 N 
ATOM     29  C   UNL     1      48.251   6.917  18.460  0.00  0.00    +0.000 A 
ATOM     30  O   UNL     1      48.554   6.173  17.534  0.00  0.00    +0.000 OA
ATOM     31  C   UNL     1      48.085   8.352  18.329  0.00  0.00    +0.000 A 
ATOM     32  H   UNL     1      48.139   5.432  19.842  0.00  0.00    +0.000 HD
ENDBRANCH  19  22
ENDBRANCH  17  18
ENDBRANCH   4  17
TORSDOF 6
ENDMDL
MODEL 5
REMARK VINA RESULT:    -7.578      4.376      6.537
REMARK INTER + INTRA:         -10.944
REMARK INTER:                 -10.057
REMARK INTRA:                  -0.887
REMARK UNBOUND:                -0.708
REMARK  Name = 
REMARK  8 active torsions:
REMARK  status: ('A' for Active; 'I' for Inactive)
REMARK    1  A    between atoms: C_1  and  C_2
REMARK    2  A    between atoms: C_2  and  C_3
REMARK    3  A    between atoms: C_2  and  O_4
REMARK    4  A    between atoms: C_2  and  C_11
REMARK    5  A    between atoms: O_4  and  C_5
REMARK    6  A    between atoms: C_14  and  C_15
REMARK    7  A    between atoms: C_15  and  N_16
REMARK    8  A    between atoms: C_17  and  C_19
REMARK                            x       y       z     vdW  Elec       q    Type
REMARK                         _______ _______ _______ _____ _____    ______ ____
ROOT
ATOM      1  C   UNL     1      44.907   5.118  11.880  0.00  0.00    +0.000 A 
ATOM      2  C   UNL     1      45.361   6.372  11.427  0.00  0.00    +0.000 A 
ATOM      3  C   UNL     1      46.577   6.917  11.853  0.00  0.00    +0.000 A 
ATOM      4  C   UNL     1      47.398   6.216  12.737  0.00  0.00    +0.000 A 
ATOM      5  C   UNL     1      46.967   4.967  13.199  0.00  0.00    +0.000 A 
ATOM      6  C   UNL     1      45.742   4.426  12.777  0.00  0.00    +0.000 A 
ENDROOT
BRANCH   1   8
ATOM      7  C   UNL     1      42.435   5.417  11.911  0.00  0.00    +0.000 C 
ATOM      8  C   UNL     1      43.562   4.491  11.405  0.00  0.00    +0.000 C 
ATOM      9  C   UNL     1      43.425   3.056  11.962  0.00  0.00    +0.000 C 
BRANCH   8  10
ATOM     10  O   UNL     1      43.621   4.481   9.958  0.00  0.00    +0.000 OA
BRANCH  10  11
ATOM     11  C   UNL     1      44.591   3.841   9.238  0.00  0.00    +0.000 A 
ATOM     12  C   UNL     1      45.552   4.427   8.409  0.00  0.00    +0.000 A 
ATOM     13  C   UNL     1      46.456   3.649   7.683  0.00  0.00    +0.000 A 
ATOM     14  C   UNL     1      46.438   2.268   7.797  0.00  0.00    +0.000 A 
ATOM     15  C   UNL     1      45.512   1.665   8.641  0.00  0.00    +0.000 A 
ATOM     16  C   UNL     1      44.593   2.448   9.352  0.00  0.00    +0.000 A 
ENDBRANCH  10  11
ENDBRANCH   8  10
ENDBRANCH   1   8
BRANCH   4  17
ATOM     17  C   UNL     1      48.681   6.829  13.227  0.00  0.00    +0.000 C 
BRANCH  17  18
ATOM     18  N   UNL     1      49.166   7.823  12.300  0.00  0.00    +0.000 N 
ATOM     19  C   UNL     1      49.433   9.103  12.709  0.00  0.00    +0.000 C 
ATOM     20  O   UNL     1      49.315   9.450  13.881  0.00  0.00    +0.000 OA
ATOM     21  H   UNL     1      49.070   7.616  11.311  0.00  0.00    +0.000 HD
BRANCH  19  22
ATOM     22  C   UNL     1      49.929  10.032  11.684  0.00  0.00    +0.000 A 
ATOM     23  C   UNL     1      51.293  10.110  11.434  0.00  0.00    +0.000 A 
ATOM     24  S   UNL     1      51.697  11.189  10.177  0.00  0.00    +0.000 S 
ATOM     25  C   UNL     1      50.070  11.633   9.961  0.00  0.00    +0.000 A 
ATOM     26  N   UNL     1      49.715  12.559   9.030  0.00  0.00    +0.000 NA
ATOM     27  C   UNL     1      48.453  12.830   9.000  0.00  0.00    +0.000 A 
ATOM     28  N   UNL     1      47.512  12.253   9.814  0.00  0.00    +0.000 N 
ATOM     29  C   UNL     1      47.819  11.293  10.748  0.00  0.00    +0.000 A 
ATOM     30  O   UNL     1      46.948  10.772  11.435  0.00  0.00    +0.000 OA
ATOM     31  C   UNL     1      49.228  10.957  10.828  0.00  0.00    +0.000 A 
ATOM     32  H   UNL     1      46.538  12.505   9.738  0.00  0.00    +0.000 HD
ENDBRANCH  19  22
ENDBRANCH  17  18
ENDBRANCH   4  17
TORSDOF 6
ENDMDL
MODEL 6
REMARK VINA RESULT:    -7.560      4.407      6.372
REMARK INTER + INTRA:         -10.921
REMARK INTER:                 -10.022
REMARK INTRA:                  -0.899
REMARK UNBOUND:                -0.708
REMARK  Name = 
REMARK  8 active torsions:
REMARK  status: ('A' for Active; 'I' for Inactive)
REMARK    1  A    between atoms: C_1  and  C_2
REMARK    2  A    between atoms: C_2  and  C_3
REMARK    3  A    between atoms: C_2  and  O_4
REMARK    4  A    between atoms: C_2  and  C_11
REMARK    5  A    between atoms: O_4  and  C_5
REMARK    6  A    between atoms: C_14  and  C_15
REMARK    7  A    between atoms: C_15  and  N_16
REMARK    8  A    between atoms: C_17  and  C_19
REMARK                            x       y       z     vdW  Elec       q    Type
REMARK                         _______ _______ _______ _____ _____    ______ ____
ROOT
ATOM      1  C   UNL     1      44.915   5.150  11.899  0.00  0.00    +0.000 A 
ATOM      2  C   UNL     1      45.381   6.383  11.404  0.00  0.00    +0.000 A 
ATOM      3  C   UNL     1      46.603   6.930  11.808  0.00  0.00    +0.000 A 
ATOM      4  C   UNL     1      47.419   6.249  12.713  0.00  0.00    +0.000 A 
ATOM      5  C   UNL     1      46.977   5.021  13.217  0.00  0.00    +0.000 A 
ATOM      6  C   UNL     1      45.746   4.479  12.816  0.00  0.00    +0.000 A 
ENDROOT
BRANCH   1   8
ATOM      7  C   UNL     1      42.444   5.450  11.966  0.00  0.00    +0.000 C 
ATOM      8  C   UNL     1      43.563   4.521  11.447  0.00  0.00    +0.000 C 
ATOM      9  C   UNL     1      43.434   3.088  12.013  0.00  0.00    +0.000 C 
BRANCH   8  10
ATOM     10  O   UNL     1      43.599   4.504  10.000  0.00  0.00    +0.000 OA
BRANCH  10  11
ATOM     11  C   UNL     1      44.545   3.842   9.267  0.00  0.00    +0.000 A 
ATOM     12  C   UNL     1      45.481   4.402   8.395  0.00  0.00    +0.000 A 
ATOM     13  C   UNL     1      46.361   3.601   7.662  0.00  0.00    +0.000 A 
ATOM     14  C   UNL     1      46.342   2.224   7.813  0.00  0.00    +0.000 A 
ATOM     15  C   UNL     1      45.440   1.647   8.701  0.00  0.00    +0.000 A 
ATOM     16  C   UNL     1      44.546   2.452   9.418  0.00  0.00    +0.000 A 
ENDBRANCH  10  11
ENDBRANCH   8  10
ENDBRANCH   1   8
BRANCH   4  17
ATOM     17  C   UNL     1      48.710   6.866  13.180  0.00  0.00    +0.000 C 
BRANCH  17  18
ATOM     18  N   UNL     1      49.192   7.837  12.229  0.00  0.00    +0.000 N 
ATOM     19  C   UNL     1      49.428   9.135  12.599  0.00  0.00    +0.000 C 
ATOM     20  O   UNL     1      49.284   9.518  13.756  0.00  0.00    +0.000 OA
ATOM     21  H   UNL     1      49.118   7.595  11.246  0.00  0.00    +0.000 HD
BRANCH  19  22
ATOM     22  C   UNL     1      49.925  10.038  11.551  0.00  0.00    +0.000 A 
ATOM     23  C   UNL     1      49.158  11.130  11.169  0.00  0.00    +0.000 A 
ATOM     24  S   UNL     1      49.902  12.110   9.988  0.00  0.00    +0.000 S 
ATOM     25  C   UNL     1      51.251  11.077   9.903  0.00  0.00    +0.000 A 
ATOM     26  N   UNL     1      52.277  11.335   9.048  0.00  0.00    +0.000 NA
ATOM     27  C   UNL     1      53.217  10.449   9.060  0.00  0.00    +0.000 A 
ATOM     28  N   UNL     1      53.226   9.331   9.854  0.00  0.00    +0.000 N 
ATOM     29  C   UNL     1      52.226   9.045  10.753  0.00  0.00    +0.000 A 
ATOM     30  O   UNL     1      52.283   8.055  11.474  0.00  0.00    +0.000 OA
ATOM     31  C   UNL     1      51.140  10.007  10.775  0.00  0.00    +0.000 A 
ATOM     32  H   UNL     1      53.993   8.677   9.819  0.00  0.00    +0.000 HD
ENDBRANCH  19  22
ENDBRANCH  17  18
ENDBRANCH   4  17
TORSDOF 6
ENDMDL
MODEL 7
REMARK VINA RESULT:    -7.147      3.543      9.796
REMARK INTER + INTRA:         -10.362
REMARK INTER:                  -9.282
REMARK INTRA:                  -1.080
REMARK UNBOUND:                -0.708
REMARK  Name = 
REMARK  8 active torsions:
REMARK  status: ('A' for Active; 'I' for Inactive)
REMARK    1  A    between atoms: C_1  and  C_2
REMARK    2  A    between atoms: C_2  and  C_3
REMARK    3  A    between atoms: C_2  and  O_4
REMARK    4  A    between atoms: C_2  and  C_11
REMARK    5  A    between atoms: O_4  and  C_5
REMARK    6  A    between atoms: C_14  and  C_15
REMARK    7  A    between atoms: C_15  and  N_16
REMARK    8  A    between atoms: C_17  and  C_19
REMARK                            x       y       z     vdW  Elec       q    Type
REMARK                         _______ _______ _______ _____ _____    ______ ____
ROOT
ATOM      1  C   UNL     1      51.419   4.243  17.743  0.00  0.00    +0.000 A 
ATOM      2  C   UNL     1      50.872   2.945  17.738  0.00  0.00    +0.000 A 
ATOM      3  C   UNL     1      49.536   2.705  17.400  0.00  0.00    +0.000 A 
ATOM      4  C   UNL     1      48.698   3.759  17.033  0.00  0.00    +0.000 A 
ATOM      5  C   UNL     1      49.220   5.057  17.029  0.00  0.00    +0.000 A 
ATOM      6  C   UNL     1      50.559   5.296  17.378  0.00  0.00    +0.000 A 
ENDROOT
BRANCH   1   8
ATOM      7  C   UNL     1      53.314   5.808  17.347  0.00  0.00    +0.000 C 
ATOM      8  C   UNL     1      52.909   4.524  18.103  0.00  0.00    +0.000 C 
ATOM      9  C   UNL     1      53.785   3.316  17.702  0.00  0.00    +0.000 C 
BRANCH   8  10
ATOM     10  O   UNL     1      52.936   4.730  19.536  0.00  0.00    +0.000 OA
BRANCH  10  11
ATOM     11  C   UNL     1      52.030   5.495  20.215  0.00  0.00    +0.000 A 
ATOM     12  C   UNL     1      51.966   6.890  20.257  0.00  0.00    +0.000 A 
ATOM     13  C   UNL     1      51.015   7.550  21.040  0.00  0.00    +0.000 A 
ATOM     14  C   UNL     1      50.088   6.825  21.771  0.00  0.00    +0.000 A 
ATOM     15  C   UNL     1      50.112   5.436  21.719  0.00  0.00    +0.000 A 
ATOM     16  C   UNL     1      51.080   4.778  20.949  0.00  0.00    +0.000 A 
ENDBRANCH  10  11
ENDBRANCH   8  10
ENDBRANCH   1   8
BRANCH   4  17
ATOM     17  C   UNL     1      47.249   3.500  16.717  0.00  0.00    +0.000 C 
BRANCH  17  18
ATOM     18  N   UNL     1      46.748   4.460  15.765  0.00  0.00    +0.000 N 
ATOM     19  C   UNL     1      46.811   4.221  14.417  0.00  0.00    +0.000 C 
ATOM     20  O   UNL     1      47.252   3.169  13.963  0.00  0.00    +0.000 OA
ATOM     21  H   UNL     1      46.578   5.401  16.106  0.00  0.00    +0.000 HD
BRANCH  19  22
ATOM     22  C   UNL     1      46.265   5.264  13.537  0.00  0.00    +0.000 A 
ATOM     23  C   UNL     1      47.019   6.399  13.272  0.00  0.00    +0.000 A 
ATOM     24  S   UNL     1      46.269   7.481  12.188  0.00  0.00    +0.000 S 
ATOM     25  C   UNL     1      44.885   6.499  12.080  0.00  0.00    +0.000 A 
ATOM     26  N   UNL     1      43.825   6.866  11.311  0.00  0.00    +0.000 NA
ATOM     27  C   UNL     1      42.827   6.046  11.351  0.00  0.00    +0.000 A 
ATOM     28  N   UNL     1      42.796   4.890  12.087  0.00  0.00    +0.000 N 
ATOM     29  C   UNL     1      43.854   4.464  12.854  0.00  0.00    +0.000 A 
ATOM     30  O   UNL     1      43.807   3.406  13.472  0.00  0.00    +0.000 OA
ATOM     31  C   UNL     1      45.000   5.354  12.850  0.00  0.00    +0.000 A 
ATOM     32  H   UNL     1      41.986   4.288  12.073  0.00  0.00    +0.000 HD
ENDBRANCH  19  22
ENDBRANCH  17  18
ENDBRANCH   4  17
TORSDOF 6
ENDMDL
MODEL 8
REMARK VINA RESULT:    -7.146      3.625      8.161
REMARK INTER + INTRA:         -10.361
REMARK INTER:                  -8.736
REMARK INTRA:                  -1.625
REMARK UNBOUND:                -0.708
REMARK  Name = 
REMARK  8 active torsions:
REMARK  status: ('A' for Active; 'I' for Inactive)
REMARK    1  A    between atoms: C_1  and  C_2
REMARK    2  A    between atoms: C_2  and  C_3
REMARK    3  A    between atoms: C_2  and  O_4
REMARK    4  A    between atoms: C_2  and  C_11
REMARK    5  A    between atoms: O_4  and  C_5
REMARK    6  A    between atoms: C_14  and  C_15
REMARK    7  A    between atoms: C_15  and  N_16
REMARK    8  A    between atoms: C_17  and  C_19
REMARK                            x       y       z     vdW  Elec       q    Type
REMARK                         _______ _______ _______ _____ _____    ______ ____
ROOT
ATOM      1  C   UNL     1      50.057   6.797  17.901  0.00  0.00    +0.000 A 
ATOM      2  C   UNL     1      49.024   7.740  18.063  0.00  0.00    +0.000 A 
ATOM      3  C   UNL     1      48.439   8.392  16.973  0.00  0.00    +0.000 A 
ATOM      4  C   UNL     1      48.854   8.109  15.671  0.00  0.00    +0.000 A 
ATOM      5  C   UNL     1      49.878   7.174  15.486  0.00  0.00    +0.000 A 
ATOM      6  C   UNL     1      50.470   6.527  16.583  0.00  0.00    +0.000 A 
ENDROOT
BRANCH   1   8
ATOM      7  C   UNL     1      50.753   7.053  20.278  0.00  0.00    +0.000 C 
ATOM      8  C   UNL     1      50.709   6.051  19.104  0.00  0.00    +0.000 C 
ATOM      9  C   UNL     1      52.120   5.556  18.713  0.00  0.00    +0.000 C 
BRANCH   8  10
ATOM     10  O   UNL     1      49.833   4.937  19.399  0.00  0.00    +0.000 OA
BRANCH  10  11
ATOM     11  C   UNL     1      49.364   4.064  18.458  0.00  0.00    +0.000 A 
ATOM     12  C   UNL     1      50.093   3.092  17.770  0.00  0.00    +0.000 A 
ATOM     13  C   UNL     1      49.497   2.297  16.787  0.00  0.00    +0.000 A 
ATOM     14  C   UNL     1      48.150   2.439  16.497  0.00  0.00    +0.000 A 
ATOM     15  C   UNL     1      47.397   3.378  17.192  0.00  0.00    +0.000 A 
ATOM     16  C   UNL     1      48.003   4.187  18.162  0.00  0.00    +0.000 A 
ENDBRANCH  10  11
ENDBRANCH   8  10
ENDBRANCH   1   8
BRANCH   4  17
ATOM     17  C   UNL     1      48.253   8.849  14.507  0.00  0.00    +0.000 C 
BRANCH  17  18
ATOM     18  N   UNL     1      47.096   8.156  13.996  0.00  0.00    +0.000 N 
ATOM     19  C   UNL     1      47.173   7.385  12.866  0.00  0.00    +0.000 C 
ATOM     20  O   UNL     1      48.231   7.214  12.266  0.00  0.00    +0.000 OA
ATOM     21  H   UNL     1      46.190   8.448  14.349  0.00  0.00    +0.000 HD
BRANCH  19  22
ATOM     22  C   UNL     1      45.936   6.718  12.437  0.00  0.00    +0.000 A 
ATOM     23  C   UNL     1      44.910   7.471  11.881  0.00  0.00    +0.000 A 
ATOM     24  S   UNL     1      43.571   6.540  11.384  0.00  0.00    +0.000 S 
ATOM     25  C   UNL     1      44.290   5.105  11.947  0.00  0.00    +0.000 A 
ATOM     26  N   UNL     1      43.645   3.912  11.843  0.00  0.00    +0.000 NA
ATOM     27  C   UNL     1      44.289   2.912  12.345  0.00  0.00    +0.000 A 
ATOM     28  N   UNL     1      45.523   2.996  12.938  0.00  0.00    +0.000 N 
ATOM     29  C   UNL     1      46.224   4.174  13.038  0.00  0.00    +0.000 A 
ATOM     30  O   UNL     1      47.341   4.208  13.542  0.00  0.00    +0.000 OA
ATOM     31  C   UNL     1      45.541   5.332  12.495  0.00  0.00    +0.000 A 
ATOM     32  H   UNL     1      45.977   2.175  13.308  0.00  0.00    +0.000 HD
ENDBRANCH  19  22
ENDBRANCH  17  18
ENDBRANCH   4  17
TORSDOF 6
ENDMDL
MODEL 9
REMARK VINA RESULT:    -7.138      3.556      9.525
REMARK INTER + INTRA:         -10.351
REMARK INTER:                  -9.219
REMARK INTRA:                  -1.132
REMARK UNBOUND:                -0.708
REMARK  Name = 
REMARK  8 active torsions:
REMARK  status: ('A' for Active; 'I' for Inactive)
REMARK    1  A    between atoms: C_1  and  C_2
REMARK    2  A    between atoms: C_2  and  C_3
REMARK    3  A    between atoms: C_2  and  O_4
REMARK    4  A    between atoms: C_2  and  C_11
REMARK    5  A    between atoms: O_4  and  C_5
REMARK    6  A    between atoms: C_14  and  C_15
REMARK    7  A    between atoms: C_15  and  N_16
REMARK    8  A    between atoms: C_17  and  C_19
REMARK                            x       y       z     vdW  Elec       q    Type
REMARK                         _______ _______ _______ _____ _____    ______ ____
ROOT
ATOM      1  C   UNL     1      48.589   5.818  20.108  0.00  0.00    +0.000 A 
ATOM      2  C   UNL     1      49.558   5.115  19.366  0.00  0.00    +0.000 A 
ATOM      3  C   UNL     1      49.249   4.475  18.162  0.00  0.00    +0.000 A 
ATOM      4  C   UNL     1      47.955   4.531  17.641  0.00  0.00    +0.000 A 
ATOM      5  C   UNL     1      46.976   5.225  18.361  0.00  0.00    +0.000 A 
ATOM      6  C   UNL     1      47.287   5.859  19.574  0.00  0.00    +0.000 A 
ENDROOT
BRANCH   1   8
ATOM      7  C   UNL     1      49.979   5.689  22.170  0.00  0.00    +0.000 C 
ATOM      8  C   UNL     1      48.921   6.549  21.444  0.00  0.00    +0.000 C 
ATOM      9  C   UNL     1      47.635   6.717  22.285  0.00  0.00    +0.000 C 
BRANCH   8  10
ATOM     10  O   UNL     1      49.464   7.836  21.065  0.00  0.00    +0.000 OA
BRANCH  10  11
ATOM     11  C   UNL     1      48.836   8.711  20.222  0.00  0.00    +0.000 A 
ATOM     12  C   UNL     1      47.705   9.484  20.497  0.00  0.00    +0.000 A 
ATOM     13  C   UNL     1      47.131  10.302  19.522  0.00  0.00    +0.000 A 
ATOM     14  C   UNL     1      47.697  10.388  18.260  0.00  0.00    +0.000 A 
ATOM     15  C   UNL     1      48.843   9.653  17.974  0.00  0.00    +0.000 A 
ATOM     16  C   UNL     1      49.404   8.818  18.949  0.00  0.00    +0.000 A 
ENDBRANCH  10  11
ENDBRANCH   8  10
ENDBRANCH   1   8
BRANCH   4  17
ATOM     17  C   UNL     1      47.618   3.799  16.370  0.00  0.00    +0.000 C 
BRANCH  17  18
ATOM     18  N   UNL     1      46.971   4.677  15.426  0.00  0.00    +0.000 N 
ATOM     19  C   UNL     1      46.728   4.276  14.138  0.00  0.00    +0.000 C 
ATOM     20  O   UNL     1      47.006   3.146  13.744  0.00  0.00    +0.000 OA
ATOM     21  H   UNL     1      46.926   5.662  15.667  0.00  0.00    +0.000 HD
BRANCH  19  22
ATOM     22  C   UNL     1      46.057   5.246  13.262  0.00  0.00    +0.000 A 
ATOM     23  C   UNL     1      46.741   6.381  12.846  0.00  0.00    +0.000 A 
ATOM     24  S   UNL     1      45.844   7.372  11.788  0.00  0.00    +0.000 S 
ATOM     25  C   UNL     1      44.488   6.351  11.893  0.00  0.00    +0.000 A 
ATOM     26  N   UNL     1      43.340   6.642  11.225  0.00  0.00    +0.000 NA
ATOM     27  C   UNL     1      42.379   5.803  11.425  0.00  0.00    +0.000 A 
ATOM     28  N   UNL     1      42.465   4.695  12.229  0.00  0.00    +0.000 N 
ATOM     29  C   UNL     1      43.613   4.345  12.899  0.00  0.00    +0.000 A 
ATOM     30  O   UNL     1      43.666   3.328  13.582  0.00  0.00    +0.000 OA
ATOM     31  C   UNL     1      44.722   5.261  12.714  0.00  0.00    +0.000 A 
ATOM     32  H   UNL     1      41.677   4.074  12.341  0.00  0.00    +0.000 HD
ENDBRANCH  19  22
ENDBRANCH  17  18
ENDBRANCH   4  17
TORSDOF 6
ENDMDL
