MODEL 1
REMARK VINA RESULT:    -7.758      0.000      0.000
REMARK INTER + INTRA:         -10.770
REMARK INTER:                 -10.025
REMARK INTRA:                  -0.745
REMARK UNBOUND:                -0.745
REMARK  Name = 
REMARK  5 active torsions:
REMARK  status: ('A' for Active; 'I' for Inactive)
REMARK    1  A    between atoms: C_2  and  C_5
REMARK    2  A    between atoms: C_9  and  C_10
REMARK    3  A    between atoms: C_10  and  C_11
REMARK    4  A    between atoms: C_11  and  C_12
REMARK    5  A    between atoms: C_16  and  C_17
REMARK                            x       y       z     vdW  Elec       q    Type
REMARK                         _______ _______ _______ _____ _____    ______ ____
ROOT
ATOM      1  C   UNL     1      44.337   6.465  11.024  0.00  0.00    +0.000 C 
ENDROOT
BRANCH   1   2
ATOM      2  C   UNL     1      44.319   5.004  10.639  0.00  0.00    +0.000 A 
ATOM      3  C   UNL     1      43.529   4.061  11.284  0.00  0.00    +0.000 A 
ATOM      4  N   UNL     1      43.477   2.757  10.951  0.00  0.00    +0.000 NA
ATOM      5  C   UNL     1      44.244   2.367   9.904  0.00  0.00    +0.000 A 
ATOM      6  C   UNL     1      45.074   3.205   9.159  0.00  0.00    +0.000 A 
ATOM      7  C   UNL     1      45.082   4.553   9.549  0.00  0.00    +0.000 A 
BRANCH   6   8
ATOM      8  C   UNL     1      45.909   2.697   8.049  0.00  0.00    +0.000 A 
ATOM      9  C   UNL     1      46.429   1.390   8.051  0.00  0.00    +0.000 A 
ATOM     10  C   UNL     1      47.186   0.905   6.980  0.00  0.00    +0.000 A 
ATOM     11  C   UNL     1      47.451   1.722   5.886  0.00  0.00    +0.000 A 
ATOM     12  C   UNL     1      46.965   3.025   5.864  0.00  0.00    +0.000 A 
ATOM     13  C   UNL     1      46.200   3.503   6.932  0.00  0.00    +0.000 A 
ENDBRANCH   6   8
ENDBRANCH   1   2
BRANCH   1  14
ATOM     14  C   UNL     1      44.763   6.737  12.473  0.00  0.00    +0.000 C 
BRANCH  14  19
ATOM     15  C   UNL     1      48.325   7.787  12.414  0.00  0.00    +0.000 A 
ATOM     16  C   UNL     1      48.904   6.774  13.165  0.00  0.00    +0.000 A 
ATOM     17  N   UNL     1      48.193   5.749  13.690  0.00  0.00    +0.000 NA
ATOM     18  C   UNL     1      46.864   5.773  13.439  0.00  0.00    +0.000 A 
ATOM     19  C   UNL     1      46.255   6.774  12.692  0.00  0.00    +0.000 A 
ATOM     20  N   UNL     1      46.979   7.794  12.170  0.00  0.00    +0.000 NA
BRANCH  15  22
ATOM     21  F   UNL     1      50.190   8.444  11.041  0.00  0.00    +0.000 F 
ATOM     22  C   UNL     1      49.197   8.895  11.865  0.00  0.00    +0.000 C 
ATOM     23  F   UNL     1      49.831   9.606  12.839  0.00  0.00    +0.000 F 
ATOM     24  F   UNL     1      48.501   9.805  11.126  0.00  0.00    +0.000 F 
ENDBRANCH  15  22
ENDBRANCH  14  19
ENDBRANCH   1  14
TORSDOF 5
ENDMDL
MODEL 2
REMARK VINA RESULT:    -7.645      3.564      4.252
REMARK INTER + INTRA:         -10.625
REMARK INTER:                  -9.992
REMARK INTRA:                  -0.632
REMARK UNBOUND:                -0.745
REMARK  Name = 
REMARK  5 active torsions:
REMARK  status: ('A' for Active; 'I' for Inactive)
REMARK    1  A    between atoms: C_2  and  C_5
REMARK    2  A    between atoms: C_9  and  C_10
REMARK    3  A    between atoms: C_10  and  C_11
REMARK    4  A    between atoms: C_11  and  C_12
REMARK    5  A    between atoms: C_16  and  C_17
REMARK                            x       y       z     vdW  Elec       q    Type
REMARK                         _______ _______ _______ _____ _____    ______ ____
ROOT
ATOM      1  C   UNL     1      45.296   5.359  13.042  0.00  0.00    +0.000 C 
ENDROOT
BRANCH   1   2
ATOM      2  C   UNL     1      44.780   4.299  12.098  0.00  0.00    +0.000 A 
ATOM      3  C   UNL     1      43.638   3.548  12.354  0.00  0.00    +0.000 A 
ATOM      4  N   UNL     1      43.142   2.611  11.523  0.00  0.00    +0.000 NA
ATOM      5  C   UNL     1      43.811   2.416  10.361  0.00  0.00    +0.000 A 
ATOM      6  C   UNL     1      44.961   3.102   9.969  0.00  0.00    +0.000 A 
ATOM      7  C   UNL     1      45.426   4.071  10.872  0.00  0.00    +0.000 A 
BRANCH   6   8
ATOM      8  C   UNL     1      45.655   2.808   8.697  0.00  0.00    +0.000 A 
ATOM      9  C   UNL     1      45.899   3.807   7.738  0.00  0.00    +0.000 A 
ATOM     10  C   UNL     1      46.591   3.528   6.554  0.00  0.00    +0.000 A 
ATOM     11  C   UNL     1      47.044   2.238   6.298  0.00  0.00    +0.000 A 
ATOM     12  C   UNL     1      46.803   1.226   7.220  0.00  0.00    +0.000 A 
ATOM     13  C   UNL     1      46.119   1.511   8.407  0.00  0.00    +0.000 A 
ENDBRANCH   6   8
ENDBRANCH   1   2
BRANCH   1  14
ATOM     14  C   UNL     1      46.817   5.560  13.004  0.00  0.00    +0.000 C 
BRANCH  14  19
ATOM     15  C   UNL     1      48.066   4.380  16.297  0.00  0.00    +0.000 A 
ATOM     16  C   UNL     1      48.752   5.505  16.730  0.00  0.00    +0.000 A 
ATOM     17  N   UNL     1      48.826   6.645  16.005  0.00  0.00    +0.000 NA
ATOM     18  C   UNL     1      48.185   6.622  14.814  0.00  0.00    +0.000 A 
ATOM     19  C   UNL     1      47.490   5.511  14.353  0.00  0.00    +0.000 A 
ATOM     20  N   UNL     1      47.422   4.375  15.090  0.00  0.00    +0.000 NA
BRANCH  15  22
ATOM     21  F   UNL     1      46.772   2.783  17.551  0.00  0.00    +0.000 F 
ATOM     22  C   UNL     1      48.035   3.147  17.173  0.00  0.00    +0.000 C 
ATOM     23  F   UNL     1      48.729   3.301  18.335  0.00  0.00    +0.000 F 
ATOM     24  F   UNL     1      48.558   2.046  16.564  0.00  0.00    +0.000 F 
ENDBRANCH  15  22
ENDBRANCH  14  19
ENDBRANCH   1  14
TORSDOF 5
ENDMDL
MODEL 3
REMARK VINA RESULT:    -7.403      3.361      7.009
REMARK INTER + INTRA:         -10.311
REMARK INTER:                  -9.559
REMARK INTRA:                  -0.752
REMARK UNBOUND:                -0.745
REMARK  Name = 
REMARK  5 active torsions:
REMARK  status: ('A' for Active; 'I' for Inactive)
REMARK    1  A    between atoms: C_2  and  C_5
REMARK    2  A    between atoms: C_9  and  C_10
REMARK    3  A    between atoms: C_10  and  C_11
REMARK    4  A    between atoms: C_11  and  C_12
REMARK    5  A    between atoms: C_16  and  C_17
REMARK                            x       y       z     vdW  Elec       q    Type
REMARK                         _______ _______ _______ _____ _____    ______ ____
ROOT
ATOM      1  C   UNL     1      43.816   4.352  10.548  0.00  0.00    +0.000 C 
ENDROOT
BRANCH   1   2
ATOM      2  C   UNL     1      44.846   4.775  11.569  0.00  0.00    +0.000 A 
ATOM      3  C   UNL     1      45.102   4.053  12.729  0.00  0.00    +0.000 A 
ATOM      4  N   UNL     1      46.028   4.393  13.647  0.00  0.00    +0.000 NA
ATOM      5  C   UNL     1      46.753   5.509  13.393  0.00  0.00    +0.000 A 
ATOM      6  C   UNL     1      46.612   6.321  12.267  0.00  0.00    +0.000 A 
ATOM      7  C   UNL     1      45.637   5.913  11.343  0.00  0.00    +0.000 A 
BRANCH   6   8
ATOM      8  C   UNL     1      47.420   7.545  12.076  0.00  0.00    +0.000 A 
ATOM      9  C   UNL     1      46.870   8.829  12.244  0.00  0.00    +0.000 A 
ATOM     10  C   UNL     1      47.651   9.981  12.099  0.00  0.00    +0.000 A 
ATOM     11  C   UNL     1      48.998   9.874  11.771  0.00  0.00    +0.000 A 
ATOM     12  C   UNL     1      49.565   8.618  11.582  0.00  0.00    +0.000 A 
ATOM     13  C   UNL     1      48.784   7.469  11.737  0.00  0.00    +0.000 A 
ENDBRANCH   6   8
ENDBRANCH   1   2
BRANCH   1  14
ATOM     14  C   UNL     1      44.283   4.458   9.090  0.00  0.00    +0.000 C 
BRANCH  14  19
ATOM     15  C   UNL     1      46.648   2.305   7.203  0.00  0.00    +0.000 A 
ATOM     16  C   UNL     1      46.393   1.071   7.784  0.00  0.00    +0.000 A 
ATOM     17  N   UNL     1      45.477   0.896   8.764  0.00  0.00    +0.000 NA
ATOM     18  C   UNL     1      44.816   2.011   9.152  0.00  0.00    +0.000 A 
ATOM     19  C   UNL     1      45.049   3.260   8.588  0.00  0.00    +0.000 A 
ATOM     20  N   UNL     1      45.969   3.422   7.606  0.00  0.00    +0.000 NA
BRANCH  15  22
ATOM     21  F   UNL     1      47.336   3.263   5.104  0.00  0.00    +0.000 F 
ATOM     22  C   UNL     1      47.691   2.409   6.112  0.00  0.00    +0.000 C 
ATOM     23  F   UNL     1      47.946   1.217   5.502  0.00  0.00    +0.000 F 
ATOM     24  F   UNL     1      48.892   2.867   6.564  0.00  0.00    +0.000 F 
ENDBRANCH  15  22
ENDBRANCH  14  19
ENDBRANCH   1  14
TORSDOF 5
ENDMDL
MODEL 4
REMARK VINA RESULT:    -7.286      2.719      3.478
REMARK INTER + INTRA:         -10.160
REMARK INTER:                  -9.567
REMARK INTRA:                  -0.593
REMARK UNBOUND:                -0.745
REMARK  Name = 
REMARK  5 active torsions:
REMARK  status: ('A' for Active; 'I' for Inactive)
REMARK    1  A    between atoms: C_2  and  C_5
REMARK    2  A    between atoms: C_9  and  C_10
REMARK    3  A    between atoms: C_10  and  C_11
REMARK    4  A    between atoms: C_11  and  C_12
REMARK    5  A    between atoms: C_16  and  C_17
REMARK                            x       y       z     vdW  Elec       q    Type
REMARK                         _______ _______ _______ _____ _____    ______ ____
ROOT
ATOM      1  C   UNL     1      45.954   7.097  12.430  0.00  0.00    +0.000 C 
ENDROOT
BRANCH   1   2
ATOM      2  C   UNL     1      45.123   6.192  11.551  0.00  0.00    +0.000 A 
ATOM      3  C   UNL     1      43.734   6.171  11.585  0.00  0.00    +0.000 A 
ATOM      4  N   UNL     1      42.966   5.390  10.800  0.00  0.00    +0.000 NA
ATOM      5  C   UNL     1      43.615   4.592   9.917  0.00  0.00    +0.000 A 
ATOM      6  C   UNL     1      45.001   4.519   9.766  0.00  0.00    +0.000 A 
ATOM      7  C   UNL     1      45.747   5.360  10.607  0.00  0.00    +0.000 A 
BRANCH   6   8
ATOM      8  C   UNL     1      45.637   3.596   8.802  0.00  0.00    +0.000 A 
ATOM      9  C   UNL     1      45.609   2.202   8.983  0.00  0.00    +0.000 A 
ATOM     10  C   UNL     1      46.180   1.334   8.046  0.00  0.00    +0.000 A 
ATOM     11  C   UNL     1      46.804   1.843   6.912  0.00  0.00    +0.000 A 
ATOM     12  C   UNL     1      46.862   3.218   6.715  0.00  0.00    +0.000 A 
ATOM     13  C   UNL     1      46.281   4.083   7.649  0.00  0.00    +0.000 A 
ENDBRANCH   6   8
ENDBRANCH   1   2
BRANCH   1  14
ATOM     14  C   UNL     1      47.371   6.582  12.718  0.00  0.00    +0.000 C 
BRANCH  14  19
ATOM     15  C   UNL     1      48.490   5.498  16.089  0.00  0.00    +0.000 A 
ATOM     16  C   UNL     1      47.658   4.407  16.298  0.00  0.00    +0.000 A 
ATOM     17  N   UNL     1      46.746   3.994  15.388  0.00  0.00    +0.000 NA
ATOM     18  C   UNL     1      46.689   4.719  14.247  0.00  0.00    +0.000 A 
ATOM     19  C   UNL     1      47.509   5.816  14.009  0.00  0.00    +0.000 A 
ATOM     20  N   UNL     1      48.420   6.219  14.928  0.00  0.00    +0.000 NA
BRANCH  15  22
ATOM     21  F   UNL     1      50.027   7.130  16.967  0.00  0.00    +0.000 F 
ATOM     22  C   UNL     1      49.481   5.891  17.162  0.00  0.00    +0.000 C 
ATOM     23  F   UNL     1      50.542   5.039  17.245  0.00  0.00    +0.000 F 
ATOM     24  F   UNL     1      48.932   5.933  18.408  0.00  0.00    +0.000 F 
ENDBRANCH  15  22
ENDBRANCH  14  19
ENDBRANCH   1  14
TORSDOF 5
ENDMDL
MODEL 5
REMARK VINA RESULT:    -6.917      3.812      5.545
REMARK INTER + INTRA:          -9.683
REMARK INTER:                  -8.960
REMARK INTRA:                  -0.723
REMARK UNBOUND:                -0.745
REMARK  Name = 
REMARK  5 active torsions:
REMARK  status: ('A' for Active; 'I' for Inactive)
REMARK    1  A    between atoms: C_2  and  C_5
REMARK    2  A    between atoms: C_9  and  C_10
REMARK    3  A    between atoms: C_10  and  C_11
REMARK    4  A    between atoms: C_11  and  C_12
REMARK    5  A    between atoms: C_16  and  C_17
REMARK                            x       y       z     vdW  Elec       q    Type
REMARK                         _______ _______ _______ _____ _____    ______ ____
ROOT
ATOM      1  C   UNL     1      48.740   7.147  13.653  0.00  0.00    +0.000 C 
ENDROOT
BRANCH   1   2
ATOM      2  C   UNL     1      47.392   7.187  12.973  0.00  0.00    +0.000 A 
ATOM      3  C   UNL     1      46.519   8.263  13.086  0.00  0.00    +0.000 A 
ATOM      4  N   UNL     1      45.320   8.336  12.476  0.00  0.00    +0.000 NA
ATOM      5  C   UNL     1      44.971   7.285  11.695  0.00  0.00    +0.000 A 
ATOM      6  C   UNL     1      45.751   6.148  11.481  0.00  0.00    +0.000 A 
ATOM      7  C   UNL     1      46.991   6.131  12.138  0.00  0.00    +0.000 A 
BRANCH   6   8
ATOM      8  C   UNL     1      45.286   5.025  10.640  0.00  0.00    +0.000 A 
ATOM      9  C   UNL     1      45.477   5.013   9.247  0.00  0.00    +0.000 A 
ATOM     10  C   UNL     1      45.069   3.929   8.463  0.00  0.00    +0.000 A 
ATOM     11  C   UNL     1      44.447   2.835   9.055  0.00  0.00    +0.000 A 
ATOM     12  C   UNL     1      44.229   2.825  10.428  0.00  0.00    +0.000 A 
ATOM     13  C   UNL     1      44.648   3.906  11.210  0.00  0.00    +0.000 A 
ENDBRANCH   6   8
ENDBRANCH   1   2
BRANCH   1  14
ATOM     14  C   UNL     1      48.746   7.692  15.088  0.00  0.00    +0.000 C 
BRANCH  14  19
ATOM     15  C   UNL     1      48.553   4.451  16.891  0.00  0.00    +0.000 A 
ATOM     16  C   UNL     1      49.078   4.810  18.123  0.00  0.00    +0.000 A 
ATOM     17  N   UNL     1      49.490   6.067  18.409  0.00  0.00    +0.000 NA
ATOM     18  C   UNL     1      49.361   6.966  17.405  0.00  0.00    +0.000 A 
ATOM     19  C   UNL     1      48.839   6.636  16.160  0.00  0.00    +0.000 A 
ATOM     20  N   UNL     1      48.428   5.373  15.887  0.00  0.00    +0.000 NA
BRANCH  15  22
ATOM     21  F   UNL     1      49.107   2.108  16.894  0.00  0.00    +0.000 F 
ATOM     22  C   UNL     1      48.117   3.021  16.658  0.00  0.00    +0.000 C 
ATOM     23  F   UNL     1      47.711   2.789  15.378  0.00  0.00    +0.000 F 
ATOM     24  F   UNL     1      47.081   2.641  17.457  0.00  0.00    +0.000 F 
ENDBRANCH  15  22
ENDBRANCH  14  19
ENDBRANCH   1  14
TORSDOF 5
ENDMDL
MODEL 6
REMARK VINA RESULT:    -6.797      4.026      7.839
REMARK INTER + INTRA:          -9.529
REMARK INTER:                  -8.791
REMARK INTRA:                  -0.739
REMARK UNBOUND:                -0.745
REMARK  Name = 
REMARK  5 active torsions:
REMARK  status: ('A' for Active; 'I' for Inactive)
REMARK    1  A    between atoms: C_2  and  C_5
REMARK    2  A    between atoms: C_9  and  C_10
REMARK    3  A    between atoms: C_10  and  C_11
REMARK    4  A    between atoms: C_11  and  C_12
REMARK    5  A    between atoms: C_16  and  C_17
REMARK                            x       y       z     vdW  Elec       q    Type
REMARK                         _______ _______ _______ _____ _____    ______ ____
ROOT
ATOM      1  C   UNL     1      46.760   6.735  11.801  0.00  0.00    +0.000 C 
ENDROOT
BRANCH   1   2
ATOM      2  C   UNL     1      47.632   6.895  13.025  0.00  0.00    +0.000 A 
ATOM      3  C   UNL     1      48.480   7.980  13.212  0.00  0.00    +0.000 A 
ATOM      4  N   UNL     1      49.253   8.161  14.300  0.00  0.00    +0.000 NA
ATOM      5  C   UNL     1      49.170   7.216  15.268  0.00  0.00    +0.000 A 
ATOM      6  C   UNL     1      48.356   6.084  15.219  0.00  0.00    +0.000 A 
ATOM      7  C   UNL     1      47.569   5.953  14.064  0.00  0.00    +0.000 A 
BRANCH   6   8
ATOM      8  C   UNL     1      48.346   5.077  16.302  0.00  0.00    +0.000 A 
ATOM      9  C   UNL     1      49.296   5.095  17.339  0.00  0.00    +0.000 A 
ATOM     10  C   UNL     1      49.255   4.162  18.381  0.00  0.00    +0.000 A 
ATOM     11  C   UNL     1      48.269   3.182  18.402  0.00  0.00    +0.000 A 
ATOM     12  C   UNL     1      47.327   3.129  17.381  0.00  0.00    +0.000 A 
ATOM     13  C   UNL     1      47.364   4.069  16.347  0.00  0.00    +0.000 A 
ENDBRANCH   6   8
ENDBRANCH   1   2
BRANCH   1  14
ATOM     14  C   UNL     1      45.268   6.541  12.103  0.00  0.00    +0.000 C 
BRANCH  14  19
ATOM     15  C   UNL     1      44.536   3.284  10.475  0.00  0.00    +0.000 A 
ATOM     16  C   UNL     1      43.819   2.650  11.479  0.00  0.00    +0.000 A 
ATOM     17  N   UNL     1      43.548   3.233  12.669  0.00  0.00    +0.000 NA
ATOM     18  C   UNL     1      44.029   4.488  12.827  0.00  0.00    +0.000 A 
ATOM     19  C   UNL     1      44.751   5.149  11.840  0.00  0.00    +0.000 A 
ATOM     20  N   UNL     1      45.014   4.554  10.651  0.00  0.00    +0.000 NA
BRANCH  15  22
ATOM     21  F   UNL     1      44.272   1.292   9.147  0.00  0.00    +0.000 F 
ATOM     22  C   UNL     1      44.793   2.556   9.173  0.00  0.00    +0.000 C 
ATOM     23  F   UNL     1      46.120   2.405   8.900  0.00  0.00    +0.000 F 
ATOM     24  F   UNL     1      44.255   3.189   8.092  0.00  0.00    +0.000 F 
ENDBRANCH  15  22
ENDBRANCH  14  19
ENDBRANCH   1  14
TORSDOF 5
ENDMDL
MODEL 7
REMARK VINA RESULT:    -6.606      3.096      7.022
REMARK INTER + INTRA:          -9.282
REMARK INTER:                  -8.612
REMARK INTRA:                  -0.670
REMARK UNBOUND:                -0.745
REMARK  Name = 
REMARK  5 active torsions:
REMARK  status: ('A' for Active; 'I' for Inactive)
REMARK    1  A    between atoms: C_2  and  C_5
REMARK    2  A    between atoms: C_9  and  C_10
REMARK    3  A    between atoms: C_10  and  C_11
REMARK    4  A    between atoms: C_11  and  C_12
REMARK    5  A    between atoms: C_16  and  C_17
REMARK                            x       y       z     vdW  Elec       q    Type
REMARK                         _______ _______ _______ _____ _____    ______ ____
ROOT
ATOM      1  C   UNL     1      45.307   6.592  12.548  0.00  0.00    +0.000 C 
ENDROOT
BRANCH   1   2
ATOM      2  C   UNL     1      46.080   7.870  12.319  0.00  0.00    +0.000 A 
ATOM      3  C   UNL     1      45.505   9.131  12.425  0.00  0.00    +0.000 A 
ATOM      4  N   UNL     1      46.172  10.288  12.246  0.00  0.00    +0.000 NA
ATOM      5  C   UNL     1      47.493  10.189  11.960  0.00  0.00    +0.000 A 
ATOM      6  C   UNL     1      48.201   8.994  11.835  0.00  0.00    +0.000 A 
ATOM      7  C   UNL     1      47.455   7.822  12.037  0.00  0.00    +0.000 A 
BRANCH   6   8
ATOM      8  C   UNL     1      49.638   8.966  11.485  0.00  0.00    +0.000 A 
ATOM      9  C   UNL     1      50.333   7.757  11.301  0.00  0.00    +0.000 A 
ATOM     10  C   UNL     1      51.682   7.740  10.933  0.00  0.00    +0.000 A 
ATOM     11  C   UNL     1      52.371   8.935  10.751  0.00  0.00    +0.000 A 
ATOM     12  C   UNL     1      51.714  10.145  10.942  0.00  0.00    +0.000 A 
ATOM     13  C   UNL     1      50.363  10.158  11.300  0.00  0.00    +0.000 A 
ENDBRANCH   6   8
ENDBRANCH   1   2
BRANCH   1  14
ATOM     14  C   UNL     1      44.185   6.336  11.532  0.00  0.00    +0.000 C 
BRANCH  14  19
ATOM     15  C   UNL     1      45.145   3.677   9.124  0.00  0.00    +0.000 A 
ATOM     16  C   UNL     1      44.414   2.606   9.618  0.00  0.00    +0.000 A 
ATOM     17  N   UNL     1      43.609   2.703  10.701  0.00  0.00    +0.000 NA
ATOM     18  C   UNL     1      43.560   3.923  11.285  0.00  0.00    +0.000 A 
ATOM     19  C   UNL     1      44.280   5.014  10.813  0.00  0.00    +0.000 A 
ATOM     20  N   UNL     1      45.083   4.904   9.726  0.00  0.00    +0.000 NA
BRANCH  15  22
ATOM     21  F   UNL     1      45.312   3.346   6.745  0.00  0.00    +0.000 F 
ATOM     22  C   UNL     1      46.022   3.478   7.906  0.00  0.00    +0.000 C 
ATOM     23  F   UNL     1      46.797   2.360   7.985  0.00  0.00    +0.000 F 
ATOM     24  F   UNL     1      46.876   4.517   7.689  0.00  0.00    +0.000 F 
ENDBRANCH  15  22
ENDBRANCH  14  19
ENDBRANCH   1  14
TORSDOF 5
ENDMDL
MODEL 8
REMARK VINA RESULT:    -6.541      3.924      7.408
REMARK INTER + INTRA:          -9.198
REMARK INTER:                  -8.379
REMARK INTRA:                  -0.820
REMARK UNBOUND:                -0.745
REMARK  Name = 
REMARK  5 active torsions:
REMARK  status: ('A' for Active; 'I' for Inactive)
REMARK    1  A    between atoms: C_2  and  C_5
REMARK    2  A    between atoms: C_9  and  C_10
REMARK    3  A    between atoms: C_10  and  C_11
REMARK    4  A    between atoms: C_11  and  C_12
REMARK    5  A    between atoms: C_16  and  C_17
REMARK                            x       y       z     vdW  Elec       q    Type
REMARK                         _______ _______ _______ _____ _____    ______ ____
ROOT
ATOM      1  C   UNL     1      45.948   6.444  12.932  0.00  0.00    +0.000 C 
ENDROOT
BRANCH   1   2
ATOM      2  C   UNL     1      46.025   7.901  12.541  0.00  0.00    +0.000 A 
ATOM      3  C   UNL     1      47.111   8.711  12.851  0.00  0.00    +0.000 A 
ATOM      4  N   UNL     1      47.217  10.007  12.500  0.00  0.00    +0.000 NA
ATOM      5  C   UNL     1      46.191  10.528  11.784  0.00  0.00    +0.000 A 
ATOM      6  C   UNL     1      45.047   9.831  11.394  0.00  0.00    +0.000 A 
ATOM      7  C   UNL     1      44.996   8.483  11.784  0.00  0.00    +0.000 A 
BRANCH   6   8
ATOM      8  C   UNL     1      43.951  10.479  10.642  0.00  0.00    +0.000 A 
ATOM      9  C   UNL     1      42.614  10.067  10.778  0.00  0.00    +0.000 A 
ATOM     10  C   UNL     1      41.578  10.711  10.093  0.00  0.00    +0.000 A 
ATOM     11  C   UNL     1      41.860  11.777   9.244  0.00  0.00    +0.000 A 
ATOM     12  C   UNL     1      43.175  12.196   9.077  0.00  0.00    +0.000 A 
ATOM     13  C   UNL     1      44.207  11.556   9.771  0.00  0.00    +0.000 A 
ENDBRANCH   6   8
ENDBRANCH   1   2
BRANCH   1  14
ATOM     14  C   UNL     1      44.530   5.855  12.922  0.00  0.00    +0.000 C 
BRANCH  14  19
ATOM     15  C   UNL     1      44.758   3.696   9.908  0.00  0.00    +0.000 A 
ATOM     16  C   UNL     1      43.934   2.644  10.283  0.00  0.00    +0.000 A 
ATOM     17  N   UNL     1      43.294   2.600  11.473  0.00  0.00    +0.000 NA
ATOM     18  C   UNL     1      43.509   3.656  12.292  0.00  0.00    +0.000 A 
ATOM     19  C   UNL     1      44.328   4.724  11.945  0.00  0.00    +0.000 A 
ATOM     20  N   UNL     1      44.963   4.757  10.748  0.00  0.00    +0.000 NA
BRANCH  15  22
ATOM     21  F   UNL     1      46.279   4.720   8.348  0.00  0.00    +0.000 F 
ATOM     22  C   UNL     1      45.436   3.663   8.556  0.00  0.00    +0.000 C 
ATOM     23  F   UNL     1      44.555   3.695   7.517  0.00  0.00    +0.000 F 
ATOM     24  F   UNL     1      46.201   2.551   8.369  0.00  0.00    +0.000 F 
ENDBRANCH  15  22
ENDBRANCH  14  19
ENDBRANCH   1  14
TORSDOF 5
ENDMDL
MODEL 9
REMARK VINA RESULT:    -6.301      5.587      8.736
REMARK INTER + INTRA:          -8.887
REMARK INTER:                  -8.353
REMARK INTRA:                  -0.534
REMARK UNBOUND:                -0.745
REMARK  Name = 
REMARK  5 active torsions:
REMARK  status: ('A' for Active; 'I' for Inactive)
REMARK    1  A    between atoms: C_2  and  C_5
REMARK    2  A    between atoms: C_9  and  C_10
REMARK    3  A    between atoms: C_10  and  C_11
REMARK    4  A    between atoms: C_11  and  C_12
REMARK    5  A    between atoms: C_16  and  C_17
REMARK                            x       y       z     vdW  Elec       q    Type
REMARK                         _______ _______ _______ _____ _____    ______ ____
ROOT
ATOM      1  C   UNL     1      46.907   4.265  15.427  0.00  0.00    +0.000 C 
ENDROOT
BRANCH   1   2
ATOM      2  C   UNL     1      47.781   4.269  16.659  0.00  0.00    +0.000 A 
ATOM      3  C   UNL     1      47.409   4.884  17.849  0.00  0.00    +0.000 A 
ATOM      4  N   UNL     1      48.157   4.887  18.969  0.00  0.00    +0.000 NA
ATOM      5  C   UNL     1      49.340   4.228  18.911  0.00  0.00    +0.000 A 
ATOM      6  C   UNL     1      49.834   3.559  17.790  0.00  0.00    +0.000 A 
ATOM      7  C   UNL     1      49.008   3.585  16.656  0.00  0.00    +0.000 A 
BRANCH   6   8
ATOM      8  C   UNL     1      51.153   2.891  17.794  0.00  0.00    +0.000 A 
ATOM      9  C   UNL     1      52.324   3.564  18.187  0.00  0.00    +0.000 A 
ATOM     10  C   UNL     1      53.561   2.914  18.224  0.00  0.00    +0.000 A 
ATOM     11  C   UNL     1      53.658   1.575  17.857  0.00  0.00    +0.000 A 
ATOM     12  C   UNL     1      52.520   0.888  17.449  0.00  0.00    +0.000 A 
ATOM     13  C   UNL     1      51.283   1.539  17.422  0.00  0.00    +0.000 A 
ENDBRANCH   6   8
ENDBRANCH   1   2
BRANCH   1  14
ATOM     14  C   UNL     1      47.326   5.270  14.345  0.00  0.00    +0.000 C 
BRANCH  14  19
ATOM     15  C   UNL     1      44.787   4.299  11.815  0.00  0.00    +0.000 A 
ATOM     16  C   UNL     1      45.029   5.246  10.831  0.00  0.00    +0.000 A 
ATOM     17  N   UNL     1      45.991   6.191  10.941  0.00  0.00    +0.000 NA
ATOM     18  C   UNL     1      46.710   6.161  12.086  0.00  0.00    +0.000 A 
ATOM     19  C   UNL     1      46.491   5.225  13.090  0.00  0.00    +0.000 A 
ATOM     20  N   UNL     1      45.525   4.282  12.967  0.00  0.00    +0.000 NA
BRANCH  15  22
ATOM     21  F   UNL     1      43.891   2.480  10.517  0.00  0.00    +0.000 F 
ATOM     22  C   UNL     1      43.689   3.277  11.609  0.00  0.00    +0.000 C 
ATOM     23  F   UNL     1      42.464   3.843  11.421  0.00  0.00    +0.000 F 
ATOM     24  F   UNL     1      43.553   2.420  12.659  0.00  0.00    +0.000 F 
ENDBRANCH  15  22
ENDBRANCH  14  19
ENDBRANCH   1  14
TORSDOF 5
ENDMDL
