MODEL 1
REMARK VINA RESULT:    -7.602      0.000      0.000
REMARK INTER + INTRA:          -9.496
REMARK INTER:                  -8.935
REMARK INTRA:                  -0.561
REMARK UNBOUND:                -0.561
REMARK  Name = 
REMARK  3 active torsions:
REMARK  status: ('A' for Active; 'I' for Inactive)
REMARK    1  A    between atoms: N_6  and  C_7
REMARK    2  A    between atoms: C_7  and  C_8
REMARK    3  A    between atoms: C_12  and  C_13
REMARK                            x       y       z     vdW  Elec       q    Type
REMARK                         _______ _______ _______ _____ _____    ______ ____
ROOT
ATOM      1  C   UNL     1      45.365   4.586  12.086  0.00  0.00    +0.000 A 
ATOM      2  C   UNL     1      45.778   3.634  13.026  0.00  0.00    +0.000 A 
ATOM      3  C   UNL     1      46.946   3.843  13.733  0.00  0.00    +0.000 A 
ATOM      4  N   UNL     1      47.723   4.933  13.585  0.00  0.00    +0.000 NA
ATOM      5  C   UNL     1      47.323   5.876  12.704  0.00  0.00    +0.000 A 
ATOM      6  C   UNL     1      46.157   5.733  11.952  0.00  0.00    +0.000 A 
ENDROOT
BRANCH   5   7
ATOM      7  C   UNL     1      48.201   7.101  12.494  0.00  0.00    +0.000 C 
ATOM      8  C   UNL     1      49.088   7.384  13.714  0.00  0.00    +0.000 C 
ATOM      9  C   UNL     1      48.334   8.099  14.834  0.00  0.00    +0.000 C 
ATOM     10  N   UNL     1      47.710   9.336  14.364  0.00  0.00    +0.000 NA
ATOM     11  C   UNL     1      46.758   9.065  13.284  0.00  0.00    +0.000 C 
ATOM     12  C   UNL     1      47.418   8.362  12.096  0.00  0.00    +0.000 C 
ATOM     13  H   UNL     1      48.429   9.973  14.025  0.00  0.00    +0.000 HD
ENDBRANCH   5   7
BRANCH   1  14
ATOM     14  C   UNL     1      44.124   4.359  11.234  0.00  0.00    +0.000 C 
ATOM     15  C   UNL     1      42.757   4.745  11.778  0.00  0.00    +0.000 C 
ATOM     16  C   UNL     1      43.413   5.617  10.761  0.00  0.00    +0.000 C 
BRANCH  14  22
ATOM     17 CL   UNL     1      47.836   2.436   5.975  0.00  0.00    +0.000 Cl
ATOM     18  C   UNL     1      46.738   2.647   7.266  0.00  0.00    +0.000 A 
ATOM     19  C   UNL     1      46.280   1.598   8.025  0.00  0.00    +0.000 A 
ATOM     20  N   UNL     1      45.429   1.742   9.068  0.00  0.00    +0.000 NA
ATOM     21  C   UNL     1      45.029   2.992   9.357  0.00  0.00    +0.000 A 
ATOM     22  N   UNL     1      44.163   3.121  10.441  0.00  0.00    +0.000 N 
ATOM     23  N   UNL     1      45.421   4.075   8.665  0.00  0.00    +0.000 NA
ATOM     24  C   UNL     1      46.262   3.881   7.629  0.00  0.00    +0.000 A 
ATOM     25  H   UNL     1      44.185   2.238  10.936  0.00  0.00    +0.000 HD
ENDBRANCH  14  22
ENDBRANCH   1  14
TORSDOF 3
ENDMDL
MODEL 2
REMARK VINA RESULT:    -6.343      3.801      7.368
REMARK INTER + INTRA:          -8.017
REMARK INTER:                  -7.509
REMARK INTRA:                  -0.509
REMARK UNBOUND:                -0.561
REMARK  Name = 
REMARK  3 active torsions:
REMARK  status: ('A' for Active; 'I' for Inactive)
REMARK    1  A    between atoms: N_6  and  C_7
REMARK    2  A    between atoms: C_7  and  C_8
REMARK    3  A    between atoms: C_12  and  C_13
REMARK                            x       y       z     vdW  Elec       q    Type
REMARK                         _______ _______ _______ _____ _____    ______ ____
ROOT
ATOM      1  C   UNL     1      47.250   7.768  12.128  0.00  0.00    +0.000 A 
ATOM      2  C   UNL     1      46.552   8.972  12.268  0.00  0.00    +0.000 A 
ATOM      3  C   UNL     1      45.204   9.013  11.966  0.00  0.00    +0.000 A 
ATOM      4  N   UNL     1      44.500   7.943  11.550  0.00  0.00    +0.000 NA
ATOM      5  C   UNL     1      45.152   6.766  11.437  0.00  0.00    +0.000 A 
ATOM      6  C   UNL     1      46.513   6.648  11.721  0.00  0.00    +0.000 A 
ENDROOT
BRANCH   5   7
ATOM      7  C   UNL     1      44.387   5.550  10.936  0.00  0.00    +0.000 C 
ATOM      8  C   UNL     1      42.985   5.463  11.555  0.00  0.00    +0.000 C 
ATOM      9  C   UNL     1      43.002   4.886  12.970  0.00  0.00    +0.000 C 
ATOM     10  N   UNL     1      43.657   3.579  13.014  0.00  0.00    +0.000 NA
ATOM     11  C   UNL     1      45.043   3.671  12.550  0.00  0.00    +0.000 C 
ATOM     12  C   UNL     1      45.140   4.224  11.126  0.00  0.00    +0.000 C 
ATOM     13  H   UNL     1      43.149   2.923  12.424  0.00  0.00    +0.000 HD
ENDBRANCH   5   7
BRANCH   1  14
ATOM     14  C   UNL     1      48.751   7.697  12.378  0.00  0.00    +0.000 C 
ATOM     15  C   UNL     1      49.716   7.888  11.219  0.00  0.00    +0.000 C 
ATOM     16  C   UNL     1      49.510   9.002  12.189  0.00  0.00    +0.000 C 
BRANCH  14  22
ATOM     17 CL   UNL     1      48.403   7.513  19.085  0.00  0.00    +0.000 Cl
ATOM     18  C   UNL     1      48.647   7.281  17.410  0.00  0.00    +0.000 A 
ATOM     19  C   UNL     1      48.636   6.038  16.828  0.00  0.00    +0.000 A 
ATOM     20  N   UNL     1      48.804   5.830  15.501  0.00  0.00    +0.000 NA
ATOM     21  C   UNL     1      48.985   6.918  14.733  0.00  0.00    +0.000 A 
ATOM     22  N   UNL     1      49.143   6.684  13.369  0.00  0.00    +0.000 N 
ATOM     23  N   UNL     1      49.015   8.171  15.218  0.00  0.00    +0.000 NA
ATOM     24  C   UNL     1      48.853   8.327  16.549  0.00  0.00    +0.000 A 
ATOM     25  H   UNL     1      48.865   5.725  13.205  0.00  0.00    +0.000 HD
ENDBRANCH  14  22
ENDBRANCH   1  14
TORSDOF 3
ENDMDL
MODEL 3
REMARK VINA RESULT:    -6.172      2.130      3.348
REMARK INTER + INTRA:          -7.816
REMARK INTER:                  -7.941
REMARK INTRA:                   0.125
REMARK UNBOUND:                -0.561
REMARK  Name = 
REMARK  3 active torsions:
REMARK  status: ('A' for Active; 'I' for Inactive)
REMARK    1  A    between atoms: N_6  and  C_7
REMARK    2  A    between atoms: C_7  and  C_8
REMARK    3  A    between atoms: C_12  and  C_13
REMARK                            x       y       z     vdW  Elec       q    Type
REMARK                         _______ _______ _______ _____ _____    ______ ____
ROOT
ATOM      1  C   UNL     1      45.758   5.061  13.038  0.00  0.00    +0.000 A 
ATOM      2  C   UNL     1      46.822   5.784  12.486  0.00  0.00    +0.000 A 
ATOM      3  C   UNL     1      47.962   5.992  13.238  0.00  0.00    +0.000 A 
ATOM      4  N   UNL     1      48.127   5.521  14.489  0.00  0.00    +0.000 NA
ATOM      5  C   UNL     1      47.121   4.796  15.026  0.00  0.00    +0.000 A 
ATOM      6  C   UNL     1      45.939   4.548  14.329  0.00  0.00    +0.000 A 
ENDROOT
BRANCH   5   7
ATOM      7  C   UNL     1      47.268   4.282  16.450  0.00  0.00    +0.000 C 
ATOM      8  C   UNL     1      48.201   5.171  17.285  0.00  0.00    +0.000 C 
ATOM      9  C   UNL     1      49.678   4.888  17.015  0.00  0.00    +0.000 C 
ATOM     10  N   UNL     1      50.006   3.477  17.221  0.00  0.00    +0.000 NA
ATOM     11  C   UNL     1      49.215   2.621  16.333  0.00  0.00    +0.000 C 
ATOM     12  C   UNL     1      47.711   2.813  16.536  0.00  0.00    +0.000 C 
ATOM     13  H   UNL     1      49.818   3.221  18.188  0.00  0.00    +0.000 HD
ENDBRANCH   5   7
BRANCH   1  14
ATOM     14  C   UNL     1      44.456   4.874  12.271  0.00  0.00    +0.000 C 
ATOM     15  C   UNL     1      43.152   5.380  12.869  0.00  0.00    +0.000 C 
ATOM     16  C   UNL     1      43.800   6.151  11.769  0.00  0.00    +0.000 C 
BRANCH  14  22
ATOM     17 CL   UNL     1      46.526   2.936   6.181  0.00  0.00    +0.000 Cl
ATOM     18  C   UNL     1      45.867   3.137   7.744  0.00  0.00    +0.000 A 
ATOM     19  C   UNL     1      45.770   2.104   8.643  0.00  0.00    +0.000 A 
ATOM     20  N   UNL     1      45.274   2.243   9.894  0.00  0.00    +0.000 NA
ATOM     21  C   UNL     1      44.863   3.472  10.252  0.00  0.00    +0.000 A 
ATOM     22  N   UNL     1      44.367   3.596  11.548  0.00  0.00    +0.000 N 
ATOM     23  N   UNL     1      44.916   4.538   9.436  0.00  0.00    +0.000 NA
ATOM     24  C   UNL     1      45.410   4.348   8.195  0.00  0.00    +0.000 A 
ATOM     25  H   UNL     1      44.626   2.751  12.041  0.00  0.00    +0.000 HD
ENDBRANCH  14  22
ENDBRANCH   1  14
TORSDOF 3
ENDMDL
MODEL 4
REMARK VINA RESULT:    -5.652      3.572      7.739
REMARK INTER + INTRA:          -7.205
REMARK INTER:                  -7.506
REMARK INTRA:                   0.301
REMARK UNBOUND:                -0.561
REMARK  Name = 
REMARK  3 active torsions:
REMARK  status: ('A' for Active; 'I' for Inactive)
REMARK    1  A    between atoms: N_6  and  C_7
REMARK    2  A    between atoms: C_7  and  C_8
REMARK    3  A    between atoms: C_12  and  C_13
REMARK                            x       y       z     vdW  Elec       q    Type
REMARK                         _______ _______ _______ _____ _____    ______ ____
ROOT
ATOM      1  C   UNL     1      47.637   6.249  13.078  0.00  0.00    +0.000 A 
ATOM      2  C   UNL     1      47.613   5.428  14.211  0.00  0.00    +0.000 A 
ATOM      3  C   UNL     1      46.561   4.550  14.389  0.00  0.00    +0.000 A 
ATOM      4  N   UNL     1      45.542   4.420  13.518  0.00  0.00    +0.000 NA
ATOM      5  C   UNL     1      45.565   5.185  12.404  0.00  0.00    +0.000 A 
ATOM      6  C   UNL     1      46.592   6.095  12.157  0.00  0.00    +0.000 A 
ENDROOT
BRANCH   5   7
ATOM      7  C   UNL     1      44.409   5.081  11.421  0.00  0.00    +0.000 C 
ATOM      8  C   UNL     1      43.239   4.271  11.998  0.00  0.00    +0.000 C 
ATOM      9  C   UNL     1      43.470   2.763  11.907  0.00  0.00    +0.000 C 
ATOM     10  N   UNL     1      43.752   2.339  10.535  0.00  0.00    +0.000 NA
ATOM     11  C   UNL     1      44.947   3.008  10.016  0.00  0.00    +0.000 C 
ATOM     12  C   UNL     1      44.814   4.532  10.044  0.00  0.00    +0.000 C 
ATOM     13  H   UNL     1      42.957   2.562   9.940  0.00  0.00    +0.000 HD
ENDBRANCH   5   7
BRANCH   1  14
ATOM     14  C   UNL     1      48.739   7.282  12.882  0.00  0.00    +0.000 C 
ATOM     15  C   UNL     1      49.300   7.526  11.489  0.00  0.00    +0.000 C 
ATOM     16  C   UNL     1      48.349   8.513  12.078  0.00  0.00    +0.000 C 
BRANCH  14  22
ATOM     17 CL   UNL     1      48.406   9.501  19.214  0.00  0.00    +0.000 Cl
ATOM     18  C   UNL     1      48.801   8.888  17.669  0.00  0.00    +0.000 A 
ATOM     19  C   UNL     1      49.741   7.905  17.483  0.00  0.00    +0.000 A 
ATOM     20  N   UNL     1      50.055   7.388  16.273  0.00  0.00    +0.000 NA
ATOM     21  C   UNL     1      49.392   7.878  15.211  0.00  0.00    +0.000 A 
ATOM     22  N   UNL     1      49.721   7.323  13.976  0.00  0.00    +0.000 N 
ATOM     23  N   UNL     1      48.461   8.843  15.300  0.00  0.00    +0.000 NA
ATOM     24  C   UNL     1      48.189   9.334  16.526  0.00  0.00    +0.000 A 
ATOM     25  H   UNL     1      50.257   6.486  14.167  0.00  0.00    +0.000 HD
ENDBRANCH  14  22
ENDBRANCH   1  14
TORSDOF 3
ENDMDL
MODEL 5
REMARK VINA RESULT:    -5.615      3.094      5.043
REMARK INTER + INTRA:          -7.162
REMARK INTER:                  -7.525
REMARK INTRA:                   0.364
REMARK UNBOUND:                -0.561
REMARK  Name = 
REMARK  3 active torsions:
REMARK  status: ('A' for Active; 'I' for Inactive)
REMARK    1  A    between atoms: N_6  and  C_7
REMARK    2  A    between atoms: C_7  and  C_8
REMARK    3  A    between atoms: C_12  and  C_13
REMARK                            x       y       z     vdW  Elec       q    Type
REMARK                         _______ _______ _______ _____ _____    ______ ____
ROOT
ATOM      1  C   UNL     1      48.158   6.801  14.340  0.00  0.00    +0.000 A 
ATOM      2  C   UNL     1      49.390   7.382  14.018  0.00  0.00    +0.000 A 
ATOM      3  C   UNL     1      50.448   7.260  14.898  0.00  0.00    +0.000 A 
ATOM      4  N   UNL     1      50.374   6.592  16.065  0.00  0.00    +0.000 NA
ATOM      5  C   UNL     1      49.201   6.000  16.378  0.00  0.00    +0.000 A 
ATOM      6  C   UNL     1      48.088   6.082  15.541  0.00  0.00    +0.000 A 
ENDROOT
BRANCH   5   7
ATOM      7  C   UNL     1      49.082   5.268  17.706  0.00  0.00    +0.000 C 
ATOM      8  C   UNL     1      50.448   4.796  18.223  0.00  0.00    +0.000 C 
ATOM      9  C   UNL     1      50.921   3.512  17.543  0.00  0.00    +0.000 C 
ATOM     10  N   UNL     1      49.935   2.438  17.665  0.00  0.00    +0.000 NA
ATOM     11  C   UNL     1      48.660   2.826  17.056  0.00  0.00    +0.000 C 
ATOM     12  C   UNL     1      48.085   4.099  17.681  0.00  0.00    +0.000 C 
ATOM     13  H   UNL     1      49.784   2.225  18.649  0.00  0.00    +0.000 HD
ENDBRANCH   5   7
BRANCH   1  14
ATOM     14  C   UNL     1      46.947   6.975  13.433  0.00  0.00    +0.000 C 
ATOM     15  C   UNL     1      46.427   8.373  13.134  0.00  0.00    +0.000 C 
ATOM     16  C   UNL     1      47.220   7.650  12.097  0.00  0.00    +0.000 C 
BRANCH  14  22
ATOM     17 CL   UNL     1      44.398   2.348   9.283  0.00  0.00    +0.000 Cl
ATOM     18  C   UNL     1      44.822   3.420  10.543  0.00  0.00    +0.000 A 
ATOM     19  C   UNL     1      44.736   3.073  11.869  0.00  0.00    +0.000 A 
ATOM     20  N   UNL     1      45.088   3.896  12.884  0.00  0.00    +0.000 NA
ATOM     21  C   UNL     1      45.548   5.113  12.548  0.00  0.00    +0.000 A 
ATOM     22  N   UNL     1      45.918   5.940  13.607  0.00  0.00    +0.000 N 
ATOM     23  N   UNL     1      45.661   5.539  11.279  0.00  0.00    +0.000 NA
ATOM     24  C   UNL     1      45.289   4.686  10.301  0.00  0.00    +0.000 A 
ATOM     25  H   UNL     1      45.965   5.354  14.430  0.00  0.00    +0.000 HD
ENDBRANCH  14  22
ENDBRANCH   1  14
TORSDOF 3
ENDMDL
MODEL 6
REMARK VINA RESULT:    -5.456      4.753      7.675
REMARK INTER + INTRA:          -6.975
REMARK INTER:                  -6.651
REMARK INTRA:                  -0.324
REMARK UNBOUND:                -0.561
REMARK  Name = 
REMARK  3 active torsions:
REMARK  status: ('A' for Active; 'I' for Inactive)
REMARK    1  A    between atoms: N_6  and  C_7
REMARK    2  A    between atoms: C_7  and  C_8
REMARK    3  A    between atoms: C_12  and  C_13
REMARK                            x       y       z     vdW  Elec       q    Type
REMARK                         _______ _______ _______ _____ _____    ______ ____
ROOT
ATOM      1  C   UNL     1      48.497   5.817  16.302  0.00  0.00    +0.000 A 
ATOM      2  C   UNL     1      49.434   6.856  16.260  0.00  0.00    +0.000 A 
ATOM      3  C   UNL     1      49.667   7.511  15.066  0.00  0.00    +0.000 A 
ATOM      4  N   UNL     1      49.028   7.218  13.917  0.00  0.00    +0.000 NA
ATOM      5  C   UNL     1      48.099   6.237  13.946  0.00  0.00    +0.000 A 
ATOM      6  C   UNL     1      47.811   5.530  15.113  0.00  0.00    +0.000 A 
ENDROOT
BRANCH   5   7
ATOM      7  C   UNL     1      47.388   5.865  12.655  0.00  0.00    +0.000 C 
ATOM      8  C   UNL     1      47.016   7.105  11.828  0.00  0.00    +0.000 C 
ATOM      9  C   UNL     1      45.752   7.794  12.342  0.00  0.00    +0.000 C 
ATOM     10  N   UNL     1      44.619   6.871  12.407  0.00  0.00    +0.000 NA
ATOM     11  C   UNL     1      44.911   5.746  13.299  0.00  0.00    +0.000 C 
ATOM     12  C   UNL     1      46.156   4.970  12.862  0.00  0.00    +0.000 C 
ATOM     13  H   UNL     1      44.416   6.515  11.475  0.00  0.00    +0.000 HD
ENDBRANCH   5   7
BRANCH   1  14
ATOM     14  C   UNL     1      48.264   5.021  17.579  0.00  0.00    +0.000 C 
ATOM     15  C   UNL     1      46.971   5.212  18.358  0.00  0.00    +0.000 C 
ATOM     16  C   UNL     1      47.145   3.993  17.516  0.00  0.00    +0.000 C 
BRANCH  14  22
ATOM     17 CL   UNL     1      53.365   0.665  17.225  0.00  0.00    +0.000 Cl
ATOM     18  C   UNL     1      52.210   1.870  17.586  0.00  0.00    +0.000 A 
ATOM     19  C   UNL     1      52.543   3.055  18.195  0.00  0.00    +0.000 A 
ATOM     20  N   UNL     1      51.650   4.034  18.470  0.00  0.00    +0.000 NA
ATOM     21  C   UNL     1      50.374   3.810  18.114  0.00  0.00    +0.000 A 
ATOM     22  N   UNL     1      49.473   4.835  18.395  0.00  0.00    +0.000 N 
ATOM     23  N   UNL     1      49.958   2.679  17.520  0.00  0.00    +0.000 NA
ATOM     24  C   UNL     1      50.882   1.728  17.274  0.00  0.00    +0.000 A 
ATOM     25  H   UNL     1      50.024   5.652  18.623  0.00  0.00    +0.000 HD
ENDBRANCH  14  22
ENDBRANCH   1  14
TORSDOF 3
ENDMDL
MODEL 7
REMARK VINA RESULT:    -5.393      4.466      7.757
REMARK INTER + INTRA:          -6.900
REMARK INTER:                  -7.322
REMARK INTRA:                   0.422
REMARK UNBOUND:                -0.561
REMARK  Name = 
REMARK  3 active torsions:
REMARK  status: ('A' for Active; 'I' for Inactive)
REMARK    1  A    between atoms: N_6  and  C_7
REMARK    2  A    between atoms: C_7  and  C_8
REMARK    3  A    between atoms: C_12  and  C_13
REMARK                            x       y       z     vdW  Elec       q    Type
REMARK                         _______ _______ _______ _____ _____    ______ ____
ROOT
ATOM      1  C   UNL     1      47.672   5.224  15.134  0.00  0.00    +0.000 A 
ATOM      2  C   UNL     1      48.292   6.403  14.705  0.00  0.00    +0.000 A 
ATOM      3  C   UNL     1      47.977   6.921  13.463  0.00  0.00    +0.000 A 
ATOM      4  N   UNL     1      47.082   6.361  12.627  0.00  0.00    +0.000 NA
ATOM      5  C   UNL     1      46.452   5.239  13.038  0.00  0.00    +0.000 A 
ATOM      6  C   UNL     1      46.720   4.656  14.276  0.00  0.00    +0.000 A 
ENDROOT
BRANCH   5   7
ATOM      7  C   UNL     1      45.463   4.569  12.097  0.00  0.00    +0.000 C 
ATOM      8  C   UNL     1      45.028   5.507  10.962  0.00  0.00    +0.000 C 
ATOM      9  C   UNL     1      43.956   6.503  11.402  0.00  0.00    +0.000 C 
ATOM     10  N   UNL     1      42.791   5.829  11.975  0.00  0.00    +0.000 NA
ATOM     11  C   UNL     1      43.171   5.032  13.144  0.00  0.00    +0.000 C 
ATOM     12  C   UNL     1      44.233   3.983  12.808  0.00  0.00    +0.000 C 
ATOM     13  H   UNL     1      42.373   5.220  11.276  0.00  0.00    +0.000 HD
ENDBRANCH   5   7
BRANCH   1  14
ATOM     14  C   UNL     1      48.045   4.581  16.463  0.00  0.00    +0.000 C 
ATOM     15  C   UNL     1      46.957   3.972  17.335  0.00  0.00    +0.000 C 
ATOM     16  C   UNL     1      47.846   3.075  16.542  0.00  0.00    +0.000 C 
BRANCH  14  22
ATOM     17 CL   UNL     1      54.393   2.927  17.912  0.00  0.00    +0.000 Cl
ATOM     18  C   UNL     1      52.837   3.606  17.724  0.00  0.00    +0.000 A 
ATOM     19  C   UNL     1      52.625   4.961  17.664  0.00  0.00    +0.000 A 
ATOM     20  N   UNL     1      51.405   5.523  17.492  0.00  0.00    +0.000 NA
ATOM     21  C   UNL     1      50.361   4.685  17.374  0.00  0.00    +0.000 A 
ATOM     22  N   UNL     1      49.117   5.282  17.185  0.00  0.00    +0.000 N 
ATOM     23  N   UNL     1      50.475   3.347  17.427  0.00  0.00    +0.000 NA
ATOM     24  C   UNL     1      51.710   2.834  17.608  0.00  0.00    +0.000 A 
ATOM     25  H   UNL     1      49.292   6.251  16.955  0.00  0.00    +0.000 HD
ENDBRANCH  14  22
ENDBRANCH   1  14
TORSDOF 3
ENDMDL
MODEL 8
REMARK VINA RESULT:    -5.068      3.046      6.708
REMARK INTER + INTRA:          -6.519
REMARK INTER:                  -6.996
REMARK INTRA:                   0.477
REMARK UNBOUND:                -0.561
REMARK  Name = 
REMARK  3 active torsions:
REMARK  status: ('A' for Active; 'I' for Inactive)
REMARK    1  A    between atoms: N_6  and  C_7
REMARK    2  A    between atoms: C_7  and  C_8
REMARK    3  A    between atoms: C_12  and  C_13
REMARK                            x       y       z     vdW  Elec       q    Type
REMARK                         _______ _______ _______ _____ _____    ______ ____
ROOT
ATOM      1  C   UNL     1      47.476   6.193  14.016  0.00  0.00    +0.000 A 
ATOM      2  C   UNL     1      47.576   5.038  14.799  0.00  0.00    +0.000 A 
ATOM      3  C   UNL     1      46.927   3.887  14.397  0.00  0.00    +0.000 A 
ATOM      4  N   UNL     1      46.199   3.798  13.267  0.00  0.00    +0.000 NA
ATOM      5  C   UNL     1      46.115   4.895  12.484  0.00  0.00    +0.000 A 
ATOM      6  C   UNL     1      46.741   6.094  12.827  0.00  0.00    +0.000 A 
ENDROOT
BRANCH   5   7
ATOM      7  C   UNL     1      45.271   4.830  11.220  0.00  0.00    +0.000 C 
ATOM      8  C   UNL     1      44.088   5.807  11.272  0.00  0.00    +0.000 C 
ATOM      9  C   UNL     1      42.919   5.270  12.097  0.00  0.00    +0.000 C 
ATOM     10  N   UNL     1      42.474   3.961  11.619  0.00  0.00    +0.000 NA
ATOM     11  C   UNL     1      43.561   2.981  11.688  0.00  0.00    +0.000 C 
ATOM     12  C   UNL     1      44.782   3.415  10.875  0.00  0.00    +0.000 C 
ATOM     13  H   UNL     1      42.156   4.041  10.655  0.00  0.00    +0.000 HD
ENDBRANCH   5   7
BRANCH   1  14
ATOM     14  C   UNL     1      48.114   7.502  14.462  0.00  0.00    +0.000 C 
ATOM     15  C   UNL     1      48.870   7.558  15.781  0.00  0.00    +0.000 C 
ATOM     16  C   UNL     1      49.635   7.510  14.501  0.00  0.00    +0.000 C 
BRANCH  14  22
ATOM     17 CL   UNL     1      48.507  12.017   9.503  0.00  0.00    +0.000 Cl
ATOM     18  C   UNL     1      48.176  11.060  10.879  0.00  0.00    +0.000 A 
ATOM     19  C   UNL     1      46.913  10.930  11.402  0.00  0.00    +0.000 A 
ATOM     20  N   UNL     1      46.622  10.160  12.476  0.00  0.00    +0.000 NA
ATOM     21  C   UNL     1      47.642   9.492  13.040  0.00  0.00    +0.000 A 
ATOM     22  N   UNL     1      47.319   8.695  14.136  0.00  0.00    +0.000 N 
ATOM     23  N   UNL     1      48.909   9.564  12.598  0.00  0.00    +0.000 NA
ATOM     24  C   UNL     1      49.153  10.353  11.531  0.00  0.00    +0.000 A 
ATOM     25  H   UNL     1      46.311   8.614  14.149  0.00  0.00    +0.000 HD
ENDBRANCH  14  22
ENDBRANCH   1  14
TORSDOF 3
ENDMDL
MODEL 9
REMARK VINA RESULT:    -5.037      4.587      7.386
REMARK INTER + INTRA:          -6.482
REMARK INTER:                  -5.909
REMARK INTRA:                  -0.574
REMARK UNBOUND:                -0.561
REMARK  Name = 
REMARK  3 active torsions:
REMARK  status: ('A' for Active; 'I' for Inactive)
REMARK    1  A    between atoms: N_6  and  C_7
REMARK    2  A    between atoms: C_7  and  C_8
REMARK    3  A    between atoms: C_12  and  C_13
REMARK                            x       y       z     vdW  Elec       q    Type
REMARK                         _______ _______ _______ _____ _____    ______ ____
ROOT
ATOM      1  C   UNL     1      47.679   7.828  12.103  0.00  0.00    +0.000 A 
ATOM      2  C   UNL     1      46.993   6.639  11.830  0.00  0.00    +0.000 A 
ATOM      3  C   UNL     1      45.624   6.674  11.645  0.00  0.00    +0.000 A 
ATOM      4  N   UNL     1      44.893   7.803  11.698  0.00  0.00    +0.000 NA
ATOM      5  C   UNL     1      45.543   8.964  11.931  0.00  0.00    +0.000 A 
ATOM      6  C   UNL     1      46.923   9.008  12.130  0.00  0.00    +0.000 A 
ENDROOT
BRANCH   5   7
ATOM      7  C   UNL     1      44.735  10.249  12.029  0.00  0.00    +0.000 C 
ATOM      8  C   UNL     1      43.487  10.208  11.136  0.00  0.00    +0.000 C 
ATOM      9  C   UNL     1      43.804  10.504   9.670  0.00  0.00    +0.000 C 
ATOM     10  N   UNL     1      44.498  11.782   9.512  0.00  0.00    +0.000 NA
ATOM     11  C   UNL     1      45.761  11.787  10.255  0.00  0.00    +0.000 C 
ATOM     12  C   UNL     1      45.554  11.518  11.747  0.00  0.00    +0.000 C 
ATOM     13  H   UNL     1      43.906  12.536   9.854  0.00  0.00    +0.000 HD
ENDBRANCH   5   7
BRANCH   1  14
ATOM     14  C   UNL     1      49.175   7.823  12.385  0.00  0.00    +0.000 C 
ATOM     15  C   UNL     1      50.159   7.923  11.229  0.00  0.00    +0.000 C 
ATOM     16  C   UNL     1      49.905   9.122  12.080  0.00  0.00    +0.000 C 
BRANCH  14  22
ATOM     17 CL   UNL     1      48.079   7.956  19.012  0.00  0.00    +0.000 Cl
ATOM     18  C   UNL     1      48.542   7.668  17.393  0.00  0.00    +0.000 A 
ATOM     19  C   UNL     1      48.753   6.404  16.899  0.00  0.00    +0.000 A 
ATOM     20  N   UNL     1      49.098   6.149  15.615  0.00  0.00    +0.000 NA
ATOM     21  C   UNL     1      49.230   7.209  14.799  0.00  0.00    +0.000 A 
ATOM     22  N   UNL     1      49.573   6.924  13.479  0.00  0.00    +0.000 N 
ATOM     23  N   UNL     1      49.049   8.479  15.199  0.00  0.00    +0.000 NA
ATOM     24  C   UNL     1      48.716   8.684  16.490  0.00  0.00    +0.000 A 
ATOM     25  H   UNL     1      49.437   5.930  13.352  0.00  0.00    +0.000 HD
ENDBRANCH  14  22
ENDBRANCH   1  14
TORSDOF 3
ENDMDL
