MODEL 1
REMARK VINA RESULT:    -8.225      0.000      0.000
REMARK INTER + INTRA:         -11.712
REMARK INTER:                 -10.630
REMARK INTRA:                  -1.083
REMARK UNBOUND:                -1.083
REMARK  Name = 
REMARK  5 active torsions:
REMARK  status: ('A' for Active; 'I' for Inactive)
REMARK    1  A    between atoms: C_2  and  C_19
REMARK    2  A    between atoms: N_3  and  C_4
REMARK    3  A    between atoms: C_4  and  C_5
REMARK    4  A    between atoms: C_8  and  C_9
REMARK    5  A    between atoms: C_9  and  N_10
REMARK                            x       y       z     vdW  Elec       q    Type
REMARK                         _______ _______ _______ _____ _____    ______ ____
ROOT
ATOM      1  C   UNL     1      47.246   8.501  13.159  0.00  0.00    +0.000 C 
ENDROOT
BRANCH   1   2
ATOM      2  C   UNL     1      46.386   7.447  12.509  0.00  0.00    +0.000 A 
ATOM      3  C   UNL     1      46.910   6.633  11.497  0.00  0.00    +0.000 A 
ATOM      4  C   UNL     1      46.111   5.671  10.876  0.00  0.00    +0.000 A 
ATOM      5  C   UNL     1      44.763   5.524  11.229  0.00  0.00    +0.000 A 
ATOM      6  C   UNL     1      44.231   6.352  12.228  0.00  0.00    +0.000 A 
ATOM      7  C   UNL     1      45.033   7.310  12.855  0.00  0.00    +0.000 A 
BRANCH   5   8
ATOM      8  C   UNL     1      43.898   4.498  10.533  0.00  0.00    +0.000 C 
BRANCH   8   9
ATOM      9  N   UNL     1      44.011   4.639   9.098  0.00  0.00    +0.000 N 
ATOM     10  C   UNL     1      44.901   3.728   8.541  0.00  0.00    +0.000 A 
ATOM     11  N   UNL     1      45.042   2.510   9.082  0.00  0.00    +0.000 NA
ATOM     12  C   UNL     1      45.921   1.669   8.514  0.00  0.00    +0.000 A 
ATOM     13  C   UNL     1      46.677   2.004   7.419  0.00  0.00    +0.000 A 
ATOM     14  C   UNL     1      46.472   3.272   6.937  0.00  0.00    +0.000 A 
ATOM     15  N   UNL     1      45.602   4.150   7.478  0.00  0.00    +0.000 NA
ATOM     16  H   UNL     1      44.280   5.555   8.764  0.00  0.00    +0.000 HD
ENDBRANCH   8   9
ENDBRANCH   5   8
ENDBRANCH   1   2
BRANCH   1  19
ATOM     17  O   UNL     1      49.537   6.945  13.858  0.00  0.00    +0.000 OA
ATOM     18  C   UNL     1      48.712   7.257  14.706  0.00  0.00    +0.000 C 
ATOM     19  N   UNL     1      47.627   8.071  14.474  0.00  0.00    +0.000 N 
ATOM     20  H   UNL     1      46.905   8.119  15.178  0.00  0.00    +0.000 HD
BRANCH  18  21
ATOM     21  C   UNL     1      48.640   6.641  16.024  0.00  0.00    +0.000 A 
ATOM     22  C   UNL     1      49.170   7.231  17.158  0.00  0.00    +0.000 A 
ATOM     23  S   UNL     1      49.422   6.084  18.410  0.00  0.00    +0.000 S 
ATOM     24  C   UNL     1      48.706   4.837  17.492  0.00  0.00    +0.000 A 
ATOM     25  N   UNL     1      48.707   3.537  17.892  0.00  0.00    +0.000 NA
ATOM     26  C   UNL     1      48.076   2.738  17.093  0.00  0.00    +0.000 A 
ATOM     27  N   UNL     1      47.399   3.124  15.961  0.00  0.00    +0.000 N 
ATOM     28  C   UNL     1      47.348   4.427  15.535  0.00  0.00    +0.000 A 
ATOM     29  O   UNL     1      46.662   4.773  14.580  0.00  0.00    +0.000 OA
ATOM     30  C   UNL     1      48.159   5.327  16.326  0.00  0.00    +0.000 A 
ATOM     31  H   UNL     1      46.849   2.462  15.432  0.00  0.00    +0.000 HD
ENDBRANCH  18  21
ENDBRANCH   1  19
TORSDOF 5
ENDMDL
MODEL 2
REMARK VINA RESULT:    -7.737      1.440      1.819
REMARK INTER + INTRA:         -11.081
REMARK INTER:                 -10.152
REMARK INTRA:                  -0.929
REMARK UNBOUND:                -1.083
REMARK  Name = 
REMARK  5 active torsions:
REMARK  status: ('A' for Active; 'I' for Inactive)
REMARK    1  A    between atoms: C_2  and  C_19
REMARK    2  A    between atoms: N_3  and  C_4
REMARK    3  A    between atoms: C_4  and  C_5
REMARK    4  A    between atoms: C_8  and  C_9
REMARK    5  A    between atoms: C_9  and  N_10
REMARK                            x       y       z     vdW  Elec       q    Type
REMARK                         _______ _______ _______ _____ _____    ______ ____
ROOT
ATOM      1  C   UNL     1      48.463   6.666  13.616  0.00  0.00    +0.000 C 
ENDROOT
BRANCH   1   2
ATOM      2  C   UNL     1      47.263   6.115  12.887  0.00  0.00    +0.000 A 
ATOM      3  C   UNL     1      46.627   4.956  13.348  0.00  0.00    +0.000 A 
ATOM      4  C   UNL     1      45.530   4.430  12.663  0.00  0.00    +0.000 A 
ATOM      5  C   UNL     1      45.066   5.030  11.485  0.00  0.00    +0.000 A 
ATOM      6  C   UNL     1      45.714   6.180  11.010  0.00  0.00    +0.000 A 
ATOM      7  C   UNL     1      46.808   6.710  11.700  0.00  0.00    +0.000 A 
BRANCH   5   8
ATOM      8  C   UNL     1      43.894   4.438  10.736  0.00  0.00    +0.000 C 
BRANCH   8   9
ATOM      9  N   UNL     1      44.037   4.675   9.316  0.00  0.00    +0.000 N 
ATOM     10  C   UNL     1      44.893   3.765   8.707  0.00  0.00    +0.000 A 
ATOM     11  N   UNL     1      44.970   2.507   9.161  0.00  0.00    +0.000 NA
ATOM     12  C   UNL     1      45.820   1.669   8.546  0.00  0.00    +0.000 A 
ATOM     13  C   UNL     1      46.608   2.045   7.488  0.00  0.00    +0.000 A 
ATOM     14  C   UNL     1      46.468   3.352   7.095  0.00  0.00    +0.000 A 
ATOM     15  N   UNL     1      45.631   4.228   7.686  0.00  0.00    +0.000 NA
ATOM     16  H   UNL     1      44.353   5.599   9.051  0.00  0.00    +0.000 HD
ENDBRANCH   8   9
ENDBRANCH   5   8
ENDBRANCH   1   2
BRANCH   1  19
ATOM     17  O   UNL     1      50.255   7.360  15.729  0.00  0.00    +0.000 OA
ATOM     18  C   UNL     1      49.068   7.167  15.955  0.00  0.00    +0.000 C 
ATOM     19  N   UNL     1      48.124   6.912  14.988  0.00  0.00    +0.000 N 
ATOM     20  H   UNL     1      47.215   6.582  15.281  0.00  0.00    +0.000 HD
BRANCH  18  21
ATOM     21  C   UNL     1      48.525   6.970  17.293  0.00  0.00    +0.000 A 
ATOM     22  C   UNL     1      48.121   8.018  18.100  0.00  0.00    +0.000 A 
ATOM     23  S   UNL     1      48.049   7.553  19.751  0.00  0.00    +0.000 S 
ATOM     24  C   UNL     1      48.425   5.932  19.372  0.00  0.00    +0.000 A 
ATOM     25  N   UNL     1      48.668   4.993  20.325  0.00  0.00    +0.000 NA
ATOM     26  C   UNL     1      48.889   3.807  19.854  0.00  0.00    +0.000 A 
ATOM     27  N   UNL     1      48.837   3.463  18.525  0.00  0.00    +0.000 N 
ATOM     28  C   UNL     1      48.568   4.372  17.532  0.00  0.00    +0.000 A 
ATOM     29  O   UNL     1      48.429   4.035  16.362  0.00  0.00    +0.000 OA
ATOM     30  C   UNL     1      48.455   5.733  18.009  0.00  0.00    +0.000 A 
ATOM     31  H   UNL     1      48.928   2.501  18.232  0.00  0.00    +0.000 HD
ENDBRANCH  18  21
ENDBRANCH   1  19
TORSDOF 5
ENDMDL
MODEL 3
REMARK VINA RESULT:    -7.477      1.881      2.590
REMARK INTER + INTRA:         -10.745
REMARK INTER:                  -9.924
REMARK INTRA:                  -0.821
REMARK UNBOUND:                -1.083
REMARK  Name = 
REMARK  5 active torsions:
REMARK  status: ('A' for Active; 'I' for Inactive)
REMARK    1  A    between atoms: C_2  and  C_19
REMARK    2  A    between atoms: N_3  and  C_4
REMARK    3  A    between atoms: C_4  and  C_5
REMARK    4  A    between atoms: C_8  and  C_9
REMARK    5  A    between atoms: C_9  and  N_10
REMARK                            x       y       z     vdW  Elec       q    Type
REMARK                         _______ _______ _______ _____ _____    ______ ____
ROOT
ATOM      1  C   UNL     1      47.796   7.319  13.691  0.00  0.00    +0.000 C 
ENDROOT
BRANCH   1   2
ATOM      2  C   UNL     1      46.752   6.547  12.923  0.00  0.00    +0.000 A 
ATOM      3  C   UNL     1      46.407   5.246  13.312  0.00  0.00    +0.000 A 
ATOM      4  C   UNL     1      45.458   4.519  12.591  0.00  0.00    +0.000 A 
ATOM      5  C   UNL     1      44.858   5.063  11.447  0.00  0.00    +0.000 A 
ATOM      6  C   UNL     1      45.216   6.357  11.045  0.00  0.00    +0.000 A 
ATOM      7  C   UNL     1      46.161   7.088  11.771  0.00  0.00    +0.000 A 
BRANCH   5   8
ATOM      8  C   UNL     1      43.851   4.258  10.657  0.00  0.00    +0.000 C 
BRANCH   8   9
ATOM      9  N   UNL     1      44.005   4.514   9.242  0.00  0.00    +0.000 N 
ATOM     10  C   UNL     1      44.910   3.649   8.639  0.00  0.00    +0.000 A 
ATOM     11  N   UNL     1      45.036   2.392   9.084  0.00  0.00    +0.000 NA
ATOM     12  C   UNL     1      45.932   1.597   8.476  0.00  0.00    +0.000 A 
ATOM     13  C   UNL     1      46.719   2.018   7.434  0.00  0.00    +0.000 A 
ATOM     14  C   UNL     1      46.528   3.321   7.049  0.00  0.00    +0.000 A 
ATOM     15  N   UNL     1      45.642   4.154   7.635  0.00  0.00    +0.000 NA
ATOM     16  H   UNL     1      44.283   5.454   8.991  0.00  0.00    +0.000 HD
ENDBRANCH   8   9
ENDBRANCH   5   8
ENDBRANCH   1   2
BRANCH   1  19
ATOM     17  O   UNL     1      50.191   6.833  15.169  0.00  0.00    +0.000 OA
ATOM     18  C   UNL     1      49.100   6.528  15.631  0.00  0.00    +0.000 C 
ATOM     19  N   UNL     1      47.895   6.802  15.025  0.00  0.00    +0.000 N 
ATOM     20  H   UNL     1      47.066   6.350  15.384  0.00  0.00    +0.000 HD
BRANCH  18  21
ATOM     21  C   UNL     1      48.929   5.648  16.779  0.00  0.00    +0.000 A 
ATOM     22  C   UNL     1      48.433   4.362  16.670  0.00  0.00    +0.000 A 
ATOM     23  S   UNL     1      47.844   3.781  18.175  0.00  0.00    +0.000 S 
ATOM     24  C   UNL     1      48.370   5.185  18.989  0.00  0.00    +0.000 A 
ATOM     25  N   UNL     1      48.070   5.435  20.292  0.00  0.00    +0.000 NA
ATOM     26  C   UNL     1      48.593   6.523  20.756  0.00  0.00    +0.000 A 
ATOM     27  N   UNL     1      49.431   7.358  20.056  0.00  0.00    +0.000 N 
ATOM     28  C   UNL     1      49.783   7.131  18.749  0.00  0.00    +0.000 A 
ATOM     29  O   UNL     1      50.606   7.828  18.166  0.00  0.00    +0.000 OA
ATOM     30  C   UNL     1      49.105   5.999  18.156  0.00  0.00    +0.000 A 
ATOM     31  H   UNL     1      49.880   8.144  20.506  0.00  0.00    +0.000 HD
ENDBRANCH  18  21
ENDBRANCH   1  19
TORSDOF 5
ENDMDL
MODEL 4
REMARK VINA RESULT:    -7.205      3.148      5.111
REMARK INTER + INTRA:         -10.393
REMARK INTER:                  -9.418
REMARK INTRA:                  -0.975
REMARK UNBOUND:                -1.083
REMARK  Name = 
REMARK  5 active torsions:
REMARK  status: ('A' for Active; 'I' for Inactive)
REMARK    1  A    between atoms: C_2  and  C_19
REMARK    2  A    between atoms: N_3  and  C_4
REMARK    3  A    between atoms: C_4  and  C_5
REMARK    4  A    between atoms: C_8  and  C_9
REMARK    5  A    between atoms: C_9  and  N_10
REMARK                            x       y       z     vdW  Elec       q    Type
REMARK                         _______ _______ _______ _____ _____    ______ ____
ROOT
ATOM      1  C   UNL     1      47.973   6.315  13.881  0.00  0.00    +0.000 C 
ENDROOT
BRANCH   1   2
ATOM      2  C   UNL     1      46.939   5.658  13.002  0.00  0.00    +0.000 A 
ATOM      3  C   UNL     1      46.464   6.313  11.859  0.00  0.00    +0.000 A 
ATOM      4  C   UNL     1      45.490   5.719  11.055  0.00  0.00    +0.000 A 
ATOM      5  C   UNL     1      44.946   4.472  11.392  0.00  0.00    +0.000 A 
ATOM      6  C   UNL     1      45.407   3.823  12.546  0.00  0.00    +0.000 A 
ATOM      7  C   UNL     1      46.387   4.415  13.347  0.00  0.00    +0.000 A 
BRANCH   5   8
ATOM      8  C   UNL     1      43.873   3.848  10.529  0.00  0.00    +0.000 C 
BRANCH   8   9
ATOM      9  N   UNL     1      44.056   4.232   9.146  0.00  0.00    +0.000 N 
ATOM     10  C   UNL     1      45.024   3.469   8.505  0.00  0.00    +0.000 A 
ATOM     11  N   UNL     1      45.204   2.187   8.846  0.00  0.00    +0.000 NA
ATOM     12  C   UNL     1      46.159   1.494   8.204  0.00  0.00    +0.000 A 
ATOM     13  C   UNL     1      46.954   2.042   7.229  0.00  0.00    +0.000 A 
ATOM     14  C   UNL     1      46.704   3.363   6.949  0.00  0.00    +0.000 A 
ATOM     15  N   UNL     1      45.758   4.095   7.572  0.00  0.00    +0.000 NA
ATOM     16  H   UNL     1      44.291   5.203   8.985  0.00  0.00    +0.000 HD
ENDBRANCH   8   9
ENDBRANCH   5   8
ENDBRANCH   1   2
BRANCH   1  19
ATOM     17  O   UNL     1      49.809   8.368  14.640  0.00  0.00    +0.000 OA
ATOM     18  C   UNL     1      49.793   7.937  13.495  0.00  0.00    +0.000 C 
ATOM     19  N   UNL     1      49.002   6.896  13.067  0.00  0.00    +0.000 N 
ATOM     20  H   UNL     1      48.917   6.736  12.073  0.00  0.00    +0.000 HD
BRANCH  18  21
ATOM     21  C   UNL     1      50.447   8.601  12.375  0.00  0.00    +0.000 A 
ATOM     22  C   UNL     1      51.754   8.336  12.007  0.00  0.00    +0.000 A 
ATOM     23  S   UNL     1      52.412   9.604  11.054  0.00  0.00    +0.000 S 
ATOM     24  C   UNL     1      50.921  10.434  11.024  0.00  0.00    +0.000 A 
ATOM     25  N   UNL     1      50.786  11.681  10.498  0.00  0.00    +0.000 NA
ATOM     26  C   UNL     1      49.574  12.133  10.517  0.00  0.00    +0.000 A 
ATOM     27  N   UNL     1      48.477  11.436  10.965  0.00  0.00    +0.000 N 
ATOM     28  C   UNL     1      48.563  10.166  11.478  0.00  0.00    +0.000 A 
ATOM     29  O   UNL     1      47.568   9.519  11.782  0.00  0.00    +0.000 OA
ATOM     30  C   UNL     1      49.921   9.683  11.600  0.00  0.00    +0.000 A 
ATOM     31  H   UNL     1      47.545  11.813  10.867  0.00  0.00    +0.000 HD
ENDBRANCH  18  21
ENDBRANCH   1  19
TORSDOF 5
ENDMDL
MODEL 5
REMARK VINA RESULT:    -6.998      2.920      7.873
REMARK INTER + INTRA:         -10.126
REMARK INTER:                  -9.190
REMARK INTRA:                  -0.936
REMARK UNBOUND:                -1.083
REMARK  Name = 
REMARK  5 active torsions:
REMARK  status: ('A' for Active; 'I' for Inactive)
REMARK    1  A    between atoms: C_2  and  C_19
REMARK    2  A    between atoms: N_3  and  C_4
REMARK    3  A    between atoms: C_4  and  C_5
REMARK    4  A    between atoms: C_8  and  C_9
REMARK    5  A    between atoms: C_9  and  N_10
REMARK                            x       y       z     vdW  Elec       q    Type
REMARK                         _______ _______ _______ _____ _____    ______ ____
ROOT
ATOM      1  C   UNL     1      47.982   6.988  12.133  0.00  0.00    +0.000 C 
ENDROOT
BRANCH   1   2
ATOM      2  C   UNL     1      48.176   6.556  13.564  0.00  0.00    +0.000 A 
ATOM      3  C   UNL     1      47.440   5.484  14.084  0.00  0.00    +0.000 A 
ATOM      4  C   UNL     1      47.598   5.095  15.416  0.00  0.00    +0.000 A 
ATOM      5  C   UNL     1      48.471   5.789  16.265  0.00  0.00    +0.000 A 
ATOM      6  C   UNL     1      49.194   6.875  15.752  0.00  0.00    +0.000 A 
ATOM      7  C   UNL     1      49.040   7.259  14.417  0.00  0.00    +0.000 A 
BRANCH   5   8
ATOM      8  C   UNL     1      48.617   5.377  17.712  0.00  0.00    +0.000 C 
BRANCH   8   9
ATOM      9  N   UNL     1      48.586   3.935  17.829  0.00  0.00    +0.000 N 
ATOM     10  C   UNL     1      49.857   3.373  17.829  0.00  0.00    +0.000 A 
ATOM     11  N   UNL     1      50.886   4.041  18.367  0.00  0.00    +0.000 NA
ATOM     12  C   UNL     1      52.097   3.460  18.334  0.00  0.00    +0.000 A 
ATOM     13  C   UNL     1      52.321   2.228  17.773  0.00  0.00    +0.000 A 
ATOM     14  C   UNL     1      51.211   1.621  17.241  0.00  0.00    +0.000 A 
ATOM     15  N   UNL     1      49.979   2.170  17.249  0.00  0.00    +0.000 NA
ATOM     16  H   UNL     1      48.048   3.447  17.124  0.00  0.00    +0.000 HD
ENDBRANCH   8   9
ENDBRANCH   5   8
ENDBRANCH   1   2
BRANCH   1  19
ATOM     17  O   UNL     1      45.392   8.020  11.512  0.00  0.00    +0.000 OA
ATOM     18  C   UNL     1      45.644   6.832  11.360  0.00  0.00    +0.000 C 
ATOM     19  N   UNL     1      46.884   6.269  11.555  0.00  0.00    +0.000 N 
ATOM     20  H   UNL     1      46.952   5.262  11.589  0.00  0.00    +0.000 HD
BRANCH  18  21
ATOM     21  C   UNL     1      44.623   5.812  11.161  0.00  0.00    +0.000 A 
ATOM     22  C   UNL     1      43.507   5.700  11.971  0.00  0.00    +0.000 A 
ATOM     23  S   UNL     1      42.794   4.142  11.854  0.00  0.00    +0.000 S 
ATOM     24  C   UNL     1      43.889   3.669  10.634  0.00  0.00    +0.000 A 
ATOM     25  N   UNL     1      43.953   2.396  10.158  0.00  0.00    +0.000 NA
ATOM     26  C   UNL     1      44.808   2.232   9.202  0.00  0.00    +0.000 A 
ATOM     27  N   UNL     1      45.568   3.230   8.640  0.00  0.00    +0.000 N 
ATOM     28  C   UNL     1      45.516   4.533   9.070  0.00  0.00    +0.000 A 
ATOM     29  O   UNL     1      46.124   5.431   8.499  0.00  0.00    +0.000 OA
ATOM     30  C   UNL     1      44.674   4.726  10.230  0.00  0.00    +0.000 A 
ATOM     31  H   UNL     1      46.149   3.052   7.834  0.00  0.00    +0.000 HD
ENDBRANCH  18  21
ENDBRANCH   1  19
TORSDOF 5
ENDMDL
MODEL 6
REMARK VINA RESULT:    -6.996      2.483      3.659
REMARK INTER + INTRA:         -10.124
REMARK INTER:                  -9.206
REMARK INTRA:                  -0.917
REMARK UNBOUND:                -1.083
REMARK  Name = 
REMARK  5 active torsions:
REMARK  status: ('A' for Active; 'I' for Inactive)
REMARK    1  A    between atoms: C_2  and  C_19
REMARK    2  A    between atoms: N_3  and  C_4
REMARK    3  A    between atoms: C_4  and  C_5
REMARK    4  A    between atoms: C_8  and  C_9
REMARK    5  A    between atoms: C_9  and  N_10
REMARK                            x       y       z     vdW  Elec       q    Type
REMARK                         _______ _______ _______ _____ _____    ______ ____
ROOT
ATOM      1  C   UNL     1      47.634   5.421  14.504  0.00  0.00    +0.000 C 
ENDROOT
BRANCH   1   2
ATOM      2  C   UNL     1      46.626   5.072  13.438  0.00  0.00    +0.000 A 
ATOM      3  C   UNL     1      46.047   6.080  12.656  0.00  0.00    +0.000 A 
ATOM      4  C   UNL     1      45.097   5.764  11.684  0.00  0.00    +0.000 A 
ATOM      5  C   UNL     1      44.679   4.440  11.494  0.00  0.00    +0.000 A 
ATOM      6  C   UNL     1      45.243   3.432  12.289  0.00  0.00    +0.000 A 
ATOM      7  C   UNL     1      46.200   3.747  13.258  0.00  0.00    +0.000 A 
BRANCH   5   8
ATOM      8  C   UNL     1      43.630   4.111  10.457  0.00  0.00    +0.000 C 
BRANCH   8   9
ATOM      9  N   UNL     1      44.052   4.572   9.152  0.00  0.00    +0.000 N 
ATOM     10  C   UNL     1      44.996   3.734   8.570  0.00  0.00    +0.000 A 
ATOM     11  N   UNL     1      44.960   2.416   8.807  0.00  0.00    +0.000 NA
ATOM     12  C   UNL     1      45.899   1.648   8.230  0.00  0.00    +0.000 A 
ATOM     13  C   UNL     1      46.887   2.154   7.423  0.00  0.00    +0.000 A 
ATOM     14  C   UNL     1      46.850   3.514   7.241  0.00  0.00    +0.000 A 
ATOM     15  N   UNL     1      45.927   4.322   7.805  0.00  0.00    +0.000 NA
ATOM     16  H   UNL     1      44.430   5.510   9.117  0.00  0.00    +0.000 HD
ENDBRANCH   8   9
ENDBRANCH   5   8
ENDBRANCH   1   2
BRANCH   1  19
ATOM     17  O   UNL     1      50.063   6.917  14.640  0.00  0.00    +0.000 OA
ATOM     18  C   UNL     1      48.979   7.477  14.736  0.00  0.00    +0.000 C 
ATOM     19  N   UNL     1      47.764   6.847  14.598  0.00  0.00    +0.000 N 
ATOM     20  H   UNL     1      46.932   7.345  14.878  0.00  0.00    +0.000 HD
BRANCH  18  21
ATOM     21  C   UNL     1      48.818   8.842  15.219  0.00  0.00    +0.000 A 
ATOM     22  C   UNL     1      48.781   9.936  14.374  0.00  0.00    +0.000 A 
ATOM     23  S   UNL     1      49.126  11.395  15.212  0.00  0.00    +0.000 S 
ATOM     24  C   UNL     1      49.193  10.585  16.713  0.00  0.00    +0.000 A 
ATOM     25  N   UNL     1      49.587  11.198  17.861  0.00  0.00    +0.000 NA
ATOM     26  C   UNL     1      49.529  10.443  18.910  0.00  0.00    +0.000 A 
ATOM     27  N   UNL     1      49.064   9.149  18.928  0.00  0.00    +0.000 N 
ATOM     28  C   UNL     1      48.631   8.500  17.799  0.00  0.00    +0.000 A 
ATOM     29  O   UNL     1      48.129   7.383  17.842  0.00  0.00    +0.000 OA
ATOM     30  C   UNL     1      48.813   9.267  16.585  0.00  0.00    +0.000 A 
ATOM     31  H   UNL     1      48.959   8.645  19.797  0.00  0.00    +0.000 HD
ENDBRANCH  18  21
ENDBRANCH   1  19
TORSDOF 5
ENDMDL
MODEL 7
REMARK VINA RESULT:    -6.952      3.110      4.811
REMARK INTER + INTRA:         -10.067
REMARK INTER:                  -9.163
REMARK INTRA:                  -0.904
REMARK UNBOUND:                -1.083
REMARK  Name = 
REMARK  5 active torsions:
REMARK  status: ('A' for Active; 'I' for Inactive)
REMARK    1  A    between atoms: C_2  and  C_19
REMARK    2  A    between atoms: N_3  and  C_4
REMARK    3  A    between atoms: C_4  and  C_5
REMARK    4  A    between atoms: C_8  and  C_9
REMARK    5  A    between atoms: C_9  and  N_10
REMARK                            x       y       z     vdW  Elec       q    Type
REMARK                         _______ _______ _______ _____ _____    ______ ____
ROOT
ATOM      1  C   UNL     1      47.867   6.212  14.164  0.00  0.00    +0.000 C 
ENDROOT
BRANCH   1   2
ATOM      2  C   UNL     1      46.893   5.682  13.143  0.00  0.00    +0.000 A 
ATOM      3  C   UNL     1      46.468   6.494  12.083  0.00  0.00    +0.000 A 
ATOM      4  C   UNL     1      45.549   6.015  11.148  0.00  0.00    +0.000 A 
ATOM      5  C   UNL     1      45.010   4.728  11.269  0.00  0.00    +0.000 A 
ATOM      6  C   UNL     1      45.419   3.920  12.339  0.00  0.00    +0.000 A 
ATOM      7  C   UNL     1      46.345   4.396  13.272  0.00  0.00    +0.000 A 
BRANCH   5   8
ATOM      8  C   UNL     1      43.995   4.227  10.266  0.00  0.00    +0.000 C 
BRANCH   8   9
ATOM      9  N   UNL     1      44.409   4.566   8.922  0.00  0.00    +0.000 N 
ATOM     10  C   UNL     1      45.300   3.642   8.390  0.00  0.00    +0.000 A 
ATOM     11  N   UNL     1      45.209   2.350   8.729  0.00  0.00    +0.000 NA
ATOM     12  C   UNL     1      46.099   1.497   8.196  0.00  0.00    +0.000 A 
ATOM     13  C   UNL     1      47.091   1.892   7.333  0.00  0.00    +0.000 A 
ATOM     14  C   UNL     1      47.112   3.235   7.047  0.00  0.00    +0.000 A 
ATOM     15  N   UNL     1      46.240   4.125   7.563  0.00  0.00    +0.000 NA
ATOM     16  H   UNL     1      44.828   5.480   8.807  0.00  0.00    +0.000 HD
ENDBRANCH   8   9
ENDBRANCH   5   8
ENDBRANCH   1   2
BRANCH   1  19
ATOM     17  O   UNL     1      47.913   8.935  15.024  0.00  0.00    +0.000 OA
ATOM     18  C   UNL     1      48.532   8.584  14.028  0.00  0.00    +0.000 C 
ATOM     19  N   UNL     1      48.632   7.283  13.593  0.00  0.00    +0.000 N 
ATOM     20  H   UNL     1      49.000   7.114  12.668  0.00  0.00    +0.000 HD
BRANCH  18  21
ATOM     21  C   UNL     1      49.071   9.515  13.046  0.00  0.00    +0.000 A 
ATOM     22  C   UNL     1      48.294  10.464  12.406  0.00  0.00    +0.000 A 
ATOM     23  S   UNL     1      49.038  11.023  10.963  0.00  0.00    +0.000 S 
ATOM     24  C   UNL     1      50.444  10.105  11.263  0.00  0.00    +0.000 A 
ATOM     25  N   UNL     1      51.454   9.992  10.359  0.00  0.00    +0.000 NA
ATOM     26  C   UNL     1      52.462   9.296  10.776  0.00  0.00    +0.000 A 
ATOM     27  N   UNL     1      52.577   8.746  12.030  0.00  0.00    +0.000 N 
ATOM     28  C   UNL     1      51.596   8.858  12.983  0.00  0.00    +0.000 A 
ATOM     29  O   UNL     1      51.750   8.448  14.128  0.00  0.00    +0.000 OA
ATOM     30  C   UNL     1      50.396   9.510  12.504  0.00  0.00    +0.000 A 
ATOM     31  H   UNL     1      53.430   8.292  12.324  0.00  0.00    +0.000 HD
ENDBRANCH  18  21
ENDBRANCH   1  19
TORSDOF 5
ENDMDL
MODEL 8
REMARK VINA RESULT:    -6.881      3.073      7.712
REMARK INTER + INTRA:          -9.975
REMARK INTER:                  -9.063
REMARK INTRA:                  -0.912
REMARK UNBOUND:                -1.083
REMARK  Name = 
REMARK  5 active torsions:
REMARK  status: ('A' for Active; 'I' for Inactive)
REMARK    1  A    between atoms: C_2  and  C_19
REMARK    2  A    between atoms: N_3  and  C_4
REMARK    3  A    between atoms: C_4  and  C_5
REMARK    4  A    between atoms: C_8  and  C_9
REMARK    5  A    between atoms: C_9  and  N_10
REMARK                            x       y       z     vdW  Elec       q    Type
REMARK                         _______ _______ _______ _____ _____    ______ ____
ROOT
ATOM      1  C   UNL     1      47.083   8.322  12.709  0.00  0.00    +0.000 C 
ENDROOT
BRANCH   1   2
ATOM      2  C   UNL     1      47.787   7.733  13.905  0.00  0.00    +0.000 A 
ATOM      3  C   UNL     1      47.832   6.344  14.085  0.00  0.00    +0.000 A 
ATOM      4  C   UNL     1      48.463   5.795  15.203  0.00  0.00    +0.000 A 
ATOM      5  C   UNL     1      49.032   6.621  16.181  0.00  0.00    +0.000 A 
ATOM      6  C   UNL     1      48.970   8.012  16.013  0.00  0.00    +0.000 A 
ATOM      7  C   UNL     1      48.345   8.561  14.890  0.00  0.00    +0.000 A 
BRANCH   5   8
ATOM      8  C   UNL     1      49.690   6.018  17.402  0.00  0.00    +0.000 C 
BRANCH   8   9
ATOM      9  N   UNL     1      49.275   4.642  17.566  0.00  0.00    +0.000 N 
ATOM     10  C   UNL     1      50.352   3.770  17.678  0.00  0.00    +0.000 A 
ATOM     11  N   UNL     1      51.485   4.176  18.266  0.00  0.00    +0.000 NA
ATOM     12  C   UNL     1      52.501   3.301  18.342  0.00  0.00    +0.000 A 
ATOM     13  C   UNL     1      52.429   2.025  17.842  0.00  0.00    +0.000 A 
ATOM     14  C   UNL     1      51.233   1.698  17.252  0.00  0.00    +0.000 A 
ATOM     15  N   UNL     1      50.190   2.547  17.151  0.00  0.00    +0.000 NA
ATOM     16  H   UNL     1      48.673   4.273  16.841  0.00  0.00    +0.000 HD
ENDBRANCH   8   9
ENDBRANCH   5   8
ENDBRANCH   1   2
BRANCH   1  19
ATOM     17  O   UNL     1      44.543   7.701  11.559  0.00  0.00    +0.000 OA
ATOM     18  C   UNL     1      45.524   7.012  11.314  0.00  0.00    +0.000 C 
ATOM     19  N   UNL     1      46.797   7.287  11.757  0.00  0.00    +0.000 N 
ATOM     20  H   UNL     1      47.502   6.569  11.666  0.00  0.00    +0.000 HD
BRANCH  18  21
ATOM     21  C   UNL     1      45.449   5.692  10.701  0.00  0.00    +0.000 A 
ATOM     22  C   UNL     1      45.787   5.458   9.380  0.00  0.00    +0.000 A 
ATOM     23  S   UNL     1      45.104   3.993   8.802  0.00  0.00    +0.000 S 
ATOM     24  C   UNL     1      44.475   3.611  10.341  0.00  0.00    +0.000 A 
ATOM     25  N   UNL     1      43.647   2.553  10.553  0.00  0.00    +0.000 NA
ATOM     26  C   UNL     1      43.307   2.388  11.791  0.00  0.00    +0.000 A 
ATOM     27  N   UNL     1      43.759   3.148  12.843  0.00  0.00    +0.000 N 
ATOM     28  C   UNL     1      44.617   4.207  12.679  0.00  0.00    +0.000 A 
ATOM     29  O   UNL     1      45.089   4.816  13.632  0.00  0.00    +0.000 OA
ATOM     30  C   UNL     1      44.907   4.507  11.294  0.00  0.00    +0.000 A 
ATOM     31  H   UNL     1      43.528   2.909  13.796  0.00  0.00    +0.000 HD
ENDBRANCH  18  21
ENDBRANCH   1  19
TORSDOF 5
ENDMDL
MODEL 9
REMARK VINA RESULT:    -6.722      2.749      3.561
REMARK INTER + INTRA:          -9.770
REMARK INTER:                  -9.045
REMARK INTRA:                  -0.725
REMARK UNBOUND:                -1.083
REMARK  Name = 
REMARK  5 active torsions:
REMARK  status: ('A' for Active; 'I' for Inactive)
REMARK    1  A    between atoms: C_2  and  C_19
REMARK    2  A    between atoms: N_3  and  C_4
REMARK    3  A    between atoms: C_4  and  C_5
REMARK    4  A    between atoms: C_8  and  C_9
REMARK    5  A    between atoms: C_9  and  N_10
REMARK                            x       y       z     vdW  Elec       q    Type
REMARK                         _______ _______ _______ _____ _____    ______ ____
ROOT
ATOM      1  C   UNL     1      45.510   8.049  12.903  0.00  0.00    +0.000 C 
ENDROOT
BRANCH   1   2
ATOM      2  C   UNL     1      45.282   6.729  12.211  0.00  0.00    +0.000 A 
ATOM      3  C   UNL     1      45.657   6.558  10.873  0.00  0.00    +0.000 A 
ATOM      4  C   UNL     1      45.427   5.345  10.222  0.00  0.00    +0.000 A 
ATOM      5  C   UNL     1      44.789   4.287  10.883  0.00  0.00    +0.000 A 
ATOM      6  C   UNL     1      44.395   4.462  12.217  0.00  0.00    +0.000 A 
ATOM      7  C   UNL     1      44.632   5.675  12.871  0.00  0.00    +0.000 A 
BRANCH   5   8
ATOM      8  C   UNL     1      44.521   2.986  10.162  0.00  0.00    +0.000 C 
BRANCH   8   9
ATOM      9  N   UNL     1      44.404   3.217   8.738  0.00  0.00    +0.000 N 
ATOM     10  C   UNL     1      45.427   2.615   8.015  0.00  0.00    +0.000 A 
ATOM     11  N   UNL     1      45.961   1.462   8.439  0.00  0.00    +0.000 NA
ATOM     12  C   UNL     1      46.954   0.925   7.712  0.00  0.00    +0.000 A 
ATOM     13  C   UNL     1      47.443   1.506   6.569  0.00  0.00    +0.000 A 
ATOM     14  C   UNL     1      46.842   2.687   6.214  0.00  0.00    +0.000 A 
ATOM     15  N   UNL     1      45.845   3.263   6.917  0.00  0.00    +0.000 NA
ATOM     16  H   UNL     1      44.370   4.186   8.450  0.00  0.00    +0.000 HD
ENDBRANCH   8   9
ENDBRANCH   5   8
ENDBRANCH   1   2
BRANCH   1  19
ATOM     17  O   UNL     1      47.708   9.870  13.007  0.00  0.00    +0.000 OA
ATOM     18  C   UNL     1      47.714   8.846  13.676  0.00  0.00    +0.000 C 
ATOM     19  N   UNL     1      46.665   7.959  13.750  0.00  0.00    +0.000 N 
ATOM     20  H   UNL     1      46.829   7.057  14.172  0.00  0.00    +0.000 HD
BRANCH  18  21
ATOM     21  C   UNL     1      48.906   8.312  14.320  0.00  0.00    +0.000 A 
ATOM     22  C   UNL     1      48.977   8.062  15.679  0.00  0.00    +0.000 A 
ATOM     23  S   UNL     1      50.603   7.967  16.222  0.00  0.00    +0.000 S 
ATOM     24  C   UNL     1      51.204   8.126  14.633  0.00  0.00    +0.000 A 
ATOM     25  N   UNL     1      52.529   8.269  14.360  0.00  0.00    +0.000 NA
ATOM     26  C   UNL     1      52.805   8.327  13.097  0.00  0.00    +0.000 A 
ATOM     27  N   UNL     1      51.888   8.203  12.081  0.00  0.00    +0.000 N 
ATOM     28  C   UNL     1      50.545   8.030  12.310  0.00  0.00    +0.000 A 
ATOM     29  O   UNL     1      49.751   7.823  11.399  0.00  0.00    +0.000 OA
ATOM     30  C   UNL     1      50.183   8.101  13.708  0.00  0.00    +0.000 A 
ATOM     31  H   UNL     1      52.181   8.165  11.115  0.00  0.00    +0.000 HD
ENDBRANCH  18  21
ENDBRANCH   1  19
TORSDOF 5
ENDMDL
