MODEL 1
REMARK VINA RESULT:    -8.462      0.000      0.000
REMARK INTER + INTRA:         -13.771
REMARK INTER:                 -12.420
REMARK INTRA:                  -1.351
REMARK UNBOUND:                -1.351
REMARK  Name = 
REMARK  9 active torsions:
REMARK  status: ('A' for Active; 'I' for Inactive)
REMARK    1  A    between atoms: C_1  and  C_2
REMARK    2  A    between atoms: C_2  and  C_3
REMARK    3  A    between atoms: C_3  and  N_4
REMARK    4  A    between atoms: C_3  and  C_12
REMARK    5  A    between atoms: N_4  and  C_5
REMARK    6  A    between atoms: C_5  and  C_6
REMARK    7  A    between atoms: C_15  and  C_16
REMARK    8  A    between atoms: C_16  and  N_17
REMARK    9  A    between atoms: C_18  and  C_20
REMARK                            x       y       z     vdW  Elec       q    Type
REMARK                         _______ _______ _______ _____ _____    ______ ____
ROOT
ATOM      1  C   UNL     1      45.456   4.419  12.282  0.00  0.00    +0.000 A 
ATOM      2  C   UNL     1      45.943   5.534  11.574  0.00  0.00    +0.000 A 
ATOM      3  C   UNL     1      46.912   6.379  12.129  0.00  0.00    +0.000 A 
ATOM      4  C   UNL     1      47.465   6.093  13.381  0.00  0.00    +0.000 A 
ATOM      5  C   UNL     1      47.000   4.977  14.082  0.00  0.00    +0.000 A 
ATOM      6  C   UNL     1      46.004   4.158  13.546  0.00  0.00    +0.000 A 
ENDROOT
BRANCH   1   7
ATOM      7  C   UNL     1      44.288   3.600  11.713  0.00  0.00    +0.000 C 
BRANCH   7   9
ATOM      8  C   UNL     1      42.427   5.420  11.843  0.00  0.00    +0.000 C 
ATOM      9  C   UNL     1      43.276   4.509  10.965  0.00  0.00    +0.000 C 
ENDBRANCH   7   9
BRANCH   7  10
ATOM     10  N   UNL     1      44.758   2.498  10.842  0.00  0.00    +0.000 NA
ATOM     11  H   UNL     1      44.366   1.622  11.181  0.00  0.00    +0.000 HD
BRANCH  10  12
ATOM     12  C   UNL     1      44.340   2.684   9.444  0.00  0.00    +0.000 C 
BRANCH  12  13
ATOM     13  C   UNL     1      45.451   2.574   8.425  0.00  0.00    +0.000 A 
ATOM     14  C   UNL     1      45.883   3.739   7.759  0.00  0.00    +0.000 A 
ATOM     15  C   UNL     1      46.978   3.706   6.896  0.00  0.00    +0.000 A 
ATOM     16  C   UNL     1      47.657   2.509   6.694  0.00  0.00    +0.000 A 
ATOM     17  C   UNL     1      47.239   1.348   7.341  0.00  0.00    +0.000 A 
ATOM     18  C   UNL     1      46.144   1.380   8.207  0.00  0.00    +0.000 A 
ENDBRANCH  12  13
ENDBRANCH  10  12
ENDBRANCH   7  10
ENDBRANCH   1   7
BRANCH   4  19
ATOM     19  C   UNL     1      48.509   6.986  13.997  0.00  0.00    +0.000 C 
BRANCH  19  20
ATOM     20  N   UNL     1      48.292   7.137  15.413  0.00  0.00    +0.000 N 
ATOM     21  C   UNL     1      49.233   6.725  16.322  0.00  0.00    +0.000 C 
ATOM     22  O   UNL     1      50.314   6.258  15.974  0.00  0.00    +0.000 OA
ATOM     23  H   UNL     1      47.336   7.286  15.720  0.00  0.00    +0.000 HD
BRANCH  21  24
ATOM     24  C   UNL     1      48.909   6.935  17.738  0.00  0.00    +0.000 A 
ATOM     25  C   UNL     1      48.683   8.223  18.207  0.00  0.00    +0.000 A 
ATOM     26  S   UNL     1      48.248   8.285  19.854  0.00  0.00    +0.000 S 
ATOM     27  C   UNL     1      48.404   6.598  20.015  0.00  0.00    +0.000 A 
ATOM     28  N   UNL     1      48.185   5.987  21.210  0.00  0.00    +0.000 NA
ATOM     29  C   UNL     1      48.368   4.709  21.196  0.00  0.00    +0.000 A 
ATOM     30  N   UNL     1      48.748   3.985  20.095  0.00  0.00    +0.000 N 
ATOM     31  C   UNL     1      48.956   4.555  18.862  0.00  0.00    +0.000 A 
ATOM     32  O   UNL     1      49.262   3.875  17.889  0.00  0.00    +0.000 OA
ATOM     33  C   UNL     1      48.769   5.994  18.825  0.00  0.00    +0.000 A 
ATOM     34  H   UNL     1      48.871   2.985  20.153  0.00  0.00    +0.000 HD
ENDBRANCH  21  24
ENDBRANCH  19  20
ENDBRANCH   4  19
TORSDOF 8
ENDMDL
MODEL 2
REMARK VINA RESULT:    -8.235      1.440      2.329
REMARK INTER + INTRA:         -13.438
REMARK INTER:                 -11.993
REMARK INTRA:                  -1.444
REMARK UNBOUND:                -1.351
REMARK  Name = 
REMARK  9 active torsions:
REMARK  status: ('A' for Active; 'I' for Inactive)
REMARK    1  A    between atoms: C_1  and  C_2
REMARK    2  A    between atoms: C_2  and  C_3
REMARK    3  A    between atoms: C_3  and  N_4
REMARK    4  A    between atoms: C_3  and  C_12
REMARK    5  A    between atoms: N_4  and  C_5
REMARK    6  A    between atoms: C_5  and  C_6
REMARK    7  A    between atoms: C_15  and  C_16
REMARK    8  A    between atoms: C_16  and  N_17
REMARK    9  A    between atoms: C_18  and  C_20
REMARK                            x       y       z     vdW  Elec       q    Type
REMARK                         _______ _______ _______ _____ _____    ______ ____
ROOT
ATOM      1  C   UNL     1      45.651   5.017  11.821  0.00  0.00    +0.000 A 
ATOM      2  C   UNL     1      45.991   4.450  13.064  0.00  0.00    +0.000 A 
ATOM      3  C   UNL     1      46.950   5.042  13.894  0.00  0.00    +0.000 A 
ATOM      4  C   UNL     1      47.550   6.252  13.529  0.00  0.00    +0.000 A 
ATOM      5  C   UNL     1      47.204   6.831  12.304  0.00  0.00    +0.000 A 
ATOM      6  C   UNL     1      46.277   6.218  11.458  0.00  0.00    +0.000 A 
ENDROOT
BRANCH   1   7
ATOM      7  C   UNL     1      44.709   4.266  10.868  0.00  0.00    +0.000 C 
BRANCH   7   9
ATOM      8  C   UNL     1      42.552   5.466  11.706  0.00  0.00    +0.000 C 
ATOM      9  C   UNL     1      43.281   4.150  11.465  0.00  0.00    +0.000 C 
ENDBRANCH   7   9
BRANCH   7  10
ATOM     10  N   UNL     1      44.675   4.887   9.523  0.00  0.00    +0.000 NA
ATOM     11  H   UNL     1      45.584   5.301   9.330  0.00  0.00    +0.000 HD
BRANCH  10  12
ATOM     12  C   UNL     1      44.379   3.904   8.470  0.00  0.00    +0.000 C 
BRANCH  12  13
ATOM     13  C   UNL     1      45.567   3.100   7.993  0.00  0.00    +0.000 A 
ATOM     14  C   UNL     1      45.698   1.761   8.413  0.00  0.00    +0.000 A 
ATOM     15  C   UNL     1      46.713   0.949   7.910  0.00  0.00    +0.000 A 
ATOM     16  C   UNL     1      47.606   1.464   6.975  0.00  0.00    +0.000 A 
ATOM     17  C   UNL     1      47.492   2.787   6.554  0.00  0.00    +0.000 A 
ATOM     18  C   UNL     1      46.475   3.602   7.056  0.00  0.00    +0.000 A 
ENDBRANCH  12  13
ENDBRANCH  10  12
ENDBRANCH   7  10
ENDBRANCH   1   7
BRANCH   4  19
ATOM     19  C   UNL     1      48.583   6.908  14.405  0.00  0.00    +0.000 C 
BRANCH  19  20
ATOM     20  N   UNL     1      48.330   6.637  15.797  0.00  0.00    +0.000 N 
ATOM     21  C   UNL     1      49.326   6.184  16.624  0.00  0.00    +0.000 C 
ATOM     22  O   UNL     1      50.481   6.036  16.232  0.00  0.00    +0.000 OA
ATOM     23  H   UNL     1      47.361   6.517  16.075  0.00  0.00    +0.000 HD
BRANCH  21  24
ATOM     24  C   UNL     1      48.956   5.950  18.025  0.00  0.00    +0.000 A 
ATOM     25  C   UNL     1      49.157   4.695  18.587  0.00  0.00    +0.000 A 
ATOM     26  S   UNL     1      48.744   4.611  20.239  0.00  0.00    +0.000 S 
ATOM     27  C   UNL     1      48.226   6.232  20.248  0.00  0.00    +0.000 A 
ATOM     28  N   UNL     1      47.725   6.799  21.378  0.00  0.00    +0.000 NA
ATOM     29  C   UNL     1      47.343   8.024  21.234  0.00  0.00    +0.000 A 
ATOM     30  N   UNL     1      47.418   8.735  20.064  0.00  0.00    +0.000 N 
ATOM     31  C   UNL     1      47.940   8.213  18.905  0.00  0.00    +0.000 A 
ATOM     32  O   UNL     1      48.026   8.887  17.884  0.00  0.00    +0.000 OA
ATOM     33  C   UNL     1      48.380   6.834  19.011  0.00  0.00    +0.000 A 
ATOM     34  H   UNL     1      47.104   9.693  20.022  0.00  0.00    +0.000 HD
ENDBRANCH  21  24
ENDBRANCH  19  20
ENDBRANCH   4  19
TORSDOF 8
ENDMDL
MODEL 3
REMARK VINA RESULT:    -7.906      1.992      2.660
REMARK INTER + INTRA:         -12.955
REMARK INTER:                 -11.368
REMARK INTRA:                  -1.587
REMARK UNBOUND:                -1.351
REMARK  Name = 
REMARK  9 active torsions:
REMARK  status: ('A' for Active; 'I' for Inactive)
REMARK    1  A    between atoms: C_1  and  C_2
REMARK    2  A    between atoms: C_2  and  C_3
REMARK    3  A    between atoms: C_3  and  N_4
REMARK    4  A    between atoms: C_3  and  C_12
REMARK    5  A    between atoms: N_4  and  C_5
REMARK    6  A    between atoms: C_5  and  C_6
REMARK    7  A    between atoms: C_15  and  C_16
REMARK    8  A    between atoms: C_16  and  N_17
REMARK    9  A    between atoms: C_18  and  C_20
REMARK                            x       y       z     vdW  Elec       q    Type
REMARK                         _______ _______ _______ _____ _____    ______ ____
ROOT
ATOM      1  C   UNL     1      45.497   4.910  12.150  0.00  0.00    +0.000 A 
ATOM      2  C   UNL     1      46.243   4.754  13.334  0.00  0.00    +0.000 A 
ATOM      3  C   UNL     1      47.341   5.576  13.614  0.00  0.00    +0.000 A 
ATOM      4  C   UNL     1      47.684   6.616  12.744  0.00  0.00    +0.000 A 
ATOM      5  C   UNL     1      46.937   6.789  11.575  0.00  0.00    +0.000 A 
ATOM      6  C   UNL     1      45.867   5.943  11.277  0.00  0.00    +0.000 A 
ENDROOT
BRANCH   1   7
ATOM      7  C   UNL     1      44.395   3.899  11.799  0.00  0.00    +0.000 C 
BRANCH   7   9
ATOM      8  C   UNL     1      42.329   5.489  11.812  0.00  0.00    +0.000 C 
ATOM      9  C   UNL     1      43.244   4.576  11.006  0.00  0.00    +0.000 C 
ENDBRANCH   7   9
BRANCH   7  10
ATOM     10  N   UNL     1      44.930   2.729  11.067  0.00  0.00    +0.000 NA
ATOM     11  H   UNL     1      44.655   1.881  11.557  0.00  0.00    +0.000 HD
BRANCH  10  12
ATOM     12  C   UNL     1      44.416   2.658   9.691  0.00  0.00    +0.000 C 
BRANCH  12  13
ATOM     13  C   UNL     1      45.475   2.619   8.613  0.00  0.00    +0.000 A 
ATOM     14  C   UNL     1      46.124   1.399   8.338  0.00  0.00    +0.000 A 
ATOM     15  C   UNL     1      47.024   1.289   7.279  0.00  0.00    +0.000 A 
ATOM     16  C   UNL     1      47.281   2.397   6.478  0.00  0.00    +0.000 A 
ATOM     17  C   UNL     1      46.649   3.612   6.739  0.00  0.00    +0.000 A 
ATOM     18  C   UNL     1      45.747   3.723   7.799  0.00  0.00    +0.000 A 
ENDBRANCH  12  13
ENDBRANCH  10  12
ENDBRANCH   7  10
ENDBRANCH   1   7
BRANCH   4  19
ATOM     19  C   UNL     1      48.860   7.513  13.024  0.00  0.00    +0.000 C 
BRANCH  19  20
ATOM     20  N   UNL     1      49.707   6.954  14.046  0.00  0.00    +0.000 N 
ATOM     21  C   UNL     1      50.581   7.740  14.752  0.00  0.00    +0.000 C 
ATOM     22  O   UNL     1      50.647   8.955  14.582  0.00  0.00    +0.000 OA
ATOM     23  H   UNL     1      49.844   5.948  14.032  0.00  0.00    +0.000 HD
BRANCH  21  24
ATOM     24  C   UNL     1      51.388   7.064  15.774  0.00  0.00    +0.000 A 
ATOM     25  C   UNL     1      52.774   7.163  15.731  0.00  0.00    +0.000 A 
ATOM     26  S   UNL     1      53.556   6.384  17.029  0.00  0.00    +0.000 S 
ATOM     27  C   UNL     1      52.076   5.836  17.665  0.00  0.00    +0.000 A 
ATOM     28  N   UNL     1      52.038   5.074  18.791  0.00  0.00    +0.000 NA
ATOM     29  C   UNL     1      50.852   4.703  19.143  0.00  0.00    +0.000 A 
ATOM     30  N   UNL     1      49.700   5.027  18.474  0.00  0.00    +0.000 N 
ATOM     31  C   UNL     1      49.687   5.815  17.347  0.00  0.00    +0.000 A 
ATOM     32  O   UNL     1      48.636   6.115  16.792  0.00  0.00    +0.000 OA
ATOM     33  C   UNL     1      50.998   6.254  16.905  0.00  0.00    +0.000 A 
ATOM     34  H   UNL     1      48.803   4.706  18.806  0.00  0.00    +0.000 HD
ENDBRANCH  21  24
ENDBRANCH  19  20
ENDBRANCH   4  19
TORSDOF 8
ENDMDL
MODEL 4
REMARK VINA RESULT:    -7.604      1.586      2.136
REMARK INTER + INTRA:         -12.510
REMARK INTER:                 -11.327
REMARK INTRA:                  -1.183
REMARK UNBOUND:                -1.351
REMARK  Name = 
REMARK  9 active torsions:
REMARK  status: ('A' for Active; 'I' for Inactive)
REMARK    1  A    between atoms: C_1  and  C_2
REMARK    2  A    between atoms: C_2  and  C_3
REMARK    3  A    between atoms: C_3  and  N_4
REMARK    4  A    between atoms: C_3  and  C_12
REMARK    5  A    between atoms: N_4  and  C_5
REMARK    6  A    between atoms: C_5  and  C_6
REMARK    7  A    between atoms: C_15  and  C_16
REMARK    8  A    between atoms: C_16  and  N_17
REMARK    9  A    between atoms: C_18  and  C_20
REMARK                            x       y       z     vdW  Elec       q    Type
REMARK                         _______ _______ _______ _____ _____    ______ ____
ROOT
ATOM      1  C   UNL     1      45.620   5.936  11.516  0.00  0.00    +0.000 A 
ATOM      2  C   UNL     1      46.956   5.849  11.954  0.00  0.00    +0.000 A 
ATOM      3  C   UNL     1      47.562   6.902  12.649  0.00  0.00    +0.000 A 
ATOM      4  C   UNL     1      46.827   8.045  12.981  0.00  0.00    +0.000 A 
ATOM      5  C   UNL     1      45.495   8.131  12.567  0.00  0.00    +0.000 A 
ATOM      6  C   UNL     1      44.903   7.097  11.837  0.00  0.00    +0.000 A 
ENDROOT
BRANCH   1   7
ATOM      7  C   UNL     1      45.031   4.832  10.626  0.00  0.00    +0.000 C 
BRANCH   7   9
ATOM      8  C   UNL     1      43.165   3.387  11.733  0.00  0.00    +0.000 C 
ATOM      9  C   UNL     1      43.520   4.623  10.916  0.00  0.00    +0.000 C 
ENDBRANCH   7   9
BRANCH   7  10
ATOM     10  N   UNL     1      45.266   5.098   9.188  0.00  0.00    +0.000 NA
ATOM     11  H   UNL     1      46.267   5.184   9.030  0.00  0.00    +0.000 HD
BRANCH  10  12
ATOM     12  C   UNL     1      44.752   4.014   8.336  0.00  0.00    +0.000 C 
BRANCH  12  13
ATOM     13  C   UNL     1      45.807   3.096   7.763  0.00  0.00    +0.000 A 
ATOM     14  C   UNL     1      45.935   1.793   8.286  0.00  0.00    +0.000 A 
ATOM     15  C   UNL     1      46.814   0.876   7.715  0.00  0.00    +0.000 A 
ATOM     16  C   UNL     1      47.573   1.247   6.609  0.00  0.00    +0.000 A 
ATOM     17  C   UNL     1      47.461   2.533   6.083  0.00  0.00    +0.000 A 
ATOM     18  C   UNL     1      46.579   3.453   6.654  0.00  0.00    +0.000 A 
ENDBRANCH  12  13
ENDBRANCH  10  12
ENDBRANCH   7  10
ENDBRANCH   1   7
BRANCH   4  19
ATOM     19  C   UNL     1      47.457   9.189  13.730  0.00  0.00    +0.000 C 
BRANCH  19  20
ATOM     20  N   UNL     1      47.299   9.027  15.153  0.00  0.00    +0.000 N 
ATOM     21  C   UNL     1      48.387   8.962  15.984  0.00  0.00    +0.000 C 
ATOM     22  O   UNL     1      49.536   9.086  15.565  0.00  0.00    +0.000 OA
ATOM     23  H   UNL     1      46.402   8.684  15.481  0.00  0.00    +0.000 HD
BRANCH  21  24
ATOM     24  C   UNL     1      48.108   8.803  17.416  0.00  0.00    +0.000 A 
ATOM     25  C   UNL     1      47.844   9.925  18.192  0.00  0.00    +0.000 A 
ATOM     26  S   UNL     1      47.468   9.562  19.814  0.00  0.00    +0.000 S 
ATOM     27  C   UNL     1      47.702   7.896  19.553  0.00  0.00    +0.000 A 
ATOM     28  N   UNL     1      47.553   7.003  20.567  0.00  0.00    +0.000 NA
ATOM     29  C   UNL     1      47.790   5.777  20.235  0.00  0.00    +0.000 A 
ATOM     30  N   UNL     1      48.160   5.364  18.982  0.00  0.00    +0.000 N 
ATOM     31  C   UNL     1      48.298   6.227  17.921  0.00  0.00    +0.000 A 
ATOM     32  O   UNL     1      48.596   5.820  16.803  0.00  0.00    +0.000 OA
ATOM     33  C   UNL     1      48.048   7.620  18.242  0.00  0.00    +0.000 A 
ATOM     34  H   UNL     1      48.328   4.388  18.789  0.00  0.00    +0.000 HD
ENDBRANCH  21  24
ENDBRANCH  19  20
ENDBRANCH   4  19
TORSDOF 8
ENDMDL
MODEL 5
REMARK VINA RESULT:    -7.484      4.167      6.497
REMARK INTER + INTRA:         -12.334
REMARK INTER:                 -10.774
REMARK INTRA:                  -1.560
REMARK UNBOUND:                -1.351
REMARK  Name = 
REMARK  9 active torsions:
REMARK  status: ('A' for Active; 'I' for Inactive)
REMARK    1  A    between atoms: C_1  and  C_2
REMARK    2  A    between atoms: C_2  and  C_3
REMARK    3  A    between atoms: C_3  and  N_4
REMARK    4  A    between atoms: C_3  and  C_12
REMARK    5  A    between atoms: N_4  and  C_5
REMARK    6  A    between atoms: C_5  and  C_6
REMARK    7  A    between atoms: C_15  and  C_16
REMARK    8  A    between atoms: C_16  and  N_17
REMARK    9  A    between atoms: C_18  and  C_20
REMARK                            x       y       z     vdW  Elec       q    Type
REMARK                         _______ _______ _______ _____ _____    ______ ____
ROOT
ATOM      1  C   UNL     1      45.590   4.783  12.259  0.00  0.00    +0.000 A 
ATOM      2  C   UNL     1      46.033   5.856  11.462  0.00  0.00    +0.000 A 
ATOM      3  C   UNL     1      47.029   6.731  11.912  0.00  0.00    +0.000 A 
ATOM      4  C   UNL     1      47.652   6.518  13.146  0.00  0.00    +0.000 A 
ATOM      5  C   UNL     1      47.230   5.444  13.935  0.00  0.00    +0.000 A 
ATOM      6  C   UNL     1      46.208   4.596  13.504  0.00  0.00    +0.000 A 
ENDROOT
BRANCH   1   7
ATOM      7  C   UNL     1      44.394   3.933  11.805  0.00  0.00    +0.000 C 
BRANCH   7   9
ATOM      8  C   UNL     1      42.357   5.558  11.732  0.00  0.00    +0.000 C 
ATOM      9  C   UNL     1      43.401   4.769  10.953  0.00  0.00    +0.000 C 
ENDBRANCH   7   9
BRANCH   7  10
ATOM     10  N   UNL     1      44.825   2.717  11.079  0.00  0.00    +0.000 NA
ATOM     11  H   UNL     1      44.438   1.900  11.548  0.00  0.00    +0.000 HD
BRANCH  10  12
ATOM     12  C   UNL     1      44.360   2.714   9.683  0.00  0.00    +0.000 C 
BRANCH  12  13
ATOM     13  C   UNL     1      45.457   2.684   8.644  0.00  0.00    +0.000 A 
ATOM     14  C   UNL     1      46.082   1.456   8.346  0.00  0.00    +0.000 A 
ATOM     15  C   UNL     1      47.017   1.359   7.317  0.00  0.00    +0.000 A 
ATOM     16  C   UNL     1      47.334   2.489   6.568  0.00  0.00    +0.000 A 
ATOM     17  C   UNL     1      46.728   3.711   6.854  0.00  0.00    +0.000 A 
ATOM     18  C   UNL     1      45.790   3.809   7.883  0.00  0.00    +0.000 A 
ENDBRANCH  12  13
ENDBRANCH  10  12
ENDBRANCH   7  10
ENDBRANCH   1   7
BRANCH   4  19
ATOM     19  C   UNL     1      48.726   7.445  13.650  0.00  0.00    +0.000 C 
BRANCH  19  20
ATOM     20  N   UNL     1      49.554   7.914  12.569  0.00  0.00    +0.000 N 
ATOM     21  C   UNL     1      50.853   8.297  12.785  0.00  0.00    +0.000 C 
ATOM     22  O   UNL     1      51.381   8.212  13.891  0.00  0.00    +0.000 OA
ATOM     23  H   UNL     1      49.081   8.218  11.723  0.00  0.00    +0.000 HD
BRANCH  21  24
ATOM     24  C   UNL     1      51.605   8.750  11.610  0.00  0.00    +0.000 A 
ATOM     25  C   UNL     1      52.751   8.066  11.221  0.00  0.00    +0.000 A 
ATOM     26  S   UNL     1      53.462   8.676   9.797  0.00  0.00    +0.000 S 
ATOM     27  C   UNL     1      52.300   9.914   9.681  0.00  0.00    +0.000 A 
ATOM     28  N   UNL     1      52.347  10.823   8.671  0.00  0.00    +0.000 NA
ATOM     29  C   UNL     1      51.422  11.724   8.723  0.00  0.00    +0.000 A 
ATOM     30  N   UNL     1      50.454  11.796   9.691  0.00  0.00    +0.000 N 
ATOM     31  C   UNL     1      50.352  10.885  10.715  0.00  0.00    +0.000 A 
ATOM     32  O   UNL     1      49.452  10.957  11.545  0.00  0.00    +0.000 OA
ATOM     33  C   UNL     1      51.373   9.853  10.707  0.00  0.00    +0.000 A 
ATOM     34  H   UNL     1      49.757  12.526   9.670  0.00  0.00    +0.000 HD
ENDBRANCH  21  24
ENDBRANCH  19  20
ENDBRANCH   4  19
TORSDOF 8
ENDMDL
MODEL 6
REMARK VINA RESULT:    -7.335      2.360      3.256
REMARK INTER + INTRA:         -12.116
REMARK INTER:                 -10.910
REMARK INTRA:                  -1.206
REMARK UNBOUND:                -1.351
REMARK  Name = 
REMARK  9 active torsions:
REMARK  status: ('A' for Active; 'I' for Inactive)
REMARK    1  A    between atoms: C_1  and  C_2
REMARK    2  A    between atoms: C_2  and  C_3
REMARK    3  A    between atoms: C_3  and  N_4
REMARK    4  A    between atoms: C_3  and  C_12
REMARK    5  A    between atoms: N_4  and  C_5
REMARK    6  A    between atoms: C_5  and  C_6
REMARK    7  A    between atoms: C_15  and  C_16
REMARK    8  A    between atoms: C_16  and  N_17
REMARK    9  A    between atoms: C_18  and  C_20
REMARK                            x       y       z     vdW  Elec       q    Type
REMARK                         _______ _______ _______ _____ _____    ______ ____
ROOT
ATOM      1  C   UNL     1      45.662   6.270  11.894  0.00  0.00    +0.000 A 
ATOM      2  C   UNL     1      46.932   5.906  12.382  0.00  0.00    +0.000 A 
ATOM      3  C   UNL     1      47.714   6.806  13.115  0.00  0.00    +0.000 A 
ATOM      4  C   UNL     1      47.219   8.076  13.433  0.00  0.00    +0.000 A 
ATOM      5  C   UNL     1      45.951   8.438  12.967  0.00  0.00    +0.000 A 
ATOM      6  C   UNL     1      45.189   7.553  12.201  0.00  0.00    +0.000 A 
ENDROOT
BRANCH   1   7
ATOM      7  C   UNL     1      44.894   5.316  10.967  0.00  0.00    +0.000 C 
BRANCH   7   9
ATOM      8  C   UNL     1      42.535   5.175  12.066  0.00  0.00    +0.000 C 
ATOM      9  C   UNL     1      43.386   5.682  10.909  0.00  0.00    +0.000 C 
ENDBRANCH   7   9
BRANCH   7  10
ATOM     10  N   UNL     1      45.484   5.271   9.610  0.00  0.00    +0.000 NA
ATOM     11  H   UNL     1      46.456   4.978   9.684  0.00  0.00    +0.000 HD
BRANCH  10  12
ATOM     12  C   UNL     1      44.779   4.324   8.733  0.00  0.00    +0.000 C 
BRANCH  12  13
ATOM     13  C   UNL     1      45.650   3.257   8.111  0.00  0.00    +0.000 A 
ATOM     14  C   UNL     1      46.629   3.638   7.172  0.00  0.00    +0.000 A 
ATOM     15  C   UNL     1      47.530   2.706   6.658  0.00  0.00    +0.000 A 
ATOM     16  C   UNL     1      47.466   1.382   7.082  0.00  0.00    +0.000 A 
ATOM     17  C   UNL     1      46.500   0.989   8.007  0.00  0.00    +0.000 A 
ATOM     18  C   UNL     1      45.599   1.922   8.524  0.00  0.00    +0.000 A 
ENDBRANCH  12  13
ENDBRANCH  10  12
ENDBRANCH   7  10
ENDBRANCH   1   7
BRANCH   4  19
ATOM     19  C   UNL     1      48.040   9.060  14.220  0.00  0.00    +0.000 C 
BRANCH  19  20
ATOM     20  N   UNL     1      47.726   8.992  15.624  0.00  0.00    +0.000 N 
ATOM     21  C   UNL     1      48.607   8.447  16.522  0.00  0.00    +0.000 C 
ATOM     22  O   UNL     1      49.715   8.039  16.182  0.00  0.00    +0.000 OA
ATOM     23  H   UNL     1      46.750   9.092  15.884  0.00  0.00    +0.000 HD
BRANCH  21  24
ATOM     24  C   UNL     1      48.185   8.437  17.928  0.00  0.00    +0.000 A 
ATOM     25  C   UNL     1      48.140   7.235  18.623  0.00  0.00    +0.000 A 
ATOM     26  S   UNL     1      47.702   7.408  20.262  0.00  0.00    +0.000 S 
ATOM     27  C   UNL     1      47.499   9.089  20.086  0.00  0.00    +0.000 A 
ATOM     28  N   UNL     1      47.101   9.857  21.136  0.00  0.00    +0.000 NA
ATOM     29  C   UNL     1      46.958  11.109  20.854  0.00  0.00    +0.000 A 
ATOM     30  N   UNL     1      47.178  11.664  19.620  0.00  0.00    +0.000 N 
ATOM     31  C   UNL     1      47.604  10.931  18.537  0.00  0.00    +0.000 A 
ATOM     32  O   UNL     1      47.825  11.463  17.455  0.00  0.00    +0.000 OA
ATOM     33  C   UNL     1      47.776   9.514  18.799  0.00  0.00    +0.000 A 
ATOM     34  H   UNL     1      47.050  12.653  19.468  0.00  0.00    +0.000 HD
ENDBRANCH  21  24
ENDBRANCH  19  20
ENDBRANCH   4  19
TORSDOF 8
ENDMDL
MODEL 7
REMARK VINA RESULT:    -7.138      3.560      5.574
REMARK INTER + INTRA:         -11.827
REMARK INTER:                 -10.376
REMARK INTRA:                  -1.451
REMARK UNBOUND:                -1.351
REMARK  Name = 
REMARK  9 active torsions:
REMARK  status: ('A' for Active; 'I' for Inactive)
REMARK    1  A    between atoms: C_1  and  C_2
REMARK    2  A    between atoms: C_2  and  C_3
REMARK    3  A    between atoms: C_3  and  N_4
REMARK    4  A    between atoms: C_3  and  C_12
REMARK    5  A    between atoms: N_4  and  C_5
REMARK    6  A    between atoms: C_5  and  C_6
REMARK    7  A    between atoms: C_15  and  C_16
REMARK    8  A    between atoms: C_16  and  N_17
REMARK    9  A    between atoms: C_18  and  C_20
REMARK                            x       y       z     vdW  Elec       q    Type
REMARK                         _______ _______ _______ _____ _____    ______ ____
ROOT
ATOM      1  C   UNL     1      45.737   4.735  12.492  0.00  0.00    +0.000 A 
ATOM      2  C   UNL     1      46.257   5.940  11.982  0.00  0.00    +0.000 A 
ATOM      3  C   UNL     1      47.178   6.700  12.713  0.00  0.00    +0.000 A 
ATOM      4  C   UNL     1      47.650   6.243  13.948  0.00  0.00    +0.000 A 
ATOM      5  C   UNL     1      47.152   5.038  14.453  0.00  0.00    +0.000 A 
ATOM      6  C   UNL     1      46.203   4.301  13.741  0.00  0.00    +0.000 A 
ENDROOT
BRANCH   1   7
ATOM      7  C   UNL     1      44.619   4.001  11.738  0.00  0.00    +0.000 C 
BRANCH   7   9
ATOM      8  C   UNL     1      42.723   5.757  11.400  0.00  0.00    +0.000 C 
ATOM      9  C   UNL     1      43.864   4.962  10.780  0.00  0.00    +0.000 C 
ENDBRANCH   7   9
BRANCH   7  10
ATOM     10  N   UNL     1      45.129   2.816  11.010  0.00  0.00    +0.000 NA
ATOM     11  H   UNL     1      44.882   1.979  11.534  0.00  0.00    +0.000 HD
BRANCH  10  12
ATOM     12  C   UNL     1      44.551   2.707   9.662  0.00  0.00    +0.000 C 
BRANCH  12  13
ATOM     13  C   UNL     1      45.560   2.599   8.541  0.00  0.00    +0.000 A 
ATOM     14  C   UNL     1      46.175   1.356   8.294  0.00  0.00    +0.000 A 
ATOM     15  C   UNL     1      47.024   1.181   7.202  0.00  0.00    +0.000 A 
ATOM     16  C   UNL     1      47.263   2.248   6.340  0.00  0.00    +0.000 A 
ATOM     17  C   UNL     1      46.666   3.485   6.575  0.00  0.00    +0.000 A 
ATOM     18  C   UNL     1      45.814   3.660   7.667  0.00  0.00    +0.000 A 
ENDBRANCH  12  13
ENDBRANCH  10  12
ENDBRANCH   7  10
ENDBRANCH   1   7
BRANCH   4  19
ATOM     19  C   UNL     1      48.640   7.043  14.751  0.00  0.00    +0.000 C 
BRANCH  19  20
ATOM     20  N   UNL     1      49.868   7.230  14.022  0.00  0.00    +0.000 N 
ATOM     21  C   UNL     1      50.539   8.426  14.057  0.00  0.00    +0.000 C 
ATOM     22  O   UNL     1      50.154   9.369  14.744  0.00  0.00    +0.000 OA
ATOM     23  H   UNL     1      50.067   6.571  13.275  0.00  0.00    +0.000 HD
BRANCH  21  24
ATOM     24  C   UNL     1      51.783   8.500  13.283  0.00  0.00    +0.000 A 
ATOM     25  C   UNL     1      52.939   8.984  13.885  0.00  0.00    +0.000 A 
ATOM     26  S   UNL     1      54.309   8.935  12.872  0.00  0.00    +0.000 S 
ATOM     27  C   UNL     1      53.396   8.322  11.574  0.00  0.00    +0.000 A 
ATOM     28  N   UNL     1      53.977   8.068  10.370  0.00  0.00    +0.000 NA
ATOM     29  C   UNL     1      53.162   7.634   9.467  0.00  0.00    +0.000 A 
ATOM     30  N   UNL     1      51.820   7.429   9.658  0.00  0.00    +0.000 N 
ATOM     31  C   UNL     1      51.195   7.648  10.863  0.00  0.00    +0.000 A 
ATOM     32  O   UNL     1      49.998   7.421  11.011  0.00  0.00    +0.000 OA
ATOM     33  C   UNL     1      52.067   8.142  11.913  0.00  0.00    +0.000 A 
ATOM     34  H   UNL     1      51.239   7.085   8.909  0.00  0.00    +0.000 HD
ENDBRANCH  21  24
ENDBRANCH  19  20
ENDBRANCH   4  19
TORSDOF 8
ENDMDL
MODEL 8
REMARK VINA RESULT:    -7.073      3.592      9.231
REMARK INTER + INTRA:         -11.731
REMARK INTER:                  -9.206
REMARK INTRA:                  -2.525
REMARK UNBOUND:                -1.351
REMARK  Name = 
REMARK  9 active torsions:
REMARK  status: ('A' for Active; 'I' for Inactive)
REMARK    1  A    between atoms: C_1  and  C_2
REMARK    2  A    between atoms: C_2  and  C_3
REMARK    3  A    between atoms: C_3  and  N_4
REMARK    4  A    between atoms: C_3  and  C_12
REMARK    5  A    between atoms: N_4  and  C_5
REMARK    6  A    between atoms: C_5  and  C_6
REMARK    7  A    between atoms: C_15  and  C_16
REMARK    8  A    between atoms: C_16  and  N_17
REMARK    9  A    between atoms: C_18  and  C_20
REMARK                            x       y       z     vdW  Elec       q    Type
REMARK                         _______ _______ _______ _____ _____    ______ ____
ROOT
ATOM      1  C   UNL     1      50.340   4.891  17.366  0.00  0.00    +0.000 A 
ATOM      2  C   UNL     1      48.991   4.738  16.993  0.00  0.00    +0.000 A 
ATOM      3  C   UNL     1      48.374   5.639  16.118  0.00  0.00    +0.000 A 
ATOM      4  C   UNL     1      49.108   6.682  15.543  0.00  0.00    +0.000 A 
ATOM      5  C   UNL     1      50.453   6.829  15.894  0.00  0.00    +0.000 A 
ATOM      6  C   UNL     1      51.057   5.954  16.799  0.00  0.00    +0.000 A 
ENDROOT
BRANCH   1   7
ATOM      7  C   UNL     1      50.946   3.978  18.443  0.00  0.00    +0.000 C 
BRANCH   7   9
ATOM      8  C   UNL     1      51.323   1.631  17.375  0.00  0.00    +0.000 C 
ATOM      9  C   UNL     1      51.933   2.953  17.820  0.00  0.00    +0.000 C 
ENDBRANCH   7   9
BRANCH   7  10
ATOM     10  N   UNL     1      51.597   4.755  19.523  0.00  0.00    +0.000 NA
ATOM     11  H   UNL     1      51.912   5.645  19.143  0.00  0.00    +0.000 HD
BRANCH  10  12
ATOM     12  C   UNL     1      50.677   5.026  20.638  0.00  0.00    +0.000 C 
BRANCH  12  13
ATOM     13  C   UNL     1      49.565   6.001  20.328  0.00  0.00    +0.000 A 
ATOM     14  C   UNL     1      49.898   7.305  19.908  0.00  0.00    +0.000 A 
ATOM     15  C   UNL     1      48.910   8.201  19.504  0.00  0.00    +0.000 A 
ATOM     16  C   UNL     1      47.577   7.802  19.508  0.00  0.00    +0.000 A 
ATOM     17  C   UNL     1      47.232   6.518  19.926  0.00  0.00    +0.000 A 
ATOM     18  C   UNL     1      48.220   5.619  20.330  0.00  0.00    +0.000 A 
ENDBRANCH  12  13
ENDBRANCH  10  12
ENDBRANCH   7  10
ENDBRANCH   1   7
BRANCH   4  19
ATOM     19  C   UNL     1      48.466   7.662  14.598  0.00  0.00    +0.000 C 
BRANCH  19  20
ATOM     20  N   UNL     1      47.233   7.139  14.067  0.00  0.00    +0.000 N 
ATOM     21  C   UNL     1      47.031   7.034  12.715  0.00  0.00    +0.000 C 
ATOM     22  O   UNL     1      47.902   7.332  11.901  0.00  0.00    +0.000 OA
ATOM     23  H   UNL     1      46.433   7.120  14.692  0.00  0.00    +0.000 HD
BRANCH  21  24
ATOM     24  C   UNL     1      45.741   6.480  12.288  0.00  0.00    +0.000 A 
ATOM     25  C   UNL     1      44.791   7.315  11.713  0.00  0.00    +0.000 A 
ATOM     26  S   UNL     1      43.381   6.502  11.207  0.00  0.00    +0.000 S 
ATOM     27  C   UNL     1      43.963   5.014  11.792  0.00  0.00    +0.000 A 
ATOM     28  N   UNL     1      43.216   3.883  11.690  0.00  0.00    +0.000 NA
ATOM     29  C   UNL     1      43.766   2.833  12.201  0.00  0.00    +0.000 A 
ATOM     30  N   UNL     1      44.998   2.810  12.804  0.00  0.00    +0.000 N 
ATOM     31  C   UNL     1      45.799   3.922  12.908  0.00  0.00    +0.000 A 
ATOM     32  O   UNL     1      46.911   3.861  13.422  0.00  0.00    +0.000 OA
ATOM     33  C   UNL     1      45.223   5.133  12.352  0.00  0.00    +0.000 A 
ATOM     34  H   UNL     1      45.372   1.952  13.181  0.00  0.00    +0.000 HD
ENDBRANCH  21  24
ENDBRANCH  19  20
ENDBRANCH   4  19
TORSDOF 8
ENDMDL
MODEL 9
REMARK VINA RESULT:    -7.048      3.203      9.040
REMARK INTER + INTRA:         -11.695
REMARK INTER:                  -9.502
REMARK INTRA:                  -2.192
REMARK UNBOUND:                -1.351
REMARK  Name = 
REMARK  9 active torsions:
REMARK  status: ('A' for Active; 'I' for Inactive)
REMARK    1  A    between atoms: C_1  and  C_2
REMARK    2  A    between atoms: C_2  and  C_3
REMARK    3  A    between atoms: C_3  and  N_4
REMARK    4  A    between atoms: C_3  and  C_12
REMARK    5  A    between atoms: N_4  and  C_5
REMARK    6  A    between atoms: C_5  and  C_6
REMARK    7  A    between atoms: C_15  and  C_16
REMARK    8  A    between atoms: C_16  and  N_17
REMARK    9  A    between atoms: C_18  and  C_20
REMARK                            x       y       z     vdW  Elec       q    Type
REMARK                         _______ _______ _______ _____ _____    ______ ____
ROOT
ATOM      1  C   UNL     1      49.139   7.880  16.269  0.00  0.00    +0.000 A 
ATOM      2  C   UNL     1      49.404   6.800  15.405  0.00  0.00    +0.000 A 
ATOM      3  C   UNL     1      48.910   6.780  14.095  0.00  0.00    +0.000 A 
ATOM      4  C   UNL     1      48.190   7.870  13.595  0.00  0.00    +0.000 A 
ATOM      5  C   UNL     1      47.939   8.955  14.441  0.00  0.00    +0.000 A 
ATOM      6  C   UNL     1      48.397   8.955  15.760  0.00  0.00    +0.000 A 
ENDROOT
BRANCH   1   7
ATOM      7  C   UNL     1      49.564   7.805  17.743  0.00  0.00    +0.000 C 
BRANCH   7   9
ATOM      8  C   UNL     1      49.486   9.971  19.189  0.00  0.00    +0.000 C 
ATOM      9  C   UNL     1      50.260   9.117  18.194  0.00  0.00    +0.000 C 
ENDBRANCH   7   9
BRANCH   7  10
ATOM     10  N   UNL     1      48.426   7.474  18.630  0.00  0.00    +0.000 NA
ATOM     11  H   UNL     1      47.586   7.376  18.063  0.00  0.00    +0.000 HD
BRANCH  10  12
ATOM     12  C   UNL     1      48.643   6.215  19.360  0.00  0.00    +0.000 C 
BRANCH  12  13
ATOM     13  C   UNL     1      48.539   4.963  18.521  0.00  0.00    +0.000 A 
ATOM     14  C   UNL     1      47.333   4.696  17.841  0.00  0.00    +0.000 A 
ATOM     15  C   UNL     1      47.228   3.614  16.967  0.00  0.00    +0.000 A 
ATOM     16  C   UNL     1      48.330   2.790  16.758  0.00  0.00    +0.000 A 
ATOM     17  C   UNL     1      49.527   3.039  17.426  0.00  0.00    +0.000 A 
ATOM     18  C   UNL     1      49.634   4.123  18.300  0.00  0.00    +0.000 A 
ENDBRANCH  12  13
ENDBRANCH  10  12
ENDBRANCH   7  10
ENDBRANCH   1   7
BRANCH   4  19
ATOM     19  C   UNL     1      47.650   7.872  12.190  0.00  0.00    +0.000 C 
BRANCH  19  20
ATOM     20  N   UNL     1      46.954   6.645  11.901  0.00  0.00    +0.000 N 
ATOM     21  C   UNL     1      45.634   6.483  12.236  0.00  0.00    +0.000 C 
ATOM     22  O   UNL     1      44.977   7.385  12.750  0.00  0.00    +0.000 OA
ATOM     23  H   UNL     1      47.522   5.826  11.710  0.00  0.00    +0.000 HD
BRANCH  21  24
ATOM     24  C   UNL     1      45.024   5.195  11.886  0.00  0.00    +0.000 A 
ATOM     25  C   UNL     1      44.347   4.468  12.858  0.00  0.00    +0.000 A 
ATOM     26  S   UNL     1      43.637   3.035  12.270  0.00  0.00    +0.000 S 
ATOM     27  C   UNL     1      44.259   3.302  10.709  0.00  0.00    +0.000 A 
ATOM     28  N   UNL     1      44.030   2.414   9.705  0.00  0.00    +0.000 NA
ATOM     29  C   UNL     1      44.585   2.726   8.581  0.00  0.00    +0.000 A 
ATOM     30  N   UNL     1      45.347   3.846   8.370  0.00  0.00    +0.000 N 
ATOM     31  C   UNL     1      45.584   4.783   9.347  0.00  0.00    +0.000 A 
ATOM     32  O   UNL     1      46.242   5.792   9.116  0.00  0.00    +0.000 OA
ATOM     33  C   UNL     1      44.986   4.477  10.633  0.00  0.00    +0.000 A 
ATOM     34  H   UNL     1      45.751   4.032   7.464  0.00  0.00    +0.000 HD
ENDBRANCH  21  24
ENDBRANCH  19  20
ENDBRANCH   4  19
TORSDOF 8
ENDMDL
