MODEL 1
REMARK VINA RESULT:    -8.091      0.000      0.000
REMARK INTER + INTRA:         -12.526
REMARK INTER:                 -11.401
REMARK INTRA:                  -1.125
REMARK UNBOUND:                -1.125
REMARK  Name = 
REMARK  8 active torsions:
REMARK  status: ('A' for Active; 'I' for Inactive)
REMARK    1  A    between atoms: C_1  and  N_2
REMARK    2  A    between atoms: C_4  and  C_5
REMARK    3  A    between atoms: N_7  and  C_8
REMARK    4  A    between atoms: C_8  and  C_9
REMARK    5  A    between atoms: C_12  and  C_13
REMARK    6  A    between atoms: C_13  and  O_14
REMARK    7  A    between atoms: O_14  and  C_15
REMARK    8  A    between atoms: C_15  and  C_16
REMARK                            x       y       z     vdW  Elec       q    Type
REMARK                         _______ _______ _______ _____ _____    ______ ____
ROOT
ATOM      1  C   UNL     1      48.229   6.479  13.824  0.00  0.00    +0.000 C 
ENDROOT
BRANCH   1   2
ATOM      2  C   UNL     1      46.940   6.146  13.121  0.00  0.00    +0.000 A 
ATOM      3  C   UNL     1      46.035   5.236  13.685  0.00  0.00    +0.000 A 
ATOM      4  C   UNL     1      44.829   4.944  13.042  0.00  0.00    +0.000 A 
ATOM      5  C   UNL     1      44.508   5.546  11.818  0.00  0.00    +0.000 A 
ATOM      6  C   UNL     1      45.420   6.443  11.248  0.00  0.00    +0.000 A 
ATOM      7  C   UNL     1      46.626   6.737  11.891  0.00  0.00    +0.000 A 
BRANCH   5   8
ATOM      8  C   UNL     1      43.216   5.217  11.116  0.00  0.00    +0.000 C 
BRANCH   8   9
ATOM      9  O   UNL     1      43.495   4.602   9.863  0.00  0.00    +0.000 OA
BRANCH   9  10
ATOM     10  C   UNL     1      44.029   3.290  10.037  0.00  0.00    +0.000 C 
BRANCH  10  11
ATOM     11  C   UNL     1      45.089   3.000   9.002  0.00  0.00    +0.000 A 
ATOM     12  C   UNL     1      45.562   1.697   8.783  0.00  0.00    +0.000 A 
ATOM     13  C   UNL     1      46.523   1.443   7.801  0.00  0.00    +0.000 A 
ATOM     14  C   UNL     1      47.007   2.490   7.020  0.00  0.00    +0.000 A 
ATOM     15 CL   UNL     1      48.194   2.182   5.813  0.00  0.00    +0.000 Cl
ATOM     16  C   UNL     1      46.535   3.787   7.210  0.00  0.00    +0.000 A 
ATOM     17  C   UNL     1      45.574   4.040   8.192  0.00  0.00    +0.000 A 
ENDBRANCH  10  11
ENDBRANCH   9  10
ENDBRANCH   8   9
ENDBRANCH   5   8
ENDBRANCH   1   2
BRANCH   1  20
ATOM     18  C   UNL     1      49.201   6.471  16.063  0.00  0.00    +0.000 C 
ATOM     19  O   UNL     1      50.331   6.591  15.606  0.00  0.00    +0.000 OA
ATOM     20  N   UNL     1      48.082   6.454  15.259  0.00  0.00    +0.000 N 
ATOM     21  H   UNL     1      47.178   6.242  15.655  0.00  0.00    +0.000 HD
BRANCH  18  25
ATOM     22  C   UNL     1      48.818   4.471  20.615  0.00  0.00    +0.000 C 
ATOM     23  N   UNL     1      48.761   5.422  19.529  0.00  0.00    +0.000 N 
ATOM     24  C   UNL     1      49.193   5.202  18.250  0.00  0.00    +0.000 A 
ATOM     25  C   UNL     1      48.936   6.343  17.495  0.00  0.00    +0.000 A 
ATOM     26  C   UNL     1      48.336   7.301  18.390  0.00  0.00    +0.000 A 
ATOM     27  C   UNL     1      47.854   8.609  18.379  0.00  0.00    +0.000 A 
ATOM     28 CL   UNL     1      47.960   9.580  16.995  0.00  0.00    +0.000 Cl
ATOM     29  N   UNL     1      47.351   9.200  19.478  0.00  0.00    +0.000 NA
ATOM     30  C   UNL     1      47.322   8.471  20.600  0.00  0.00    +0.000 A 
ATOM     31  N   UNL     1      47.751   7.213  20.768  0.00  0.00    +0.000 NA
ATOM     32  C   UNL     1      48.247   6.684  19.635  0.00  0.00    +0.000 A 
ENDBRANCH  18  25
ENDBRANCH   1  20
TORSDOF 7
ENDMDL
MODEL 2
REMARK VINA RESULT:    -8.020      1.241      2.441
REMARK INTER + INTRA:         -12.427
REMARK INTER:                 -11.336
REMARK INTRA:                  -1.091
REMARK UNBOUND:                -1.125
REMARK  Name = 
REMARK  8 active torsions:
REMARK  status: ('A' for Active; 'I' for Inactive)
REMARK    1  A    between atoms: C_1  and  N_2
REMARK    2  A    between atoms: C_4  and  C_5
REMARK    3  A    between atoms: N_7  and  C_8
REMARK    4  A    between atoms: C_8  and  C_9
REMARK    5  A    between atoms: C_12  and  C_13
REMARK    6  A    between atoms: C_13  and  O_14
REMARK    7  A    between atoms: O_14  and  C_15
REMARK    8  A    between atoms: C_15  and  C_16
REMARK                            x       y       z     vdW  Elec       q    Type
REMARK                         _______ _______ _______ _____ _____    ______ ____
ROOT
ATOM      1  C   UNL     1      48.265   6.562  13.685  0.00  0.00    +0.000 C 
ENDROOT
BRANCH   1   2
ATOM      2  C   UNL     1      46.955   6.221  13.026  0.00  0.00    +0.000 A 
ATOM      3  C   UNL     1      46.628   6.754  11.772  0.00  0.00    +0.000 A 
ATOM      4  C   UNL     1      45.420   6.420  11.152  0.00  0.00    +0.000 A 
ATOM      5  C   UNL     1      44.510   5.558  11.777  0.00  0.00    +0.000 A 
ATOM      6  C   UNL     1      44.832   5.039  13.038  0.00  0.00    +0.000 A 
ATOM      7  C   UNL     1      46.040   5.370  13.658  0.00  0.00    +0.000 A 
BRANCH   5   8
ATOM      8  C   UNL     1      43.201   5.213  11.116  0.00  0.00    +0.000 C 
BRANCH   8   9
ATOM      9  O   UNL     1      43.450   4.554   9.879  0.00  0.00    +0.000 OA
BRANCH   9  10
ATOM     10  C   UNL     1      44.054   3.277  10.084  0.00  0.00    +0.000 C 
BRANCH  10  11
ATOM     11  C   UNL     1      45.054   2.976   8.993  0.00  0.00    +0.000 A 
ATOM     12  C   UNL     1      45.593   3.995   8.192  0.00  0.00    +0.000 A 
ATOM     13  C   UNL     1      46.540   3.702   7.208  0.00  0.00    +0.000 A 
ATOM     14  C   UNL     1      46.965   2.388   7.026  0.00  0.00    +0.000 A 
ATOM     15 CL   UNL     1      48.127   2.022   5.811  0.00  0.00    +0.000 Cl
ATOM     16  C   UNL     1      46.456   1.367   7.826  0.00  0.00    +0.000 A 
ATOM     17  C   UNL     1      45.510   1.661   8.810  0.00  0.00    +0.000 A 
ENDBRANCH  10  11
ENDBRANCH   9  10
ENDBRANCH   8   9
ENDBRANCH   5   8
ENDBRANCH   1   2
BRANCH   1  20
ATOM     18  C   UNL     1      49.168   6.786  15.941  0.00  0.00    +0.000 C 
ATOM     19  O   UNL     1      50.294   6.503  15.552  0.00  0.00    +0.000 OA
ATOM     20  N   UNL     1      48.097   6.889  15.080  0.00  0.00    +0.000 N 
ATOM     21  H   UNL     1      47.164   7.012  15.445  0.00  0.00    +0.000 HD
BRANCH  18  25
ATOM     22  C   UNL     1      48.187   9.251  20.164  0.00  0.00    +0.000 C 
ATOM     23  N   UNL     1      48.431   8.173  19.234  0.00  0.00    +0.000 N 
ATOM     24  C   UNL     1      48.620   8.306  17.886  0.00  0.00    +0.000 A 
ATOM     25  C   UNL     1      48.859   7.046  17.346  0.00  0.00    +0.000 A 
ATOM     26  C   UNL     1      48.785   6.110  18.442  0.00  0.00    +0.000 A 
ATOM     27  C   UNL     1      48.881   4.739  18.676  0.00  0.00    +0.000 A 
ATOM     28 CL   UNL     1      49.096   3.637  17.409  0.00  0.00    +0.000 Cl
ATOM     29  N   UNL     1      48.732   4.207  19.903  0.00  0.00    +0.000 NA
ATOM     30  C   UNL     1      48.493   5.057  20.908  0.00  0.00    +0.000 A 
ATOM     31  N   UNL     1      48.367   6.389  20.840  0.00  0.00    +0.000 NA
ATOM     32  C   UNL     1      48.520   6.855  19.587  0.00  0.00    +0.000 A 
ENDBRANCH  18  25
ENDBRANCH   1  20
TORSDOF 7
ENDMDL
MODEL 3
REMARK VINA RESULT:    -7.009      1.576      2.773
REMARK INTER + INTRA:         -11.003
REMARK INTER:                 -10.158
REMARK INTRA:                  -0.845
REMARK UNBOUND:                -1.125
REMARK  Name = 
REMARK  8 active torsions:
REMARK  status: ('A' for Active; 'I' for Inactive)
REMARK    1  A    between atoms: C_1  and  N_2
REMARK    2  A    between atoms: C_4  and  C_5
REMARK    3  A    between atoms: N_7  and  C_8
REMARK    4  A    between atoms: C_8  and  C_9
REMARK    5  A    between atoms: C_12  and  C_13
REMARK    6  A    between atoms: C_13  and  O_14
REMARK    7  A    between atoms: O_14  and  C_15
REMARK    8  A    between atoms: C_15  and  C_16
REMARK                            x       y       z     vdW  Elec       q    Type
REMARK                         _______ _______ _______ _____ _____    ______ ____
ROOT
ATOM      1  C   UNL     1      48.033   9.069  14.422  0.00  0.00    +0.000 C 
ENDROOT
BRANCH   1   2
ATOM      2  C   UNL     1      47.394   7.930  13.673  0.00  0.00    +0.000 A 
ATOM      3  C   UNL     1      47.833   6.614  13.868  0.00  0.00    +0.000 A 
ATOM      4  C   UNL     1      47.225   5.555  13.187  0.00  0.00    +0.000 A 
ATOM      5  C   UNL     1      46.174   5.792  12.291  0.00  0.00    +0.000 A 
ATOM      6  C   UNL     1      45.747   7.110  12.086  0.00  0.00    +0.000 A 
ATOM      7  C   UNL     1      46.354   8.169  12.767  0.00  0.00    +0.000 A 
BRANCH   5   8
ATOM      8  C   UNL     1      45.531   4.652  11.544  0.00  0.00    +0.000 C 
BRANCH   8   9
ATOM      9  O   UNL     1      44.399   5.130  10.825  0.00  0.00    +0.000 OA
BRANCH   9  10
ATOM     10  C   UNL     1      43.781   4.083  10.076  0.00  0.00    +0.000 C 
BRANCH  10  11
ATOM     11  C   UNL     1      44.769   3.448   9.127  0.00  0.00    +0.000 A 
ATOM     12  C   UNL     1      45.501   4.217   8.210  0.00  0.00    +0.000 A 
ATOM     13  C   UNL     1      46.433   3.617   7.360  0.00  0.00    +0.000 A 
ATOM     14  C   UNL     1      46.649   2.243   7.430  0.00  0.00    +0.000 A 
ATOM     15 CL   UNL     1      47.791   1.499   6.381  0.00  0.00    +0.000 Cl
ATOM     16  C   UNL     1      45.946   1.466   8.349  0.00  0.00    +0.000 A 
ATOM     17  C   UNL     1      45.014   2.068   9.199  0.00  0.00    +0.000 A 
ENDBRANCH  10  11
ENDBRANCH   9  10
ENDBRANCH   8   9
ENDBRANCH   5   8
ENDBRANCH   1   2
BRANCH   1  20
ATOM     18  C   UNL     1      48.539   9.496  16.772  0.00  0.00    +0.000 C 
ATOM     19  O   UNL     1      49.649   9.929  16.486  0.00  0.00    +0.000 OA
ATOM     20  N   UNL     1      47.640   9.088  15.811  0.00  0.00    +0.000 N 
ATOM     21  H   UNL     1      46.781   8.634  16.082  0.00  0.00    +0.000 HD
BRANCH  18  25
ATOM     22  C   UNL     1      46.982  10.776  21.333  0.00  0.00    +0.000 C 
ATOM     23  N   UNL     1      47.379   9.977  20.197  0.00  0.00    +0.000 N 
ATOM     24  C   UNL     1      47.707  10.456  18.958  0.00  0.00    +0.000 A 
ATOM     25  C   UNL     1      48.067   9.381  18.150  0.00  0.00    +0.000 A 
ATOM     26  C   UNL     1      47.922   8.194  18.957  0.00  0.00    +0.000 A 
ATOM     27  C   UNL     1      48.061   6.812  18.849  0.00  0.00    +0.000 A 
ATOM     28 CL   UNL     1      48.469   6.076  17.378  0.00  0.00    +0.000 Cl
ATOM     29  N   UNL     1      47.807   5.979  19.875  0.00  0.00    +0.000 NA
ATOM     30  C   UNL     1      47.417   6.538  21.027  0.00  0.00    +0.000 A 
ATOM     31  N   UNL     1      47.232   7.840  21.282  0.00  0.00    +0.000 NA
ATOM     32  C   UNL     1      47.496   8.615  20.215  0.00  0.00    +0.000 A 
ENDBRANCH  18  25
ENDBRANCH   1  20
TORSDOF 7
ENDMDL
MODEL 4
REMARK VINA RESULT:    -7.009      1.962      2.601
REMARK INTER + INTRA:         -11.002
REMARK INTER:                  -9.855
REMARK INTRA:                  -1.147
REMARK UNBOUND:                -1.125
REMARK  Name = 
REMARK  8 active torsions:
REMARK  status: ('A' for Active; 'I' for Inactive)
REMARK    1  A    between atoms: C_1  and  N_2
REMARK    2  A    between atoms: C_4  and  C_5
REMARK    3  A    between atoms: N_7  and  C_8
REMARK    4  A    between atoms: C_8  and  C_9
REMARK    5  A    between atoms: C_12  and  C_13
REMARK    6  A    between atoms: C_13  and  O_14
REMARK    7  A    between atoms: O_14  and  C_15
REMARK    8  A    between atoms: C_15  and  C_16
REMARK                            x       y       z     vdW  Elec       q    Type
REMARK                         _______ _______ _______ _____ _____    ______ ____
ROOT
ATOM      1  C   UNL     1      48.865   8.570  14.245  0.00  0.00    +0.000 C 
ENDROOT
BRANCH   1   2
ATOM      2  C   UNL     1      47.729   7.931  13.492  0.00  0.00    +0.000 A 
ATOM      3  C   UNL     1      47.870   6.650  12.942  0.00  0.00    +0.000 A 
ATOM      4  C   UNL     1      46.807   6.048  12.262  0.00  0.00    +0.000 A 
ATOM      5  C   UNL     1      45.587   6.720  12.107  0.00  0.00    +0.000 A 
ATOM      6  C   UNL     1      45.453   8.006  12.644  0.00  0.00    +0.000 A 
ATOM      7  C   UNL     1      46.515   8.608  13.326  0.00  0.00    +0.000 A 
BRANCH   5   8
ATOM      8  C   UNL     1      44.448   6.078  11.358  0.00  0.00    +0.000 C 
BRANCH   8   9
ATOM      9  O   UNL     1      44.686   4.680  11.231  0.00  0.00    +0.000 OA
BRANCH   9  10
ATOM     10  C   UNL     1      43.974   4.131  10.123  0.00  0.00    +0.000 C 
BRANCH  10  11
ATOM     11  C   UNL     1      44.923   3.499   9.135  0.00  0.00    +0.000 A 
ATOM     12  C   UNL     1      45.634   4.272   8.204  0.00  0.00    +0.000 A 
ATOM     13  C   UNL     1      46.531   3.674   7.316  0.00  0.00    +0.000 A 
ATOM     14  C   UNL     1      46.735   2.297   7.362  0.00  0.00    +0.000 A 
ATOM     15 CL   UNL     1      47.835   1.555   6.267  0.00  0.00    +0.000 Cl
ATOM     16  C   UNL     1      46.053   1.515   8.293  0.00  0.00    +0.000 A 
ATOM     17  C   UNL     1      45.156   2.115   9.180  0.00  0.00    +0.000 A 
ENDBRANCH  10  11
ENDBRANCH   9  10
ENDBRANCH   8   9
ENDBRANCH   5   8
ENDBRANCH   1   2
BRANCH   1  20
ATOM     18  C   UNL     1      50.131   7.343  15.933  0.00  0.00    +0.000 C 
ATOM     19  O   UNL     1      51.088   7.228  15.176  0.00  0.00    +0.000 OA
ATOM     20  N   UNL     1      48.995   8.036  15.580  0.00  0.00    +0.000 N 
ATOM     21  H   UNL     1      48.183   8.017  16.179  0.00  0.00    +0.000 HD
BRANCH  18  25
ATOM     22  C   UNL     1      51.298   6.489  20.706  0.00  0.00    +0.000 C 
ATOM     23  N   UNL     1      50.658   6.389  19.415  0.00  0.00    +0.000 N 
ATOM     24  C   UNL     1      50.893   7.202  18.339  0.00  0.00    +0.000 A 
ATOM     25  C   UNL     1      50.111   6.764  17.275  0.00  0.00    +0.000 A 
ATOM     26  C   UNL     1      49.353   5.637  17.760  0.00  0.00    +0.000 A 
ATOM     27  C   UNL     1      48.388   4.735  17.314  0.00  0.00    +0.000 A 
ATOM     28 CL   UNL     1      47.713   4.853  15.764  0.00  0.00    +0.000 Cl
ATOM     29  N   UNL     1      47.881   3.773  18.106  0.00  0.00    +0.000 NA
ATOM     30  C   UNL     1      48.352   3.707  19.358  0.00  0.00    +0.000 A 
ATOM     31  N   UNL     1      49.268   4.501  19.929  0.00  0.00    +0.000 NA
ATOM     32  C   UNL     1      49.727   5.443  19.086  0.00  0.00    +0.000 A 
ENDBRANCH  18  25
ENDBRANCH   1  20
TORSDOF 7
ENDMDL
MODEL 5
REMARK VINA RESULT:    -6.955      4.491      6.718
REMARK INTER + INTRA:         -10.926
REMARK INTER:                  -9.722
REMARK INTRA:                  -1.204
REMARK UNBOUND:                -1.125
REMARK  Name = 
REMARK  8 active torsions:
REMARK  status: ('A' for Active; 'I' for Inactive)
REMARK    1  A    between atoms: C_1  and  N_2
REMARK    2  A    between atoms: C_4  and  C_5
REMARK    3  A    between atoms: N_7  and  C_8
REMARK    4  A    between atoms: C_8  and  C_9
REMARK    5  A    between atoms: C_12  and  C_13
REMARK    6  A    between atoms: C_13  and  O_14
REMARK    7  A    between atoms: O_14  and  C_15
REMARK    8  A    between atoms: C_15  and  C_16
REMARK                            x       y       z     vdW  Elec       q    Type
REMARK                         _______ _______ _______ _____ _____    ______ ____
ROOT
ATOM      1  C   UNL     1      48.851   6.937  13.153  0.00  0.00    +0.000 C 
ENDROOT
BRANCH   1   2
ATOM      2  C   UNL     1      47.501   6.408  12.750  0.00  0.00    +0.000 A 
ATOM      3  C   UNL     1      46.918   5.340  13.444  0.00  0.00    +0.000 A 
ATOM      4  C   UNL     1      45.654   4.863  13.082  0.00  0.00    +0.000 A 
ATOM      5  C   UNL     1      44.954   5.436  12.012  0.00  0.00    +0.000 A 
ATOM      6  C   UNL     1      45.545   6.493  11.310  0.00  0.00    +0.000 A 
ATOM      7  C   UNL     1      46.808   6.972  11.672  0.00  0.00    +0.000 A 
BRANCH   5   8
ATOM      8  C   UNL     1      43.601   4.909  11.612  0.00  0.00    +0.000 C 
BRANCH   8   9
ATOM      9  O   UNL     1      43.650   4.435  10.270  0.00  0.00    +0.000 OA
BRANCH   9  10
ATOM     10  C   UNL     1      44.097   3.081  10.215  0.00  0.00    +0.000 C 
BRANCH  10  11
ATOM     11  C   UNL     1      45.090   2.889   9.094  0.00  0.00    +0.000 A 
ATOM     12  C   UNL     1      45.590   1.619   8.768  0.00  0.00    +0.000 A 
ATOM     13  C   UNL     1      46.485   1.455   7.708  0.00  0.00    +0.000 A 
ATOM     14  C   UNL     1      46.876   2.560   6.956  0.00  0.00    +0.000 A 
ATOM     15 CL   UNL     1      47.983   2.364   5.654  0.00  0.00    +0.000 Cl
ATOM     16  C   UNL     1      46.374   3.826   7.252  0.00  0.00    +0.000 A 
ATOM     17  C   UNL     1      45.479   3.988   8.312  0.00  0.00    +0.000 A 
ENDBRANCH  10  11
ENDBRANCH   9  10
ENDBRANCH   8   9
ENDBRANCH   5   8
ENDBRANCH   1   2
BRANCH   1  20
ATOM     18  C   UNL     1      50.574   8.507  12.427  0.00  0.00    +0.000 C 
ATOM     19  O   UNL     1      51.320   8.154  13.332  0.00  0.00    +0.000 OA
ATOM     20  N   UNL     1      49.341   7.926  12.223  0.00  0.00    +0.000 N 
ATOM     21  H   UNL     1      48.706   8.314  11.542  0.00  0.00    +0.000 HD
BRANCH  18  25
ATOM     22  C   UNL     1      50.571  12.904  10.074  0.00  0.00    +0.000 C 
ATOM     23  N   UNL     1      50.899  11.543  10.430  0.00  0.00    +0.000 N 
ATOM     24  C   UNL     1      50.393  10.851  11.497  0.00  0.00    +0.000 A 
ATOM     25  C   UNL     1      50.924   9.564  11.480  0.00  0.00    +0.000 A 
ATOM     26  C   UNL     1      51.814   9.502  10.347  0.00  0.00    +0.000 A 
ATOM     27  C   UNL     1      52.682   8.606   9.725  0.00  0.00    +0.000 A 
ATOM     28 CL   UNL     1      52.976   7.067  10.369  0.00  0.00    +0.000 Cl
ATOM     29  N   UNL     1      53.392   8.933   8.630  0.00  0.00    +0.000 NA
ATOM     30  C   UNL     1      53.225  10.169   8.146  0.00  0.00    +0.000 A 
ATOM     31  N   UNL     1      52.437  11.138   8.632  0.00  0.00    +0.000 NA
ATOM     32  C   UNL     1      51.763  10.748   9.729  0.00  0.00    +0.000 A 
ENDBRANCH  18  25
ENDBRANCH   1  20
TORSDOF 7
ENDMDL
MODEL 6
REMARK VINA RESULT:    -6.805      3.923     10.085
REMARK INTER + INTRA:         -10.715
REMARK INTER:                  -9.140
REMARK INTRA:                  -1.575
REMARK UNBOUND:                -1.125
REMARK  Name = 
REMARK  8 active torsions:
REMARK  status: ('A' for Active; 'I' for Inactive)
REMARK    1  A    between atoms: C_1  and  N_2
REMARK    2  A    between atoms: C_4  and  C_5
REMARK    3  A    between atoms: N_7  and  C_8
REMARK    4  A    between atoms: C_8  and  C_9
REMARK    5  A    between atoms: C_12  and  C_13
REMARK    6  A    between atoms: C_13  and  O_14
REMARK    7  A    between atoms: O_14  and  C_15
REMARK    8  A    between atoms: C_15  and  C_16
REMARK                            x       y       z     vdW  Elec       q    Type
REMARK                         _______ _______ _______ _____ _____    ______ ____
ROOT
ATOM      1  C   UNL     1      47.371   3.415  16.584  0.00  0.00    +0.000 C 
ENDROOT
BRANCH   1   2
ATOM      2  C   UNL     1      48.781   3.764  16.978  0.00  0.00    +0.000 A 
ATOM      3  C   UNL     1      49.685   2.761  17.351  0.00  0.00    +0.000 A 
ATOM      4  C   UNL     1      51.001   3.085  17.697  0.00  0.00    +0.000 A 
ATOM      5  C   UNL     1      51.435   4.417  17.688  0.00  0.00    +0.000 A 
ATOM      6  C   UNL     1      50.525   5.419  17.331  0.00  0.00    +0.000 A 
ATOM      7  C   UNL     1      49.210   5.097  16.983  0.00  0.00    +0.000 A 
BRANCH   5   8
ATOM      8  C   UNL     1      52.848   4.766  18.078  0.00  0.00    +0.000 C 
BRANCH   8   9
ATOM      9  O   UNL     1      53.092   4.346  19.417  0.00  0.00    +0.000 OA
BRANCH   9  10
ATOM     10  C   UNL     1      53.068   5.452  20.319  0.00  0.00    +0.000 C 
BRANCH  10  11
ATOM     11  C   UNL     1      51.648   5.835  20.660  0.00  0.00    +0.000 A 
ATOM     12  C   UNL     1      50.754   4.909  21.220  0.00  0.00    +0.000 A 
ATOM     13  C   UNL     1      49.452   5.289  21.558  0.00  0.00    +0.000 A 
ATOM     14  C   UNL     1      49.039   6.602  21.350  0.00  0.00    +0.000 A 
ATOM     15 CL   UNL     1      47.436   7.073  21.758  0.00  0.00    +0.000 Cl
ATOM     16  C   UNL     1      49.919   7.540  20.814  0.00  0.00    +0.000 A 
ATOM     17  C   UNL     1      51.221   7.160  20.477  0.00  0.00    +0.000 A 
ENDBRANCH  10  11
ENDBRANCH   9  10
ENDBRANCH   8   9
ENDBRANCH   5   8
ENDBRANCH   1   2
BRANCH   1  20
ATOM     18  C   UNL     1      46.808   4.197  14.341  0.00  0.00    +0.000 C 
ATOM     19  O   UNL     1      47.216   3.156  13.842  0.00  0.00    +0.000 OA
ATOM     20  N   UNL     1      46.797   4.404  15.703  0.00  0.00    +0.000 N 
ATOM     21  H   UNL     1      46.562   5.312  16.075  0.00  0.00    +0.000 HD
BRANCH  18  25
ATOM     22  C   UNL     1      46.364   8.740  12.332  0.00  0.00    +0.000 C 
ATOM     23  N   UNL     1      46.104   7.357  12.660  0.00  0.00    +0.000 N 
ATOM     24  C   UNL     1      46.898   6.555  13.432  0.00  0.00    +0.000 A 
ATOM     25  C   UNL     1      46.291   5.307  13.543  0.00  0.00    +0.000 A 
ATOM     26  C   UNL     1      45.075   5.373  12.770  0.00  0.00    +0.000 A 
ATOM     27  C   UNL     1      44.006   4.558  12.399  0.00  0.00    +0.000 A 
ATOM     28 CL   UNL     1      43.945   2.923  12.840  0.00  0.00    +0.000 Cl
ATOM     29  N   UNL     1      43.008   4.994  11.610  0.00  0.00    +0.000 NA
ATOM     30  C   UNL     1      43.075   6.265  11.194  0.00  0.00    +0.000 A 
ATOM     31  N   UNL     1      44.033   7.162  11.460  0.00  0.00    +0.000 NA
ATOM     32  C   UNL     1      45.002   6.660  12.246  0.00  0.00    +0.000 A 
ENDBRANCH  18  25
ENDBRANCH   1  20
TORSDOF 7
ENDMDL
MODEL 7
REMARK VINA RESULT:    -6.770      2.745      3.872
REMARK INTER + INTRA:         -10.665
REMARK INTER:                  -9.549
REMARK INTRA:                  -1.117
REMARK UNBOUND:                -1.125
REMARK  Name = 
REMARK  8 active torsions:
REMARK  status: ('A' for Active; 'I' for Inactive)
REMARK    1  A    between atoms: C_1  and  N_2
REMARK    2  A    between atoms: C_4  and  C_5
REMARK    3  A    between atoms: N_7  and  C_8
REMARK    4  A    between atoms: C_8  and  C_9
REMARK    5  A    between atoms: C_12  and  C_13
REMARK    6  A    between atoms: C_13  and  O_14
REMARK    7  A    between atoms: O_14  and  C_15
REMARK    8  A    between atoms: C_15  and  C_16
REMARK                            x       y       z     vdW  Elec       q    Type
REMARK                         _______ _______ _______ _____ _____    ______ ____
ROOT
ATOM      1  C   UNL     1      48.573   9.296  12.577  0.00  0.00    +0.000 C 
ENDROOT
BRANCH   1   2
ATOM      2  C   UNL     1      47.415   8.391  12.255  0.00  0.00    +0.000 A 
ATOM      3  C   UNL     1      46.096   8.832  12.425  0.00  0.00    +0.000 A 
ATOM      4  C   UNL     1      45.021   7.998  12.104  0.00  0.00    +0.000 A 
ATOM      5  C   UNL     1      45.243   6.702  11.620  0.00  0.00    +0.000 A 
ATOM      6  C   UNL     1      46.562   6.256  11.465  0.00  0.00    +0.000 A 
ATOM      7  C   UNL     1      47.637   7.091  11.784  0.00  0.00    +0.000 A 
BRANCH   5   8
ATOM      8  C   UNL     1      44.084   5.796  11.292  0.00  0.00    +0.000 C 
BRANCH   8   9
ATOM      9  O   UNL     1      44.531   4.445  11.246  0.00  0.00    +0.000 OA
BRANCH   9  10
ATOM     10  C   UNL     1      43.898   3.726  10.188  0.00  0.00    +0.000 C 
BRANCH  10  11
ATOM     11  C   UNL     1      44.905   3.314   9.142  0.00  0.00    +0.000 A 
ATOM     12  C   UNL     1      45.549   4.262   8.332  0.00  0.00    +0.000 A 
ATOM     13  C   UNL     1      46.501   3.866   7.389  0.00  0.00    +0.000 A 
ATOM     14  C   UNL     1      46.825   2.518   7.259  0.00  0.00    +0.000 A 
ATOM     15 CL   UNL     1      47.993   2.025   6.095  0.00  0.00    +0.000 Cl
ATOM     16  C   UNL     1      46.211   1.564   8.068  0.00  0.00    +0.000 A 
ATOM     17  C   UNL     1      45.260   1.962   9.011  0.00  0.00    +0.000 A 
ENDBRANCH  10  11
ENDBRANCH   9  10
ENDBRANCH   8   9
ENDBRANCH   5   8
ENDBRANCH   1   2
BRANCH   1  20
ATOM     18  C   UNL     1      50.246   9.328  14.354  0.00  0.00    +0.000 C 
ATOM     19  O   UNL     1      49.972  10.489  14.634  0.00  0.00    +0.000 OA
ATOM     20  N   UNL     1      49.572   8.629  13.377  0.00  0.00    +0.000 N 
ATOM     21  H   UNL     1      49.895   7.716  13.094  0.00  0.00    +0.000 HD
BRANCH  18  25
ATOM     22  C   UNL     1      54.779   7.956  15.915  0.00  0.00    +0.000 C 
ATOM     23  N   UNL     1      53.349   7.974  15.714  0.00  0.00    +0.000 N 
ATOM     24  C   UNL     1      52.648   8.936  15.039  0.00  0.00    +0.000 A 
ATOM     25  C   UNL     1      51.303   8.580  15.033  0.00  0.00    +0.000 A 
ATOM     26  C   UNL     1      51.203   7.343  15.768  0.00  0.00    +0.000 A 
ATOM     27  C   UNL     1      50.234   6.433  16.190  0.00  0.00    +0.000 A 
ATOM     28 CL   UNL     1      48.585   6.699  15.904  0.00  0.00    +0.000 Cl
ATOM     29  N   UNL     1      50.539   5.340  16.912  0.00  0.00    +0.000 NA
ATOM     30  C   UNL     1      51.831   5.149  17.207  0.00  0.00    +0.000 A 
ATOM     31  N   UNL     1      52.868   5.931  16.880  0.00  0.00    +0.000 NA
ATOM     32  C   UNL     1      52.494   7.008  16.167  0.00  0.00    +0.000 A 
ENDBRANCH  18  25
ENDBRANCH   1  20
TORSDOF 7
ENDMDL
MODEL 8
REMARK VINA RESULT:    -6.767      3.959      9.203
REMARK INTER + INTRA:         -10.661
REMARK INTER:                  -8.656
REMARK INTRA:                  -2.004
REMARK UNBOUND:                -1.125
REMARK  Name = 
REMARK  8 active torsions:
REMARK  status: ('A' for Active; 'I' for Inactive)
REMARK    1  A    between atoms: C_1  and  N_2
REMARK    2  A    between atoms: C_4  and  C_5
REMARK    3  A    between atoms: N_7  and  C_8
REMARK    4  A    between atoms: C_8  and  C_9
REMARK    5  A    between atoms: C_12  and  C_13
REMARK    6  A    between atoms: C_13  and  O_14
REMARK    7  A    between atoms: O_14  and  C_15
REMARK    8  A    between atoms: C_15  and  C_16
REMARK                            x       y       z     vdW  Elec       q    Type
REMARK                         _______ _______ _______ _____ _____    ______ ____
ROOT
ATOM      1  C   UNL     1      47.663   3.605  16.520  0.00  0.00    +0.000 C 
ENDROOT
BRANCH   1   2
ATOM      2  C   UNL     1      47.826   4.277  17.857  0.00  0.00    +0.000 A 
ATOM      3  C   UNL     1      48.825   3.861  18.746  0.00  0.00    +0.000 A 
ATOM      4  C   UNL     1      48.989   4.500  19.979  0.00  0.00    +0.000 A 
ATOM      5  C   UNL     1      48.151   5.560  20.351  0.00  0.00    +0.000 A 
ATOM      6  C   UNL     1      47.144   5.964  19.467  0.00  0.00    +0.000 A 
ATOM      7  C   UNL     1      46.980   5.327  18.234  0.00  0.00    +0.000 A 
BRANCH   5   8
ATOM      8  C   UNL     1      48.318   6.236  21.687  0.00  0.00    +0.000 C 
BRANCH   8   9
ATOM      9  O   UNL     1      48.153   7.643  21.535  0.00  0.00    +0.000 OA
BRANCH   9  10
ATOM     10  C   UNL     1      49.374   8.267  21.136  0.00  0.00    +0.000 C 
BRANCH  10  11
ATOM     11  C   UNL     1      49.268   8.803  19.729  0.00  0.00    +0.000 A 
ATOM     12  C   UNL     1      50.104   8.338  18.703  0.00  0.00    +0.000 A 
ATOM     13  C   UNL     1      49.973   8.824  17.400  0.00  0.00    +0.000 A 
ATOM     14  C   UNL     1      48.992   9.770  17.111  0.00  0.00    +0.000 A 
ATOM     15 CL   UNL     1      48.830  10.375  15.508  0.00  0.00    +0.000 Cl
ATOM     16  C   UNL     1      48.139  10.228  18.112  0.00  0.00    +0.000 A 
ATOM     17  C   UNL     1      48.271   9.741  19.415  0.00  0.00    +0.000 A 
ENDBRANCH  10  11
ENDBRANCH   9  10
ENDBRANCH   8   9
ENDBRANCH   5   8
ENDBRANCH   1   2
BRANCH   1  20
ATOM     18  C   UNL     1      46.796   4.113  14.295  0.00  0.00    +0.000 C 
ATOM     19  O   UNL     1      47.499   3.246  13.790  0.00  0.00    +0.000 OA
ATOM     20  N   UNL     1      46.770   4.337  15.654  0.00  0.00    +0.000 N 
ATOM     21  H   UNL     1      46.268   5.129  16.027  0.00  0.00    +0.000 HD
BRANCH  18  25
ATOM     22  C   UNL     1      42.971   5.619  11.472  0.00  0.00    +0.000 C 
ATOM     23  N   UNL     1      44.199   5.633  12.232  0.00  0.00    +0.000 N 
ATOM     24  C   UNL     1      44.708   4.585  12.949  0.00  0.00    +0.000 A 
ATOM     25  C   UNL     1      45.920   4.979  13.508  0.00  0.00    +0.000 A 
ATOM     26  C   UNL     1      46.128   6.351  13.112  0.00  0.00    +0.000 A 
ATOM     27  C   UNL     1      47.049   7.381  13.292  0.00  0.00    +0.000 A 
ATOM     28 CL   UNL     1      48.398   7.196  14.301  0.00  0.00    +0.000 Cl
ATOM     29  N   UNL     1      46.885   8.598  12.744  0.00  0.00    +0.000 NA
ATOM     30  C   UNL     1      45.789   8.785  11.999  0.00  0.00    +0.000 A 
ATOM     31  N   UNL     1      44.816   7.900  11.741  0.00  0.00    +0.000 NA
ATOM     32  C   UNL     1      45.038   6.709  12.323  0.00  0.00    +0.000 A 
ENDBRANCH  18  25
ENDBRANCH   1  20
TORSDOF 7
ENDMDL
MODEL 9
REMARK VINA RESULT:    -6.476      3.748      8.347
REMARK INTER + INTRA:         -10.251
REMARK INTER:                  -7.792
REMARK INTRA:                  -2.458
REMARK UNBOUND:                -1.125
REMARK  Name = 
REMARK  8 active torsions:
REMARK  status: ('A' for Active; 'I' for Inactive)
REMARK    1  A    between atoms: C_1  and  N_2
REMARK    2  A    between atoms: C_4  and  C_5
REMARK    3  A    between atoms: N_7  and  C_8
REMARK    4  A    between atoms: C_8  and  C_9
REMARK    5  A    between atoms: C_12  and  C_13
REMARK    6  A    between atoms: C_13  and  O_14
REMARK    7  A    between atoms: O_14  and  C_15
REMARK    8  A    between atoms: C_15  and  C_16
REMARK                            x       y       z     vdW  Elec       q    Type
REMARK                         _______ _______ _______ _____ _____    ______ ____
ROOT
ATOM      1  C   UNL     1      47.480   3.762  16.798  0.00  0.00    +0.000 C 
ENDROOT
BRANCH   1   2
ATOM      2  C   UNL     1      48.393   4.813  17.371  0.00  0.00    +0.000 A 
ATOM      3  C   UNL     1      49.753   4.834  17.038  0.00  0.00    +0.000 A 
ATOM      4  C   UNL     1      50.595   5.824  17.554  0.00  0.00    +0.000 A 
ATOM      5  C   UNL     1      50.096   6.804  18.423  0.00  0.00    +0.000 A 
ATOM      6  C   UNL     1      48.739   6.772  18.767  0.00  0.00    +0.000 A 
ATOM      7  C   UNL     1      47.897   5.783  18.250  0.00  0.00    +0.000 A 
BRANCH   5   8
ATOM      8  C   UNL     1      51.008   7.860  18.993  0.00  0.00    +0.000 C 
BRANCH   8   9
ATOM      9  O   UNL     1      51.590   8.612  17.933  0.00  0.00    +0.000 OA
BRANCH   9  10
ATOM     10  C   UNL     1      50.674   9.579  17.420  0.00  0.00    +0.000 C 
BRANCH  10  11
ATOM     11  C   UNL     1      50.592   9.494  15.915  0.00  0.00    +0.000 A 
ATOM     12  C   UNL     1      49.809  10.391  15.173  0.00  0.00    +0.000 A 
ATOM     13  C   UNL     1      49.768  10.318  13.778  0.00  0.00    +0.000 A 
ATOM     14  C   UNL     1      50.523   9.354  13.114  0.00  0.00    +0.000 A 
ATOM     15 CL   UNL     1      50.471   9.256  11.397  0.00  0.00    +0.000 Cl
ATOM     16  C   UNL     1      51.322   8.468  13.833  0.00  0.00    +0.000 A 
ATOM     17  C   UNL     1      51.362   8.542  15.228  0.00  0.00    +0.000 A 
ENDBRANCH  10  11
ENDBRANCH   9  10
ENDBRANCH   8   9
ENDBRANCH   5   8
ENDBRANCH   1   2
BRANCH   1  20
ATOM     18  C   UNL     1      46.818   4.030  14.464  0.00  0.00    +0.000 C 
ATOM     19  O   UNL     1      47.701   3.265  14.094  0.00  0.00    +0.000 OA
ATOM     20  N   UNL     1      46.596   4.304  15.796  0.00  0.00    +0.000 N 
ATOM     21  H   UNL     1      45.938   5.022  16.061  0.00  0.00    +0.000 HD
BRANCH  18  25
ATOM     22  C   UNL     1      43.169   4.788  11.151  0.00  0.00    +0.000 C 
ATOM     23  N   UNL     1      44.284   5.029  12.038  0.00  0.00    +0.000 N 
ATOM     24  C   UNL     1      44.856   4.107  12.871  0.00  0.00    +0.000 A 
ATOM     25  C   UNL     1      45.921   4.712  13.533  0.00  0.00    +0.000 A 
ATOM     26  C   UNL     1      45.965   6.079  13.077  0.00  0.00    +0.000 A 
ATOM     27  C   UNL     1      46.693   7.248  13.291  0.00  0.00    +0.000 A 
ATOM     28 CL   UNL     1      47.926   7.323  14.450  0.00  0.00    +0.000 Cl
ATOM     29  N   UNL     1      46.413   8.399  12.652  0.00  0.00    +0.000 NA
ATOM     30  C   UNL     1      45.396   8.377  11.782  0.00  0.00    +0.000 A 
ATOM     31  N   UNL     1      44.605   7.340  11.475  0.00  0.00    +0.000 NA
ATOM     32  C   UNL     1      44.934   6.226  12.152  0.00  0.00    +0.000 A 
ENDBRANCH  18  25
ENDBRANCH   1  20
TORSDOF 7
ENDMDL
