MODEL 1
REMARK VINA RESULT:    -6.973      0.000      0.000
REMARK INTER + INTRA:         -11.194
REMARK INTER:                 -10.031
REMARK INTRA:                  -1.163
REMARK UNBOUND:                -1.163
REMARK  Name = 
REMARK  9 active torsions:
REMARK  status: ('A' for Active; 'I' for Inactive)
REMARK    1  A    between atoms: C_1  and  C_2
REMARK    2  A    between atoms: C_2  and  C_3
REMARK    3  A    between atoms: C_4  and  C_5
REMARK    4  A    between atoms: C_8  and  C_9
REMARK    5  A    between atoms: C_13  and  C_14
REMARK    6  A    between atoms: C_15  and  C_16
REMARK    7  A    between atoms: C_16  and  C_17
REMARK    8  A    between atoms: C_21  and  C_22
REMARK    9  A    between atoms: C_22  and  N_23
REMARK                            x       y       z     vdW  Elec       q    Type
REMARK                         _______ _______ _______ _____ _____    ______ ____
ROOT
ATOM      1  C   UNL     1      48.278   6.631  14.236  0.00  0.00    +0.000 A 
ATOM      2  C   UNL     1      48.878   6.524  15.489  0.00  0.00    +0.000 A 
ATOM      3  N   UNL     1      48.656   5.512  16.353  0.00  0.00    +0.000 NA
ATOM      4  C   UNL     1      47.780   4.560  15.932  0.00  0.00    +0.000 A 
ATOM      5  C   UNL     1      47.097   4.603  14.721  0.00  0.00    +0.000 A 
ATOM      6  C   UNL     1      47.323   5.673  13.848  0.00  0.00    +0.000 A 
ENDROOT
BRANCH   4   7
ATOM      7  C   UNL     1      47.614   3.380  16.837  0.00  0.00    +0.000 C 
ATOM      8  N   UNL     1      48.746   2.643  17.032  0.00  0.00    +0.000 N 
ATOM      9  O   UNL     1      46.541   3.079  17.345  0.00  0.00    +0.000 OA
ATOM     10  H   UNL     1      49.597   2.892  16.544  0.00  0.00    +0.000 HD
ATOM     11  H   UNL     1      48.693   1.774  17.555  0.00  0.00    +0.000 HD
ENDBRANCH   4   7
BRANCH   1  13
ATOM     12  C   UNL     1      48.914   8.604  12.630  0.00  0.00    +0.000 C 
ATOM     13  C   UNL     1      48.646   7.731  13.406  0.00  0.00    +0.000 C 
BRANCH  12  15
ATOM     14  C   UNL     1      48.067  10.595  11.567  0.00  0.00    +0.000 C 
ATOM     15  C   UNL     1      49.145   9.524  11.518  0.00  0.00    +0.000 C 
ENDBRANCH  12  15
ENDBRANCH   1  13
BRANCH   6  16
ATOM     16  C   UNL     1      46.625   5.729  12.540  0.00  0.00    +0.000 C 
ATOM     17  C   UNL     1      45.388   6.228  12.355  0.00  0.00    +0.000 C 
BRANCH  17  18
ATOM     18  C   UNL     1      44.659   6.276  11.033  0.00  0.00    +0.000 C 
BRANCH  18  19
ATOM     19  C   UNL     1      44.600   4.925  10.357  0.00  0.00    +0.000 A 
ATOM     20  C   UNL     1      43.925   3.868  10.982  0.00  0.00    +0.000 A 
ATOM     21  C   UNL     1      43.966   2.584  10.442  0.00  0.00    +0.000 A 
ATOM     22  C   UNL     1      44.689   2.339   9.276  0.00  0.00    +0.000 A 
ATOM     23  C   UNL     1      45.347   3.382   8.609  0.00  0.00    +0.000 A 
ATOM     24  C   UNL     1      45.283   4.679   9.152  0.00  0.00    +0.000 A 
BRANCH  23  25
ATOM     25  C   UNL     1      46.199   3.095   7.394  0.00  0.00    +0.000 C 
BRANCH  25  26
ATOM     26  N   UNL     1      46.945   4.261   6.923  0.00  0.00    +0.000 NA
ATOM     27  H   UNL     1      46.972   4.260   5.905  0.00  0.00    +0.000 HD
ATOM     28  H   UNL     1      46.433   5.103   7.181  0.00  0.00    +0.000 HD
ENDBRANCH  25  26
ENDBRANCH  23  25
ENDBRANCH  18  19
ENDBRANCH  17  18
ENDBRANCH   6  16
TORSDOF 8
ENDMDL
MODEL 2
REMARK VINA RESULT:    -6.752      2.947      7.301
REMARK INTER + INTRA:         -10.875
REMARK INTER:                  -9.393
REMARK INTRA:                  -1.482
REMARK UNBOUND:                -1.163
REMARK  Name = 
REMARK  9 active torsions:
REMARK  status: ('A' for Active; 'I' for Inactive)
REMARK    1  A    between atoms: C_1  and  C_2
REMARK    2  A    between atoms: C_2  and  C_3
REMARK    3  A    between atoms: C_4  and  C_5
REMARK    4  A    between atoms: C_8  and  C_9
REMARK    5  A    between atoms: C_13  and  C_14
REMARK    6  A    between atoms: C_15  and  C_16
REMARK    7  A    between atoms: C_16  and  C_17
REMARK    8  A    between atoms: C_21  and  C_22
REMARK    9  A    between atoms: C_22  and  N_23
REMARK                            x       y       z     vdW  Elec       q    Type
REMARK                         _______ _______ _______ _____ _____    ______ ____
ROOT
ATOM      1  C   UNL     1      47.134   5.825  13.131  0.00  0.00    +0.000 A 
ATOM      2  C   UNL     1      46.651   6.498  12.011  0.00  0.00    +0.000 A 
ATOM      3  N   UNL     1      45.663   6.037  11.216  0.00  0.00    +0.000 NA
ATOM      4  C   UNL     1      45.137   4.833  11.568  0.00  0.00    +0.000 A 
ATOM      5  C   UNL     1      45.583   4.065  12.639  0.00  0.00    +0.000 A 
ATOM      6  C   UNL     1      46.625   4.549  13.438  0.00  0.00    +0.000 A 
ENDROOT
BRANCH   4   7
ATOM      7  C   UNL     1      43.968   4.368  10.758  0.00  0.00    +0.000 C 
ATOM      8  N   UNL     1      44.050   4.645   9.424  0.00  0.00    +0.000 N 
ATOM      9  O   UNL     1      43.000   3.805  11.252  0.00  0.00    +0.000 OA
ATOM     10  H   UNL     1      44.840   5.167   9.067  0.00  0.00    +0.000 HD
ATOM     11  H   UNL     1      43.255   4.448   8.823  0.00  0.00    +0.000 HD
ENDBRANCH   4   7
BRANCH   1  13
ATOM     12  C   UNL     1      48.930   7.053  14.595  0.00  0.00    +0.000 C 
ATOM     13  C   UNL     1      48.149   6.457  13.909  0.00  0.00    +0.000 C 
BRANCH  12  15
ATOM     14  C   UNL     1      51.164   7.800  15.105  0.00  0.00    +0.000 C 
ATOM     15  C   UNL     1      49.696   7.925  15.483  0.00  0.00    +0.000 C 
ENDBRANCH  12  15
ENDBRANCH   1  13
BRANCH   6  16
ATOM     16  C   UNL     1      47.102   3.761  14.601  0.00  0.00    +0.000 C 
ATOM     17  C   UNL     1      46.877   4.087  15.888  0.00  0.00    +0.000 C 
BRANCH  17  18
ATOM     18  C   UNL     1      47.372   3.305  17.082  0.00  0.00    +0.000 C 
BRANCH  18  19
ATOM     19  C   UNL     1      48.852   3.493  17.324  0.00  0.00    +0.000 A 
ATOM     20  C   UNL     1      49.379   4.789  17.411  0.00  0.00    +0.000 A 
ATOM     21  C   UNL     1      50.754   4.989  17.505  0.00  0.00    +0.000 A 
ATOM     22  C   UNL     1      51.621   3.898  17.502  0.00  0.00    +0.000 A 
ATOM     23  C   UNL     1      51.123   2.588  17.450  0.00  0.00    +0.000 A 
ATOM     24  C   UNL     1      49.731   2.397  17.376  0.00  0.00    +0.000 A 
BRANCH  23  25
ATOM     25  C   UNL     1      52.070   1.413  17.361  0.00  0.00    +0.000 C 
BRANCH  25  26
ATOM     26  N   UNL     1      51.630   0.256  18.138  0.00  0.00    +0.000 NA
ATOM     27  H   UNL     1      51.633   0.490  19.130  0.00  0.00    +0.000 HD
ATOM     28  H   UNL     1      50.657   0.058  17.908  0.00  0.00    +0.000 HD
ENDBRANCH  25  26
ENDBRANCH  23  25
ENDBRANCH  18  19
ENDBRANCH  17  18
ENDBRANCH   6  16
TORSDOF 8
ENDMDL
MODEL 3
REMARK VINA RESULT:    -6.325      2.998      7.805
REMARK INTER + INTRA:         -10.261
REMARK INTER:                  -9.311
REMARK INTRA:                  -0.949
REMARK UNBOUND:                -1.163
REMARK  Name = 
REMARK  9 active torsions:
REMARK  status: ('A' for Active; 'I' for Inactive)
REMARK    1  A    between atoms: C_1  and  C_2
REMARK    2  A    between atoms: C_2  and  C_3
REMARK    3  A    between atoms: C_4  and  C_5
REMARK    4  A    between atoms: C_8  and  C_9
REMARK    5  A    between atoms: C_13  and  C_14
REMARK    6  A    between atoms: C_15  and  C_16
REMARK    7  A    between atoms: C_16  and  C_17
REMARK    8  A    between atoms: C_21  and  C_22
REMARK    9  A    between atoms: C_22  and  N_23
REMARK                            x       y       z     vdW  Elec       q    Type
REMARK                         _______ _______ _______ _____ _____    ______ ____
ROOT
ATOM      1  C   UNL     1      45.161   2.987   9.462  0.00  0.00    +0.000 A 
ATOM      2  C   UNL     1      45.297   1.753   8.829  0.00  0.00    +0.000 A 
ATOM      3  N   UNL     1      45.984   1.559   7.684  0.00  0.00    +0.000 NA
ATOM      4  C   UNL     1      46.561   2.669   7.147  0.00  0.00    +0.000 A 
ATOM      5  C   UNL     1      46.442   3.948   7.678  0.00  0.00    +0.000 A 
ATOM      6  C   UNL     1      45.707   4.134   8.854  0.00  0.00    +0.000 A 
ENDROOT
BRANCH   4   7
ATOM      7  C   UNL     1      47.415   2.442   5.940  0.00  0.00    +0.000 C 
ATOM      8  N   UNL     1      48.759   2.491   6.171  0.00  0.00    +0.000 N 
ATOM      9  O   UNL     1      46.949   2.252   4.824  0.00  0.00    +0.000 OA
ATOM     10  H   UNL     1      49.101   2.712   7.097  0.00  0.00    +0.000 HD
ATOM     11  H   UNL     1      49.403   2.443   5.387  0.00  0.00    +0.000 HD
ENDBRANCH   4   7
BRANCH   1  13
ATOM     12  C   UNL     1      43.878   3.173  11.740  0.00  0.00    +0.000 C 
ATOM     13  C   UNL     1      44.449   3.035  10.695  0.00  0.00    +0.000 C 
BRANCH  12  15
ATOM     14  C   UNL     1      43.126   5.079  13.010  0.00  0.00    +0.000 C 
ATOM     15  C   UNL     1      43.270   3.565  13.010  0.00  0.00    +0.000 C 
ENDBRANCH  12  15
ENDBRANCH   1  13
BRANCH   6  16
ATOM     16  C   UNL     1      45.587   5.486   9.454  0.00  0.00    +0.000 C 
ATOM     17  C   UNL     1      45.987   5.806  10.700  0.00  0.00    +0.000 C 
BRANCH  17  18
ATOM     18  C   UNL     1      45.855   7.172  11.331  0.00  0.00    +0.000 C 
BRANCH  18  19
ATOM     19  C   UNL     1      46.998   7.489  12.267  0.00  0.00    +0.000 A 
ATOM     20  C   UNL     1      47.950   8.448  11.896  0.00  0.00    +0.000 A 
ATOM     21  C   UNL     1      49.080   8.665  12.681  0.00  0.00    +0.000 A 
ATOM     22  C   UNL     1      49.278   7.920  13.842  0.00  0.00    +0.000 A 
ATOM     23  C   UNL     1      48.327   6.978  14.258  0.00  0.00    +0.000 A 
ATOM     24  C   UNL     1      47.180   6.780  13.468  0.00  0.00    +0.000 A 
BRANCH  23  25
ATOM     25  C   UNL     1      48.588   6.113  15.471  0.00  0.00    +0.000 C 
BRANCH  25  26
ATOM     26  N   UNL     1      47.633   5.016  15.615  0.00  0.00    +0.000 NA
ATOM     27  H   UNL     1      48.084   4.229  16.077  0.00  0.00    +0.000 HD
ATOM     28  H   UNL     1      46.887   5.311  16.244  0.00  0.00    +0.000 HD
ENDBRANCH  25  26
ENDBRANCH  23  25
ENDBRANCH  18  19
ENDBRANCH  17  18
ENDBRANCH   6  16
TORSDOF 8
ENDMDL
MODEL 4
REMARK VINA RESULT:    -6.132      4.022      6.044
REMARK INTER + INTRA:          -9.984
REMARK INTER:                  -8.797
REMARK INTRA:                  -1.187
REMARK UNBOUND:                -1.163
REMARK  Name = 
REMARK  9 active torsions:
REMARK  status: ('A' for Active; 'I' for Inactive)
REMARK    1  A    between atoms: C_1  and  C_2
REMARK    2  A    between atoms: C_2  and  C_3
REMARK    3  A    between atoms: C_4  and  C_5
REMARK    4  A    between atoms: C_8  and  C_9
REMARK    5  A    between atoms: C_13  and  C_14
REMARK    6  A    between atoms: C_15  and  C_16
REMARK    7  A    between atoms: C_16  and  C_17
REMARK    8  A    between atoms: C_21  and  C_22
REMARK    9  A    between atoms: C_22  and  N_23
REMARK                            x       y       z     vdW  Elec       q    Type
REMARK                         _______ _______ _______ _____ _____    ______ ____
ROOT
ATOM      1  C   UNL     1      46.710   5.428  13.254  0.00  0.00    +0.000 A 
ATOM      2  C   UNL     1      46.426   4.096  13.552  0.00  0.00    +0.000 A 
ATOM      3  N   UNL     1      45.534   3.341  12.879  0.00  0.00    +0.000 NA
ATOM      4  C   UNL     1      44.892   3.963  11.853  0.00  0.00    +0.000 A 
ATOM      5  C   UNL     1      45.071   5.298  11.510  0.00  0.00    +0.000 A 
ATOM      6  C   UNL     1      45.984   6.072  12.234  0.00  0.00    +0.000 A 
ENDROOT
BRANCH   4   7
ATOM      7  C   UNL     1      43.983   3.101  11.034  0.00  0.00    +0.000 C 
ATOM      8  N   UNL     1      43.289   2.164  11.742  0.00  0.00    +0.000 N 
ATOM      9  O   UNL     1      43.886   3.207   9.818  0.00  0.00    +0.000 OA
ATOM     10  H   UNL     1      43.445   2.070  12.738  0.00  0.00    +0.000 HD
ATOM     11  H   UNL     1      42.725   1.479  11.248  0.00  0.00    +0.000 HD
ENDBRANCH   4   7
BRANCH   1  13
ATOM     12  C   UNL     1      48.516   6.732  14.636  0.00  0.00    +0.000 C 
ATOM     13  C   UNL     1      47.715   6.088  14.019  0.00  0.00    +0.000 C 
BRANCH  12  15
ATOM     14  C   UNL     1      48.669   9.055  15.263  0.00  0.00    +0.000 C 
ATOM     15  C   UNL     1      49.377   7.709  15.300  0.00  0.00    +0.000 C 
ENDBRANCH  12  15
ENDBRANCH   1  13
BRANCH   6  16
ATOM     16  C   UNL     1      46.213   7.493  11.872  0.00  0.00    +0.000 C 
ATOM     17  C   UNL     1      45.640   8.541  12.494  0.00  0.00    +0.000 C 
BRANCH  17  18
ATOM     18  C   UNL     1      45.848   9.991  12.125  0.00  0.00    +0.000 C 
BRANCH  18  19
ATOM     19  C   UNL     1      44.824  10.487  11.129  0.00  0.00    +0.000 A 
ATOM     20  C   UNL     1      45.209  11.400  10.139  0.00  0.00    +0.000 A 
ATOM     21  C   UNL     1      44.260  11.969   9.292  0.00  0.00    +0.000 A 
ATOM     22  C   UNL     1      42.913  11.639   9.431  0.00  0.00    +0.000 A 
ATOM     23  C   UNL     1      42.500  10.703  10.390  0.00  0.00    +0.000 A 
ATOM     24  C   UNL     1      43.470  10.120  11.227  0.00  0.00    +0.000 A 
BRANCH  23  25
ATOM     25  C   UNL     1      41.030  10.414  10.594  0.00  0.00    +0.000 C 
BRANCH  25  26
ATOM     26  N   UNL     1      40.783   9.216  11.394  0.00  0.00    +0.000 NA
ATOM     27  H   UNL     1      40.718   9.471  12.378  0.00  0.00    +0.000 HD
ATOM     28  H   UNL     1      39.867   8.842  11.148  0.00  0.00    +0.000 HD
ENDBRANCH  25  26
ENDBRANCH  23  25
ENDBRANCH  18  19
ENDBRANCH  17  18
ENDBRANCH   6  16
TORSDOF 8
ENDMDL
MODEL 5
REMARK VINA RESULT:    -5.996      3.006      7.843
REMARK INTER + INTRA:          -9.788
REMARK INTER:                  -7.995
REMARK INTRA:                  -1.794
REMARK UNBOUND:                -1.163
REMARK  Name = 
REMARK  9 active torsions:
REMARK  status: ('A' for Active; 'I' for Inactive)
REMARK    1  A    between atoms: C_1  and  C_2
REMARK    2  A    between atoms: C_2  and  C_3
REMARK    3  A    between atoms: C_4  and  C_5
REMARK    4  A    between atoms: C_8  and  C_9
REMARK    5  A    between atoms: C_13  and  C_14
REMARK    6  A    between atoms: C_15  and  C_16
REMARK    7  A    between atoms: C_16  and  C_17
REMARK    8  A    between atoms: C_21  and  C_22
REMARK    9  A    between atoms: C_22  and  N_23
REMARK                            x       y       z     vdW  Elec       q    Type
REMARK                         _______ _______ _______ _____ _____    ______ ____
ROOT
ATOM      1  C   UNL     1      47.144   5.911  13.251  0.00  0.00    +0.000 A 
ATOM      2  C   UNL     1      46.815   6.354  11.972  0.00  0.00    +0.000 A 
ATOM      3  N   UNL     1      45.841   5.815  11.209  0.00  0.00    +0.000 NA
ATOM      4  C   UNL     1      45.168   4.771  11.764  0.00  0.00    +0.000 A 
ATOM      5  C   UNL     1      45.454   4.229  13.012  0.00  0.00    +0.000 A 
ATOM      6  C   UNL     1      46.483   4.786  13.779  0.00  0.00    +0.000 A 
ENDROOT
BRANCH   4   7
ATOM      7  C   UNL     1      44.016   4.240  10.970  0.00  0.00    +0.000 C 
ATOM      8  N   UNL     1      43.872   4.793   9.731  0.00  0.00    +0.000 N 
ATOM      9  O   UNL     1      43.245   3.395  11.404  0.00  0.00    +0.000 OA
ATOM     10  H   UNL     1      44.495   5.534   9.435  0.00  0.00    +0.000 HD
ATOM     11  H   UNL     1      43.059   4.556   9.169  0.00  0.00    +0.000 HD
ENDBRANCH   4   7
BRANCH   1  13
ATOM     12  C   UNL     1      48.979   7.159  14.647  0.00  0.00    +0.000 C 
ATOM     13  C   UNL     1      48.163   6.610  13.963  0.00  0.00    +0.000 C 
BRANCH  12  15
ATOM     14  C   UNL     1      49.086   7.764  16.978  0.00  0.00    +0.000 C 
ATOM     15  C   UNL     1      49.856   7.732  15.667  0.00  0.00    +0.000 C 
ENDBRANCH  12  15
ENDBRANCH   1  13
BRANCH   6  16
ATOM     16  C   UNL     1      46.791   4.242  15.125  0.00  0.00    +0.000 C 
ATOM     17  C   UNL     1      47.742   3.321  15.375  0.00  0.00    +0.000 C 
BRANCH  17  18
ATOM     18  C   UNL     1      48.055   2.744  16.736  0.00  0.00    +0.000 C 
BRANCH  18  19
ATOM     19  C   UNL     1      48.862   3.692  17.594  0.00  0.00    +0.000 A 
ATOM     20  C   UNL     1      50.219   3.895  17.311  0.00  0.00    +0.000 A 
ATOM     21  C   UNL     1      51.013   4.662  18.161  0.00  0.00    +0.000 A 
ATOM     22  C   UNL     1      50.462   5.227  19.310  0.00  0.00    +0.000 A 
ATOM     23  C   UNL     1      49.100   5.070  19.603  0.00  0.00    +0.000 A 
ATOM     24  C   UNL     1      48.303   4.310  18.727  0.00  0.00    +0.000 A 
BRANCH  23  25
ATOM     25  C   UNL     1      48.528   5.613  20.893  0.00  0.00    +0.000 C 
BRANCH  25  26
ATOM     26  N   UNL     1      47.818   4.605  21.679  0.00  0.00    +0.000 NA
ATOM     27  H   UNL     1      46.934   4.990  22.008  0.00  0.00    +0.000 HD
ATOM     28  H   UNL     1      47.568   3.829  21.067  0.00  0.00    +0.000 HD
ENDBRANCH  25  26
ENDBRANCH  23  25
ENDBRANCH  18  19
ENDBRANCH  17  18
ENDBRANCH   6  16
TORSDOF 8
ENDMDL
MODEL 6
REMARK VINA RESULT:    -5.960      2.815      6.059
REMARK INTER + INTRA:          -9.736
REMARK INTER:                  -8.225
REMARK INTRA:                  -1.511
REMARK UNBOUND:                -1.163
REMARK  Name = 
REMARK  9 active torsions:
REMARK  status: ('A' for Active; 'I' for Inactive)
REMARK    1  A    between atoms: C_1  and  C_2
REMARK    2  A    between atoms: C_2  and  C_3
REMARK    3  A    between atoms: C_4  and  C_5
REMARK    4  A    between atoms: C_8  and  C_9
REMARK    5  A    between atoms: C_13  and  C_14
REMARK    6  A    between atoms: C_15  and  C_16
REMARK    7  A    between atoms: C_16  and  C_17
REMARK    8  A    between atoms: C_21  and  C_22
REMARK    9  A    between atoms: C_22  and  N_23
REMARK                            x       y       z     vdW  Elec       q    Type
REMARK                         _______ _______ _______ _____ _____    ______ ____
ROOT
ATOM      1  C   UNL     1      46.698   5.291  13.127  0.00  0.00    +0.000 A 
ATOM      2  C   UNL     1      46.481   3.966  13.502  0.00  0.00    +0.000 A 
ATOM      3  N   UNL     1      45.614   3.135  12.888  0.00  0.00    +0.000 NA
ATOM      4  C   UNL     1      44.925   3.670  11.844  0.00  0.00    +0.000 A 
ATOM      5  C   UNL     1      45.037   4.991  11.425  0.00  0.00    +0.000 A 
ATOM      6  C   UNL     1      45.926   5.845  12.088  0.00  0.00    +0.000 A 
ENDROOT
BRANCH   4   7
ATOM      7  C   UNL     1      44.043   2.725  11.090  0.00  0.00    +0.000 C 
ATOM      8  N   UNL     1      44.536   2.320   9.883  0.00  0.00    +0.000 N 
ATOM      9  O   UNL     1      42.952   2.359  11.507  0.00  0.00    +0.000 OA
ATOM     10  H   UNL     1      45.415   2.695   9.548  0.00  0.00    +0.000 HD
ATOM     11  H   UNL     1      43.956   1.755   9.270  0.00  0.00    +0.000 HD
ENDBRANCH   4   7
BRANCH   1  13
ATOM     12  C   UNL     1      48.458   6.748  14.413  0.00  0.00    +0.000 C 
ATOM     13  C   UNL     1      47.685   6.037  13.835  0.00  0.00    +0.000 C 
BRANCH  12  15
ATOM     14  C   UNL     1      48.335   8.975  15.328  0.00  0.00    +0.000 C 
ATOM     15  C   UNL     1      49.253   7.794  15.053  0.00  0.00    +0.000 C 
ENDBRANCH  12  15
ENDBRANCH   1  13
BRANCH   6  16
ATOM     16  C   UNL     1      46.082   7.252  11.644  0.00  0.00    +0.000 C 
ATOM     17  C   UNL     1      45.724   8.326  12.374  0.00  0.00    +0.000 C 
BRANCH  17  18
ATOM     18  C   UNL     1      45.861   9.763  11.928  0.00  0.00    +0.000 C 
BRANCH  18  19
ATOM     19  C   UNL     1      47.298  10.232  11.922  0.00  0.00    +0.000 A 
ATOM     20  C   UNL     1      47.578  11.603  12.007  0.00  0.00    +0.000 A 
ATOM     21  C   UNL     1      48.885  12.068  11.875  0.00  0.00    +0.000 A 
ATOM     22  C   UNL     1      49.926  11.171  11.646  0.00  0.00    +0.000 A 
ATOM     23  C   UNL     1      49.683   9.791  11.589  0.00  0.00    +0.000 A 
ATOM     24  C   UNL     1      48.362   9.330  11.744  0.00  0.00    +0.000 A 
BRANCH  23  25
ATOM     25  C   UNL     1      50.802   8.830  11.256  0.00  0.00    +0.000 C 
BRANCH  25  26
ATOM     26  N   UNL     1      50.456   7.432  11.506  0.00  0.00    +0.000 NA
ATOM     27  H   UNL     1      50.054   7.024  10.664  0.00  0.00    +0.000 HD
ATOM     28  H   UNL     1      51.314   6.909  11.679  0.00  0.00    +0.000 HD
ENDBRANCH  25  26
ENDBRANCH  23  25
ENDBRANCH  18  19
ENDBRANCH  17  18
ENDBRANCH   6  16
TORSDOF 8
ENDMDL
MODEL 7
REMARK VINA RESULT:    -5.723      2.566      6.840
REMARK INTER + INTRA:          -9.396
REMARK INTER:                  -8.391
REMARK INTRA:                  -1.005
REMARK UNBOUND:                -1.163
REMARK  Name = 
REMARK  9 active torsions:
REMARK  status: ('A' for Active; 'I' for Inactive)
REMARK    1  A    between atoms: C_1  and  C_2
REMARK    2  A    between atoms: C_2  and  C_3
REMARK    3  A    between atoms: C_4  and  C_5
REMARK    4  A    between atoms: C_8  and  C_9
REMARK    5  A    between atoms: C_13  and  C_14
REMARK    6  A    between atoms: C_15  and  C_16
REMARK    7  A    between atoms: C_16  and  C_17
REMARK    8  A    between atoms: C_21  and  C_22
REMARK    9  A    between atoms: C_22  and  N_23
REMARK                            x       y       z     vdW  Elec       q    Type
REMARK                         _______ _______ _______ _____ _____    ______ ____
ROOT
ATOM      1  C   UNL     1      44.689   7.250  11.720  0.00  0.00    +0.000 A 
ATOM      2  C   UNL     1      43.692   6.642  10.959  0.00  0.00    +0.000 A 
ATOM      3  N   UNL     1      43.458   5.313  10.936  0.00  0.00    +0.000 NA
ATOM      4  C   UNL     1      44.276   4.558  11.718  0.00  0.00    +0.000 A 
ATOM      5  C   UNL     1      45.327   5.066  12.475  0.00  0.00    +0.000 A 
ATOM      6  C   UNL     1      45.568   6.444  12.468  0.00  0.00    +0.000 A 
ENDROOT
BRANCH   4   7
ATOM      7  C   UNL     1      43.953   3.098  11.783  0.00  0.00    +0.000 C 
ATOM      8  N   UNL     1      44.084   2.429  10.601  0.00  0.00    +0.000 N 
ATOM      9  O   UNL     1      43.574   2.547  12.808  0.00  0.00    +0.000 OA
ATOM     10  H   UNL     1      44.341   2.936   9.763  0.00  0.00    +0.000 HD
ATOM     11  H   UNL     1      43.792   1.458  10.540  0.00  0.00    +0.000 HD
ENDBRANCH   4   7
BRANCH   1  13
ATOM     12  C   UNL     1      44.972   9.855  11.663  0.00  0.00    +0.000 C 
ATOM     13  C   UNL     1      44.787   8.671  11.685  0.00  0.00    +0.000 C 
BRANCH  12  15
ATOM     14  C   UNL     1      46.950  11.233  11.711  0.00  0.00    +0.000 C 
ATOM     15  C   UNL     1      45.430  11.244  11.662  0.00  0.00    +0.000 C 
ENDBRANCH  12  15
ENDBRANCH   1  13
BRANCH   6  16
ATOM     16  C   UNL     1      46.667   7.014  13.287  0.00  0.00    +0.000 C 
ATOM     17  C   UNL     1      47.747   6.324  13.699  0.00  0.00    +0.000 C 
BRANCH  17  18
ATOM     18  C   UNL     1      48.865   6.886  14.548  0.00  0.00    +0.000 C 
BRANCH  18  19
ATOM     19  C   UNL     1      48.860   6.328  15.953  0.00  0.00    +0.000 A 
ATOM     20  C   UNL     1      49.491   7.040  16.981  0.00  0.00    +0.000 A 
ATOM     21  C   UNL     1      49.611   6.488  18.255  0.00  0.00    +0.000 A 
ATOM     22  C   UNL     1      49.111   5.213  18.514  0.00  0.00    +0.000 A 
ATOM     23  C   UNL     1      48.444   4.489  17.515  0.00  0.00    +0.000 A 
ATOM     24  C   UNL     1      48.311   5.064  16.237  0.00  0.00    +0.000 A 
BRANCH  23  25
ATOM     25  C   UNL     1      47.980   3.074  17.776  0.00  0.00    +0.000 C 
BRANCH  25  26
ATOM     26  N   UNL     1      46.529   2.916  17.689  0.00  0.00    +0.000 NA
ATOM     27  H   UNL     1      46.134   3.690  17.157  0.00  0.00    +0.000 HD
ATOM     28  H   UNL     1      46.323   2.079  17.146  0.00  0.00    +0.000 HD
ENDBRANCH  25  26
ENDBRANCH  23  25
ENDBRANCH  18  19
ENDBRANCH  17  18
ENDBRANCH   6  16
TORSDOF 8
ENDMDL
MODEL 8
REMARK VINA RESULT:    -5.580      3.126      4.328
REMARK INTER + INTRA:          -9.190
REMARK INTER:                  -8.308
REMARK INTRA:                  -0.882
REMARK UNBOUND:                -1.163
REMARK  Name = 
REMARK  9 active torsions:
REMARK  status: ('A' for Active; 'I' for Inactive)
REMARK    1  A    between atoms: C_1  and  C_2
REMARK    2  A    between atoms: C_2  and  C_3
REMARK    3  A    between atoms: C_4  and  C_5
REMARK    4  A    between atoms: C_8  and  C_9
REMARK    5  A    between atoms: C_13  and  C_14
REMARK    6  A    between atoms: C_15  and  C_16
REMARK    7  A    between atoms: C_16  and  C_17
REMARK    8  A    between atoms: C_21  and  C_22
REMARK    9  A    between atoms: C_22  and  N_23
REMARK                            x       y       z     vdW  Elec       q    Type
REMARK                         _______ _______ _______ _____ _____    ______ ____
ROOT
ATOM      1  C   UNL     1      45.655   9.384  11.974  0.00  0.00    +0.000 A 
ATOM      2  C   UNL     1      46.659  10.203  12.488  0.00  0.00    +0.000 A 
ATOM      3  N   UNL     1      47.879   9.766  12.862  0.00  0.00    +0.000 NA
ATOM      4  C   UNL     1      48.096   8.431  12.714  0.00  0.00    +0.000 A 
ATOM      5  C   UNL     1      47.144   7.527  12.256  0.00  0.00    +0.000 A 
ATOM      6  C   UNL     1      45.877   7.996  11.894  0.00  0.00    +0.000 A 
ENDROOT
BRANCH   4   7
ATOM      7  C   UNL     1      49.482   7.957  13.023  0.00  0.00    +0.000 C 
ATOM      8  N   UNL     1      49.951   6.979  12.196  0.00  0.00    +0.000 N 
ATOM      9  O   UNL     1      50.138   8.392  13.961  0.00  0.00    +0.000 OA
ATOM     10  H   UNL     1      49.352   6.604  11.471  0.00  0.00    +0.000 HD
ATOM     11  H   UNL     1      50.843   6.537  12.398  0.00  0.00    +0.000 HD
ENDBRANCH   4   7
BRANCH   1  13
ATOM     12  C   UNL     1      43.399  10.438  11.156  0.00  0.00    +0.000 C 
ATOM     13  C   UNL     1      44.431   9.993  11.571  0.00  0.00    +0.000 C 
BRANCH  12  15
ATOM     14  C   UNL     1      42.515  11.153   9.029  0.00  0.00    +0.000 C 
ATOM     15  C   UNL     1      42.164  10.820  10.472  0.00  0.00    +0.000 C 
ENDBRANCH  12  15
ENDBRANCH   1  13
BRANCH   6  16
ATOM     16  C   UNL     1      44.851   7.056  11.378  0.00  0.00    +0.000 C 
ATOM     17  C   UNL     1      45.111   5.809  10.940  0.00  0.00    +0.000 C 
BRANCH  17  18
ATOM     18  C   UNL     1      44.081   4.847  10.396  0.00  0.00    +0.000 C 
BRANCH  18  19
ATOM     19  C   UNL     1      44.685   3.817   9.469  0.00  0.00    +0.000 A 
ATOM     20  C   UNL     1      44.393   2.460   9.659  0.00  0.00    +0.000 A 
ATOM     21  C   UNL     1      45.035   1.483   8.901  0.00  0.00    +0.000 A 
ATOM     22  C   UNL     1      45.987   1.850   7.951  0.00  0.00    +0.000 A 
ATOM     23  C   UNL     1      46.277   3.201   7.713  0.00  0.00    +0.000 A 
ATOM     24  C   UNL     1      45.607   4.180   8.471  0.00  0.00    +0.000 A 
BRANCH  23  25
ATOM     25  C   UNL     1      47.370   3.590   6.743  0.00  0.00    +0.000 C 
BRANCH  25  26
ATOM     26  N   UNL     1      47.092   3.182   5.367  0.00  0.00    +0.000 NA
ATOM     27  H   UNL     1      46.192   3.558   5.075  0.00  0.00    +0.000 HD
ATOM     28  H   UNL     1      47.781   3.614   4.753  0.00  0.00    +0.000 HD
ENDBRANCH  25  26
ENDBRANCH  23  25
ENDBRANCH  18  19
ENDBRANCH  17  18
ENDBRANCH   6  16
TORSDOF 8
ENDMDL
MODEL 9
REMARK VINA RESULT:    -5.485      2.815      6.867
REMARK INTER + INTRA:          -9.053
REMARK INTER:                  -7.371
REMARK INTRA:                  -1.682
REMARK UNBOUND:                -1.163
REMARK  Name = 
REMARK  9 active torsions:
REMARK  status: ('A' for Active; 'I' for Inactive)
REMARK    1  A    between atoms: C_1  and  C_2
REMARK    2  A    between atoms: C_2  and  C_3
REMARK    3  A    between atoms: C_4  and  C_5
REMARK    4  A    between atoms: C_8  and  C_9
REMARK    5  A    between atoms: C_13  and  C_14
REMARK    6  A    between atoms: C_15  and  C_16
REMARK    7  A    between atoms: C_16  and  C_17
REMARK    8  A    between atoms: C_21  and  C_22
REMARK    9  A    between atoms: C_22  and  N_23
REMARK                            x       y       z     vdW  Elec       q    Type
REMARK                         _______ _______ _______ _____ _____    ______ ____
ROOT
ATOM      1  C   UNL     1      46.824   5.578  13.449  0.00  0.00    +0.000 A 
ATOM      2  C   UNL     1      45.908   4.573  13.755  0.00  0.00    +0.000 A 
ATOM      3  N   UNL     1      44.981   4.102  12.896  0.00  0.00    +0.000 NA
ATOM      4  C   UNL     1      44.974   4.680  11.664  0.00  0.00    +0.000 A 
ATOM      5  C   UNL     1      45.814   5.720  11.280  0.00  0.00    +0.000 A 
ATOM      6  C   UNL     1      46.754   6.210  12.193  0.00  0.00    +0.000 A 
ENDROOT
BRANCH   4   7
ATOM      7  C   UNL     1      44.023   4.089  10.671  0.00  0.00    +0.000 C 
ATOM      8  N   UNL     1      44.041   4.678   9.440  0.00  0.00    +0.000 N 
ATOM      9  O   UNL     1      43.268   3.165  10.944  0.00  0.00    +0.000 OA
ATOM     10  H   UNL     1      44.637   5.479   9.275  0.00  0.00    +0.000 HD
ATOM     11  H   UNL     1      43.358   4.398   8.741  0.00  0.00    +0.000 HD
ENDBRANCH   4   7
BRANCH   1  13
ATOM     12  C   UNL     1      48.534   6.330  15.288  0.00  0.00    +0.000 C 
ATOM     13  C   UNL     1      47.781   5.939  14.441  0.00  0.00    +0.000 C 
BRANCH  12  15
ATOM     14  C   UNL     1      48.732   8.396  16.515  0.00  0.00    +0.000 C 
ATOM     15  C   UNL     1      49.317   7.005  16.322  0.00  0.00    +0.000 C 
ENDBRANCH  12  15
ENDBRANCH   1  13
BRANCH   6  16
ATOM     16  C   UNL     1      47.679   7.301  11.800  0.00  0.00    +0.000 C 
ATOM     17  C   UNL     1      47.570   8.579  12.213  0.00  0.00    +0.000 C 
BRANCH  17  18
ATOM     18  C   UNL     1      48.493   9.705  11.807  0.00  0.00    +0.000 C 
BRANCH  18  19
ATOM     19  C   UNL     1      49.947   9.377  12.054  0.00  0.00    +0.000 A 
ATOM     20  C   UNL     1      50.789   9.103  10.968  0.00  0.00    +0.000 A 
ATOM     21  C   UNL     1      52.098   8.674  11.176  0.00  0.00    +0.000 A 
ATOM     22  C   UNL     1      52.580   8.505  12.473  0.00  0.00    +0.000 A 
ATOM     23  C   UNL     1      51.774   8.803  13.580  0.00  0.00    +0.000 A 
ATOM     24  C   UNL     1      50.459   9.254  13.358  0.00  0.00    +0.000 A 
BRANCH  23  25
ATOM     25  C   UNL     1      52.272   8.536  14.983  0.00  0.00    +0.000 C 
BRANCH  25  26
ATOM     26  N   UNL     1      52.769   7.174  15.170  0.00  0.00    +0.000 NA
ATOM     27  H   UNL     1      53.744   7.124  14.881  0.00  0.00    +0.000 HD
ATOM     28  H   UNL     1      52.768   6.959  16.166  0.00  0.00    +0.000 HD
ENDBRANCH  25  26
ENDBRANCH  23  25
ENDBRANCH  18  19
ENDBRANCH  17  18
ENDBRANCH   6  16
TORSDOF 8
ENDMDL
