MODEL 1
REMARK VINA RESULT:    -7.579      0.000      0.000
REMARK INTER + INTRA:         -10.640
REMARK INTER:                  -9.794
REMARK INTRA:                  -0.847
REMARK UNBOUND:                -0.847
REMARK  Name = 
REMARK  5 active torsions:
REMARK  status: ('A' for Active; 'I' for Inactive)
REMARK    1  A    between atoms: C_2  and  C_4
REMARK    2  A    between atoms: C_6  and  N_7
REMARK    3  A    between atoms: N_7  and  C_8
REMARK    4  A    between atoms: C_8  and  C_9
REMARK    5  A    between atoms: C_13  and  C_14
REMARK                            x       y       z     vdW  Elec       q    Type
REMARK                         _______ _______ _______ _____ _____    ______ ____
ROOT
ATOM      1  N   UNL     1      44.152   4.715   9.211  0.00  0.00    +0.000 N 
ATOM      2  H   UNL     1      44.608   5.601   9.007  0.00  0.00    +0.000 HD
ENDROOT
BRANCH   1   5
ATOM      3  C   UNL     1      46.440   2.590   7.212  0.00  0.00    +0.000 A 
ATOM      4  C   UNL     1      45.761   3.725   7.638  0.00  0.00    +0.000 A 
ATOM      5  C   UNL     1      44.823   3.614   8.664  0.00  0.00    +0.000 A 
ATOM      6  C   UNL     1      44.671   2.359   9.259  0.00  0.00    +0.000 A 
ATOM      7  C   UNL     1      45.388   1.274   8.764  0.00  0.00    +0.000 A 
ATOM      8  N   UNL     1      46.262   1.349   7.744  0.00  0.00    +0.000 NA
BRANCH   3  10
ATOM      9  N   UNL     1      48.752   2.568   6.474  0.00  0.00    +0.000 N 
ATOM     10  C   UNL     1      47.440   2.712   6.105  0.00  0.00    +0.000 C 
ATOM     11  O   UNL     1      47.120   2.922   4.942  0.00  0.00    +0.000 OA
ATOM     12  H   UNL     1      49.476   2.646   5.776  0.00  0.00    +0.000 HD
ATOM     13  H   UNL     1      48.980   2.396   7.445  0.00  0.00    +0.000 HD
ENDBRANCH   3  10
ENDBRANCH   1   5
BRANCH   1  14
ATOM     14  C   UNL     1      43.702   4.637  10.597  0.00  0.00    +0.000 C 
BRANCH  14  15
ATOM     15  C   UNL     1      44.849   4.940  11.530  0.00  0.00    +0.000 A 
ATOM     16  C   UNL     1      45.225   4.010  12.505  0.00  0.00    +0.000 A 
ATOM     17  C   UNL     1      46.306   4.269  13.340  0.00  0.00    +0.000 A 
ATOM     18  C   UNL     1      47.024   5.461  13.205  0.00  0.00    +0.000 A 
ATOM     19  C   UNL     1      46.684   6.417  12.231  0.00  0.00    +0.000 A 
ATOM     20  C   UNL     1      45.569   6.142  11.417  0.00  0.00    +0.000 A 
BRANCH  19  21
ATOM     21  C   UNL     1      47.507   7.631  12.022  0.00  0.00    +0.000 A 
ATOM     22  C   UNL     1      46.966   8.912  12.206  0.00  0.00    +0.000 A 
ATOM     23  C   UNL     1      47.774  10.029  12.052  0.00  0.00    +0.000 A 
ATOM     24  N   UNL     1      49.081   9.968  11.734  0.00  0.00    +0.000 NA
ATOM     25  C   UNL     1      49.597   8.736  11.556  0.00  0.00    +0.000 A 
ATOM     26  C   UNL     1      48.864   7.563  11.679  0.00  0.00    +0.000 A 
ENDBRANCH  19  21
ENDBRANCH  14  15
ENDBRANCH   1  14
TORSDOF 5
ENDMDL
MODEL 2
REMARK VINA RESULT:    -7.537      2.953      6.788
REMARK INTER + INTRA:         -10.586
REMARK INTER:                 -10.183
REMARK INTRA:                  -0.403
REMARK UNBOUND:                -0.847
REMARK  Name = 
REMARK  5 active torsions:
REMARK  status: ('A' for Active; 'I' for Inactive)
REMARK    1  A    between atoms: C_2  and  C_4
REMARK    2  A    between atoms: C_6  and  N_7
REMARK    3  A    between atoms: N_7  and  C_8
REMARK    4  A    between atoms: C_8  and  C_9
REMARK    5  A    between atoms: C_13  and  C_14
REMARK                            x       y       z     vdW  Elec       q    Type
REMARK                         _______ _______ _______ _____ _____    ______ ____
ROOT
ATOM      1  N   UNL     1      45.287   7.057  11.204  0.00  0.00    +0.000 N 
ATOM      2  H   UNL     1      45.222   8.037  10.943  0.00  0.00    +0.000 HD
ENDROOT
BRANCH   1   5
ATOM      3  C   UNL     1      47.300   5.494  13.898  0.00  0.00    +0.000 A 
ATOM      4  C   UNL     1      46.241   5.707  13.024  0.00  0.00    +0.000 A 
ATOM      5  C   UNL     1      46.270   6.811  12.172  0.00  0.00    +0.000 A 
ATOM      6  C   UNL     1      47.414   7.611  12.201  0.00  0.00    +0.000 A 
ATOM      7  C   UNL     1      48.426   7.329  13.113  0.00  0.00    +0.000 A 
ATOM      8  N   UNL     1      48.397   6.297  13.977  0.00  0.00    +0.000 NA
BRANCH   3  10
ATOM      9  N   UNL     1      47.164   4.605  16.151  0.00  0.00    +0.000 N 
ATOM     10  C   UNL     1      47.262   4.313  14.816  0.00  0.00    +0.000 C 
ATOM     11  O   UNL     1      47.311   3.158  14.413  0.00  0.00    +0.000 OA
ATOM     12  H   UNL     1      47.141   3.854  16.824  0.00  0.00    +0.000 HD
ATOM     13  H   UNL     1      47.127   5.572  16.448  0.00  0.00    +0.000 HD
ENDBRANCH   3  10
ENDBRANCH   1   5
BRANCH   1  14
ATOM     14  C   UNL     1      43.972   6.449  11.379  0.00  0.00    +0.000 C 
BRANCH  14  15
ATOM     15  C   UNL     1      44.033   4.981  11.036  0.00  0.00    +0.000 A 
ATOM     16  C   UNL     1      43.251   4.062  11.744  0.00  0.00    +0.000 A 
ATOM     17  C   UNL     1      43.275   2.713  11.403  0.00  0.00    +0.000 A 
ATOM     18  C   UNL     1      44.080   2.273  10.349  0.00  0.00    +0.000 A 
ATOM     19  C   UNL     1      44.873   3.167   9.606  0.00  0.00    +0.000 A 
ATOM     20  C   UNL     1      44.851   4.521   9.989  0.00  0.00    +0.000 A 
BRANCH  19  21
ATOM     21  C   UNL     1      45.645   2.714   8.426  0.00  0.00    +0.000 A 
ATOM     22  C   UNL     1      45.902   3.582   7.354  0.00  0.00    +0.000 A 
ATOM     23  C   UNL     1      46.671   3.146   6.285  0.00  0.00    +0.000 A 
ATOM     24  N   UNL     1      47.207   1.913   6.203  0.00  0.00    +0.000 NA
ATOM     25  C   UNL     1      46.957   1.082   7.234  0.00  0.00    +0.000 A 
ATOM     26  C   UNL     1      46.191   1.426   8.340  0.00  0.00    +0.000 A 
ENDBRANCH  19  21
ENDBRANCH  14  15
ENDBRANCH   1  14
TORSDOF 5
ENDMDL
MODEL 3
REMARK VINA RESULT:    -7.317      2.578      3.709
REMARK INTER + INTRA:         -10.302
REMARK INTER:                  -9.403
REMARK INTRA:                  -0.899
REMARK UNBOUND:                -0.847
REMARK  Name = 
REMARK  5 active torsions:
REMARK  status: ('A' for Active; 'I' for Inactive)
REMARK    1  A    between atoms: C_2  and  C_4
REMARK    2  A    between atoms: C_6  and  N_7
REMARK    3  A    between atoms: N_7  and  C_8
REMARK    4  A    between atoms: C_8  and  C_9
REMARK    5  A    between atoms: C_13  and  C_14
REMARK                            x       y       z     vdW  Elec       q    Type
REMARK                         _______ _______ _______ _____ _____    ______ ____
ROOT
ATOM      1  N   UNL     1      44.617   5.440   9.943  0.00  0.00    +0.000 N 
ATOM      2  H   UNL     1      45.177   6.205   9.577  0.00  0.00    +0.000 HD
ENDROOT
BRANCH   1   5
ATOM      3  C   UNL     1      46.211   2.775   7.918  0.00  0.00    +0.000 A 
ATOM      4  C   UNL     1      45.905   4.049   8.378  0.00  0.00    +0.000 A 
ATOM      5  C   UNL     1      44.931   4.204   9.364  0.00  0.00    +0.000 A 
ATOM      6  C   UNL     1      44.361   3.041   9.888  0.00  0.00    +0.000 A 
ATOM      7  C   UNL     1      44.722   1.804   9.363  0.00  0.00    +0.000 A 
ATOM      8  N   UNL     1      45.624   1.635   8.379  0.00  0.00    +0.000 NA
BRANCH   3  10
ATOM      9  N   UNL     1      47.102   3.417   5.754  0.00  0.00    +0.000 N 
ATOM     10  C   UNL     1      47.251   2.613   6.853  0.00  0.00    +0.000 C 
ATOM     11  O   UNL     1      48.179   1.821   6.949  0.00  0.00    +0.000 OA
ATOM     12  H   UNL     1      47.766   3.352   4.998  0.00  0.00    +0.000 HD
ATOM     13  H   UNL     1      46.321   4.060   5.709  0.00  0.00    +0.000 HD
ENDBRANCH   3  10
ENDBRANCH   1   5
BRANCH   1  14
ATOM     14  C   UNL     1      44.473   5.512  11.393  0.00  0.00    +0.000 C 
BRANCH  14  15
ATOM     15  C   UNL     1      45.800   5.850  12.028  0.00  0.00    +0.000 A 
ATOM     16  C   UNL     1      46.669   6.748  11.400  0.00  0.00    +0.000 A 
ATOM     17  C   UNL     1      47.876   7.091  12.002  0.00  0.00    +0.000 A 
ATOM     18  C   UNL     1      48.220   6.541  13.240  0.00  0.00    +0.000 A 
ATOM     19  C   UNL     1      47.368   5.642  13.908  0.00  0.00    +0.000 A 
ATOM     20  C   UNL     1      46.167   5.291  13.265  0.00  0.00    +0.000 A 
BRANCH  19  21
ATOM     21  C   UNL     1      47.689   5.141  15.265  0.00  0.00    +0.000 A 
ATOM     22  C   UNL     1      48.563   5.844  16.108  0.00  0.00    +0.000 A 
ATOM     23  C   UNL     1      48.805   5.377  17.391  0.00  0.00    +0.000 A 
ATOM     24  N   UNL     1      48.241   4.266  17.902  0.00  0.00    +0.000 NA
ATOM     25  C   UNL     1      47.402   3.593  17.089  0.00  0.00    +0.000 A 
ATOM     26  C   UNL     1      47.108   3.978  15.787  0.00  0.00    +0.000 A 
ENDBRANCH  19  21
ENDBRANCH  14  15
ENDBRANCH   1  14
TORSDOF 5
ENDMDL
MODEL 4
REMARK VINA RESULT:    -7.067      2.831      6.841
REMARK INTER + INTRA:          -9.979
REMARK INTER:                  -9.151
REMARK INTRA:                  -0.828
REMARK UNBOUND:                -0.847
REMARK  Name = 
REMARK  5 active torsions:
REMARK  status: ('A' for Active; 'I' for Inactive)
REMARK    1  A    between atoms: C_2  and  C_4
REMARK    2  A    between atoms: C_6  and  N_7
REMARK    3  A    between atoms: N_7  and  C_8
REMARK    4  A    between atoms: C_8  and  C_9
REMARK    5  A    between atoms: C_13  and  C_14
REMARK                            x       y       z     vdW  Elec       q    Type
REMARK                         _______ _______ _______ _____ _____    ______ ____
ROOT
ATOM      1  N   UNL     1      44.322   6.483  12.489  0.00  0.00    +0.000 N 
ATOM      2  H   UNL     1      43.582   6.075  13.054  0.00  0.00    +0.000 HD
ENDROOT
BRANCH   1   5
ATOM      3  C   UNL     1      47.881   6.801  13.482  0.00  0.00    +0.000 A 
ATOM      4  C   UNL     1      46.664   7.115  12.889  0.00  0.00    +0.000 A 
ATOM      5  C   UNL     1      45.604   6.214  12.986  0.00  0.00    +0.000 A 
ATOM      6  C   UNL     1      45.813   5.061  13.746  0.00  0.00    +0.000 A 
ATOM      7  C   UNL     1      47.066   4.822  14.301  0.00  0.00    +0.000 A 
ATOM      8  N   UNL     1      48.116   5.655  14.179  0.00  0.00    +0.000 NA
BRANCH   3  10
ATOM      9  N   UNL     1      48.765   8.897  12.638  0.00  0.00    +0.000 N 
ATOM     10  C   UNL     1      49.019   7.766  13.369  0.00  0.00    +0.000 C 
ATOM     11  O   UNL     1      50.108   7.571  13.893  0.00  0.00    +0.000 OA
ATOM     12  H   UNL     1      49.493   9.584  12.517  0.00  0.00    +0.000 HD
ATOM     13  H   UNL     1      47.853   9.024  12.218  0.00  0.00    +0.000 HD
ENDBRANCH   3  10
ENDBRANCH   1   5
BRANCH   1  14
ATOM     14  C   UNL     1      44.080   6.311  11.061  0.00  0.00    +0.000 C 
BRANCH  14  15
ATOM     15  C   UNL     1      44.182   4.851  10.693  0.00  0.00    +0.000 A 
ATOM     16  C   UNL     1      43.397   3.903  11.358  0.00  0.00    +0.000 A 
ATOM     17  C   UNL     1      43.460   2.562  10.993  0.00  0.00    +0.000 A 
ATOM     18  C   UNL     1      44.307   2.158   9.957  0.00  0.00    +0.000 A 
ATOM     19  C   UNL     1      45.105   3.082   9.257  0.00  0.00    +0.000 A 
ATOM     20  C   UNL     1      45.043   4.428   9.664  0.00  0.00    +0.000 A 
BRANCH  19  21
ATOM     21  C   UNL     1      45.924   2.667   8.094  0.00  0.00    +0.000 A 
ATOM     22  C   UNL     1      46.458   1.372   8.011  0.00  0.00    +0.000 A 
ATOM     23  C   UNL     1      47.178   0.997   6.887  0.00  0.00    +0.000 A 
ATOM     24  N   UNL     1      47.405   1.810   5.838  0.00  0.00    +0.000 NA
ATOM     25  C   UNL     1      46.892   3.053   5.922  0.00  0.00    +0.000 A 
ATOM     26  C   UNL     1      46.167   3.521   7.011  0.00  0.00    +0.000 A 
ENDBRANCH  19  21
ENDBRANCH  14  15
ENDBRANCH   1  14
TORSDOF 5
ENDMDL
MODEL 5
REMARK VINA RESULT:    -6.830      2.404      4.267
REMARK INTER + INTRA:          -9.673
REMARK INTER:                  -8.879
REMARK INTRA:                  -0.794
REMARK UNBOUND:                -0.847
REMARK  Name = 
REMARK  5 active torsions:
REMARK  status: ('A' for Active; 'I' for Inactive)
REMARK    1  A    between atoms: C_2  and  C_4
REMARK    2  A    between atoms: C_6  and  N_7
REMARK    3  A    between atoms: N_7  and  C_8
REMARK    4  A    between atoms: C_8  and  C_9
REMARK    5  A    between atoms: C_13  and  C_14
REMARK                            x       y       z     vdW  Elec       q    Type
REMARK                         _______ _______ _______ _____ _____    ______ ____
ROOT
ATOM      1  N   UNL     1      45.759   5.544  13.568  0.00  0.00    +0.000 N 
ATOM      2  H   UNL     1      45.370   6.450  13.814  0.00  0.00    +0.000 HD
ENDROOT
BRANCH   1   5
ATOM      3  C   UNL     1      44.630   4.172  10.314  0.00  0.00    +0.000 A 
ATOM      4  C   UNL     1      45.363   4.926  11.222  0.00  0.00    +0.000 A 
ATOM      5  C   UNL     1      45.026   4.881  12.574  0.00  0.00    +0.000 A 
ATOM      6  C   UNL     1      43.999   4.013  12.950  0.00  0.00    +0.000 A 
ATOM      7  C   UNL     1      43.313   3.299  11.972  0.00  0.00    +0.000 A 
ATOM      8  N   UNL     1      43.589   3.364  10.657  0.00  0.00    +0.000 NA
BRANCH   3  10
ATOM      9  N   UNL     1      44.291   3.377   8.046  0.00  0.00    +0.000 N 
ATOM     10  C   UNL     1      44.989   4.228   8.861  0.00  0.00    +0.000 C 
ATOM     11  O   UNL     1      45.846   4.983   8.419  0.00  0.00    +0.000 OA
ATOM     12  H   UNL     1      44.490   3.361   7.058  0.00  0.00    +0.000 HD
ATOM     13  H   UNL     1      43.590   2.766   8.447  0.00  0.00    +0.000 HD
ENDBRANCH   3  10
ENDBRANCH   1   5
BRANCH   1  14
ATOM     14  C   UNL     1      47.213   5.588  13.446  0.00  0.00    +0.000 C 
BRANCH  14  15
ATOM     15  C   UNL     1      47.645   6.929  12.904  0.00  0.00    +0.000 A 
ATOM     16  C   UNL     1      48.973   7.134  12.516  0.00  0.00    +0.000 A 
ATOM     17  C   UNL     1      49.365   8.356  11.979  0.00  0.00    +0.000 A 
ATOM     18  C   UNL     1      48.429   9.383  11.823  0.00  0.00    +0.000 A 
ATOM     19  C   UNL     1      47.082   9.213  12.192  0.00  0.00    +0.000 A 
ATOM     20  C   UNL     1      46.718   7.977  12.758  0.00  0.00    +0.000 A 
BRANCH  19  21
ATOM     21  C   UNL     1      46.073  10.266  11.932  0.00  0.00    +0.000 A 
ATOM     22  C   UNL     1      44.716   9.944  11.780  0.00  0.00    +0.000 A 
ATOM     23  C   UNL     1      43.787  10.956  11.587  0.00  0.00    +0.000 A 
ATOM     24  N   UNL     1      44.105  12.264  11.538  0.00  0.00    +0.000 NA
ATOM     25  C   UNL     1      45.409  12.569  11.682  0.00  0.00    +0.000 A 
ATOM     26  C   UNL     1      46.411  11.624  11.869  0.00  0.00    +0.000 A 
ENDBRANCH  19  21
ENDBRANCH  14  15
ENDBRANCH   1  14
TORSDOF 5
ENDMDL
MODEL 6
REMARK VINA RESULT:    -6.624      4.860      8.123
REMARK INTER + INTRA:          -9.407
REMARK INTER:                  -8.611
REMARK INTRA:                  -0.795
REMARK UNBOUND:                -0.847
REMARK  Name = 
REMARK  5 active torsions:
REMARK  status: ('A' for Active; 'I' for Inactive)
REMARK    1  A    between atoms: C_2  and  C_4
REMARK    2  A    between atoms: C_6  and  N_7
REMARK    3  A    between atoms: N_7  and  C_8
REMARK    4  A    between atoms: C_8  and  C_9
REMARK    5  A    between atoms: C_13  and  C_14
REMARK                            x       y       z     vdW  Elec       q    Type
REMARK                         _______ _______ _______ _____ _____    ______ ____
ROOT
ATOM      1  N   UNL     1      48.518   6.978  16.219  0.00  0.00    +0.000 N 
ATOM      2  H   UNL     1      47.697   7.553  16.384  0.00  0.00    +0.000 HD
ENDROOT
BRANCH   1   5
ATOM      3  C   UNL     1      49.216   3.563  17.483  0.00  0.00    +0.000 A 
ATOM      4  C   UNL     1      49.164   4.637  16.604  0.00  0.00    +0.000 A 
ATOM      5  C   UNL     1      48.546   5.820  17.008  0.00  0.00    +0.000 A 
ATOM      6  C   UNL     1      48.071   5.878  18.320  0.00  0.00    +0.000 A 
ATOM      7  C   UNL     1      48.159   4.752  19.132  0.00  0.00    +0.000 A 
ATOM      8  N   UNL     1      48.708   3.585  18.747  0.00  0.00    +0.000 NA
BRANCH   3  10
ATOM      9  N   UNL     1      50.951   1.894  17.789  0.00  0.00    +0.000 N 
ATOM     10  C   UNL     1      49.873   2.291  17.044  0.00  0.00    +0.000 C 
ATOM     11  O   UNL     1      49.479   1.639  16.085  0.00  0.00    +0.000 OA
ATOM     12  H   UNL     1      51.443   1.049  17.540  0.00  0.00    +0.000 HD
ATOM     13  H   UNL     1      51.249   2.459  18.574  0.00  0.00    +0.000 HD
ENDBRANCH   3  10
ENDBRANCH   1   5
BRANCH   1  14
ATOM     14  C   UNL     1      48.825   6.857  14.797  0.00  0.00    +0.000 C 
BRANCH  14  15
ATOM     15  C   UNL     1      47.587   7.125  13.977  0.00  0.00    +0.000 A 
ATOM     16  C   UNL     1      47.214   8.440  13.680  0.00  0.00    +0.000 A 
ATOM     17  C   UNL     1      46.095   8.689  12.891  0.00  0.00    +0.000 A 
ATOM     18  C   UNL     1      45.343   7.623  12.390  0.00  0.00    +0.000 A 
ATOM     19  C   UNL     1      45.691   6.286  12.657  0.00  0.00    +0.000 A 
ATOM     20  C   UNL     1      46.811   6.063  13.481  0.00  0.00    +0.000 A 
BRANCH  19  21
ATOM     21  C   UNL     1      44.953   5.159  12.042  0.00  0.00    +0.000 A 
ATOM     22  C   UNL     1      44.300   4.203  12.835  0.00  0.00    +0.000 A 
ATOM     23  C   UNL     1      43.575   3.188  12.230  0.00  0.00    +0.000 A 
ATOM     24  N   UNL     1      43.445   3.053  10.897  0.00  0.00    +0.000 NA
ATOM     25  C   UNL     1      44.074   3.972  10.138  0.00  0.00    +0.000 A 
ATOM     26  C   UNL     1      44.831   5.017  10.653  0.00  0.00    +0.000 A 
ENDBRANCH  19  21
ENDBRANCH  14  15
ENDBRANCH   1  14
TORSDOF 5
ENDMDL
MODEL 7
REMARK VINA RESULT:    -6.579      3.200      4.905
REMARK INTER + INTRA:          -9.348
REMARK INTER:                  -8.506
REMARK INTRA:                  -0.843
REMARK UNBOUND:                -0.847
REMARK  Name = 
REMARK  5 active torsions:
REMARK  status: ('A' for Active; 'I' for Inactive)
REMARK    1  A    between atoms: C_2  and  C_4
REMARK    2  A    between atoms: C_6  and  N_7
REMARK    3  A    between atoms: N_7  and  C_8
REMARK    4  A    between atoms: C_8  and  C_9
REMARK    5  A    between atoms: C_13  and  C_14
REMARK                            x       y       z     vdW  Elec       q    Type
REMARK                         _______ _______ _______ _____ _____    ______ ____
ROOT
ATOM      1  N   UNL     1      45.122   6.103  13.259  0.00  0.00    +0.000 N 
ATOM      2  H   UNL     1      44.478   6.865  13.454  0.00  0.00    +0.000 HD
ENDROOT
BRANCH   1   5
ATOM      3  C   UNL     1      44.560   4.164  10.149  0.00  0.00    +0.000 A 
ATOM      4  C   UNL     1      45.045   5.157  10.991  0.00  0.00    +0.000 A 
ATOM      5  C   UNL     1      44.625   5.189  12.321  0.00  0.00    +0.000 A 
ATOM      6  C   UNL     1      43.781   4.162  12.750  0.00  0.00    +0.000 A 
ATOM      7  C   UNL     1      43.339   3.210  11.837  0.00  0.00    +0.000 A 
ATOM      8  N   UNL     1      43.693   3.188  10.538  0.00  0.00    +0.000 NA
BRANCH   3  10
ATOM      9  N   UNL     1      44.381   3.217   7.922  0.00  0.00    +0.000 N 
ATOM     10  C   UNL     1      45.007   4.137   8.720  0.00  0.00    +0.000 C 
ATOM     11  O   UNL     1      45.872   4.885   8.282  0.00  0.00    +0.000 OA
ATOM     12  H   UNL     1      44.641   3.142   6.951  0.00  0.00    +0.000 HD
ATOM     13  H   UNL     1      43.671   2.614   8.319  0.00  0.00    +0.000 HD
ENDBRANCH   3  10
ENDBRANCH   1   5
BRANCH   1  14
ATOM     14  C   UNL     1      46.496   6.573  13.110  0.00  0.00    +0.000 C 
BRANCH  14  15
ATOM     15  C   UNL     1      46.503   8.015  12.666  0.00  0.00    +0.000 A 
ATOM     16  C   UNL     1      47.702   8.735  12.638  0.00  0.00    +0.000 A 
ATOM     17  C   UNL     1      47.718  10.052  12.191  0.00  0.00    +0.000 A 
ATOM     18  C   UNL     1      46.534  10.660  11.765  0.00  0.00    +0.000 A 
ATOM     19  C   UNL     1      45.309   9.967  11.768  0.00  0.00    +0.000 A 
ATOM     20  C   UNL     1      45.316   8.645  12.251  0.00  0.00    +0.000 A 
BRANCH  19  21
ATOM     21  C   UNL     1      44.076  10.579  11.221  0.00  0.00    +0.000 A 
ATOM     22  C   UNL     1      43.956  11.971  11.092  0.00  0.00    +0.000 A 
ATOM     23  C   UNL     1      42.809  12.512  10.530  0.00  0.00    +0.000 A 
ATOM     24  N   UNL     1      41.775  11.775  10.083  0.00  0.00    +0.000 NA
ATOM     25  C   UNL     1      41.893  10.439  10.210  0.00  0.00    +0.000 A 
ATOM     26  C   UNL     1      42.997   9.807  10.769  0.00  0.00    +0.000 A 
ENDBRANCH  19  21
ENDBRANCH  14  15
ENDBRANCH   1  14
TORSDOF 5
ENDMDL
MODEL 8
REMARK VINA RESULT:    -6.263      3.364      5.148
REMARK INTER + INTRA:          -8.941
REMARK INTER:                  -8.129
REMARK INTRA:                  -0.812
REMARK UNBOUND:                -0.847
REMARK  Name = 
REMARK  5 active torsions:
REMARK  status: ('A' for Active; 'I' for Inactive)
REMARK    1  A    between atoms: C_2  and  C_4
REMARK    2  A    between atoms: C_6  and  N_7
REMARK    3  A    between atoms: N_7  and  C_8
REMARK    4  A    between atoms: C_8  and  C_9
REMARK    5  A    between atoms: C_13  and  C_14
REMARK                            x       y       z     vdW  Elec       q    Type
REMARK                         _______ _______ _______ _____ _____    ______ ____
ROOT
ATOM      1  N   UNL     1      45.554   6.647  12.269  0.00  0.00    +0.000 N 
ATOM      2  H   UNL     1      44.995   7.496  12.307  0.00  0.00    +0.000 HD
ENDROOT
BRANCH   1   5
ATOM      3  C   UNL     1      44.341   3.713  10.354  0.00  0.00    +0.000 A 
ATOM      4  C   UNL     1      45.057   4.866  10.649  0.00  0.00    +0.000 A 
ATOM      5  C   UNL     1      44.822   5.526  11.855  0.00  0.00    +0.000 A 
ATOM      6  C   UNL     1      43.915   4.939  12.739  0.00  0.00    +0.000 A 
ATOM      7  C   UNL     1      43.237   3.785  12.361  0.00  0.00    +0.000 A 
ATOM      8  N   UNL     1      43.413   3.158  11.182  0.00  0.00    +0.000 NA
BRANCH   3  10
ATOM      9  N   UNL     1      44.736   1.652   9.136  0.00  0.00    +0.000 N 
ATOM     10  C   UNL     1      44.590   3.011   9.055  0.00  0.00    +0.000 C 
ATOM     11  O   UNL     1      44.657   3.602   7.985  0.00  0.00    +0.000 OA
ATOM     12  H   UNL     1      44.913   1.120   8.298  0.00  0.00    +0.000 HD
ATOM     13  H   UNL     1      44.676   1.197  10.039  0.00  0.00    +0.000 HD
ENDBRANCH   3  10
ENDBRANCH   1   5
BRANCH   1  14
ATOM     14  C   UNL     1      46.864   6.881  11.672  0.00  0.00    +0.000 C 
BRANCH  14  15
ATOM     15  C   UNL     1      47.912   6.991  12.752  0.00  0.00    +0.000 A 
ATOM     16  C   UNL     1      49.019   7.828  12.574  0.00  0.00    +0.000 A 
ATOM     17  C   UNL     1      49.966   7.961  13.584  0.00  0.00    +0.000 A 
ATOM     18  C   UNL     1      49.812   7.259  14.783  0.00  0.00    +0.000 A 
ATOM     19  C   UNL     1      48.709   6.415  15.005  0.00  0.00    +0.000 A 
ATOM     20  C   UNL     1      47.780   6.277  13.956  0.00  0.00    +0.000 A 
BRANCH  19  21
ATOM     21  C   UNL     1      48.495   5.753  16.313  0.00  0.00    +0.000 A 
ATOM     22  C   UNL     1      47.771   4.555  16.406  0.00  0.00    +0.000 A 
ATOM     23  C   UNL     1      47.630   3.932  17.637  0.00  0.00    +0.000 A 
ATOM     24  N   UNL     1      48.158   4.407  18.781  0.00  0.00    +0.000 NA
ATOM     25  C   UNL     1      48.852   5.558  18.687  0.00  0.00    +0.000 A 
ATOM     26  C   UNL     1      49.037   6.258  17.502  0.00  0.00    +0.000 A 
ENDBRANCH  19  21
ENDBRANCH  14  15
ENDBRANCH   1  14
TORSDOF 5
ENDMDL
MODEL 9
REMARK VINA RESULT:    -6.263      5.354      7.151
REMARK INTER + INTRA:          -8.940
REMARK INTER:                  -8.355
REMARK INTRA:                  -0.585
REMARK UNBOUND:                -0.847
REMARK  Name = 
REMARK  5 active torsions:
REMARK  status: ('A' for Active; 'I' for Inactive)
REMARK    1  A    between atoms: C_2  and  C_4
REMARK    2  A    between atoms: C_6  and  N_7
REMARK    3  A    between atoms: N_7  and  C_8
REMARK    4  A    between atoms: C_8  and  C_9
REMARK    5  A    between atoms: C_13  and  C_14
REMARK                            x       y       z     vdW  Elec       q    Type
REMARK                         _______ _______ _______ _____ _____    ______ ____
ROOT
ATOM      1  N   UNL     1      47.012   5.282  14.624  0.00  0.00    +0.000 N 
ATOM      2  H   UNL     1      47.961   5.644  14.650  0.00  0.00    +0.000 HD
ENDROOT
BRANCH   1   5
ATOM      3  C   UNL     1      44.482   5.437  11.917  0.00  0.00    +0.000 A 
ATOM      4  C   UNL     1      45.059   5.116  13.140  0.00  0.00    +0.000 A 
ATOM      5  C   UNL     1      46.378   5.492  13.392  0.00  0.00    +0.000 A 
ATOM      6  C   UNL     1      47.029   6.241  12.409  0.00  0.00    +0.000 A 
ATOM      7  C   UNL     1      46.378   6.512  11.209  0.00  0.00    +0.000 A 
ATOM      8  N   UNL     1      45.122   6.118  10.926  0.00  0.00    +0.000 NA
BRANCH   3  10
ATOM      9  N   UNL     1      42.132   6.018  11.761  0.00  0.00    +0.000 N 
ATOM     10  C   UNL     1      43.069   5.025  11.646  0.00  0.00    +0.000 C 
ATOM     11  O   UNL     1      42.758   3.881  11.339  0.00  0.00    +0.000 OA
ATOM     12  H   UNL     1      41.159   5.805  11.599  0.00  0.00    +0.000 HD
ATOM     13  H   UNL     1      42.424   6.952  12.018  0.00  0.00    +0.000 HD
ENDBRANCH   3  10
ENDBRANCH   1   5
BRANCH   1  14
ATOM     14  C   UNL     1      46.911   3.964  15.241  0.00  0.00    +0.000 C 
BRANCH  14  15
ATOM     15  C   UNL     1      47.604   3.967  16.582  0.00  0.00    +0.000 A 
ATOM     16  C   UNL     1      48.542   2.977  16.890  0.00  0.00    +0.000 A 
ATOM     17  C   UNL     1      49.210   3.000  18.110  0.00  0.00    +0.000 A 
ATOM     18  C   UNL     1      48.947   4.018  19.031  0.00  0.00    +0.000 A 
ATOM     19  C   UNL     1      48.018   5.038  18.755  0.00  0.00    +0.000 A 
ATOM     20  C   UNL     1      47.336   4.975  17.526  0.00  0.00    +0.000 A 
BRANCH  19  21
ATOM     21  C   UNL     1      47.817   6.170  19.689  0.00  0.00    +0.000 A 
ATOM     22  C   UNL     1      47.775   7.493  19.223  0.00  0.00    +0.000 A 
ATOM     23  C   UNL     1      47.534   8.528  20.114  0.00  0.00    +0.000 A 
ATOM     24  N   UNL     1      47.328   8.348  21.432  0.00  0.00    +0.000 NA
ATOM     25  C   UNL     1      47.371   7.077  21.876  0.00  0.00    +0.000 A 
ATOM     26  C   UNL     1      47.615   5.978  21.062  0.00  0.00    +0.000 A 
ENDBRANCH  19  21
ENDBRANCH  14  15
ENDBRANCH   1  14
TORSDOF 5
ENDMDL
