MODEL 1
REMARK VINA RESULT:    -8.148      0.000      0.000
REMARK INTER + INTRA:         -14.047
REMARK INTER:                 -12.674
REMARK INTRA:                  -1.373
REMARK UNBOUND:                -1.373
REMARK  Name = 
REMARK  10 active torsions:
REMARK  status: ('A' for Active; 'I' for Inactive)
REMARK    1  A    between atoms: C_2  and  C_20
REMARK    2  A    between atoms: N_3  and  C_4
REMARK    3  A    between atoms: C_4  and  C_5
REMARK    4  A    between atoms: C_8  and  C_9
REMARK    5  A    between atoms: C_9  and  N_10
REMARK    6  A    between atoms: N_10  and  C_11
REMARK    7  A    between atoms: C_11  and  C_12
REMARK    8  A    between atoms: N_28  and  C_29
REMARK    9  A    between atoms: C_29  and  C_30
REMARK   10  A    between atoms: C_30  and  O_31
REMARK                            x       y       z     vdW  Elec       q    Type
REMARK                         _______ _______ _______ _____ _____    ______ ____
ROOT
ATOM      1  O   UNL     1      50.108   6.514  15.310  0.00  0.00    +0.000 OA
ATOM      2  C   UNL     1      49.013   7.000  15.592  0.00  0.00    +0.000 C 
ATOM      3  N   UNL     1      48.005   7.167  14.668  0.00  0.00    +0.000 N 
ATOM      4  H   UNL     1      47.215   7.750  14.903  0.00  0.00    +0.000 HD
ENDROOT
BRANCH   2   5
ATOM      5  C   UNL     1      48.713   7.472  16.935  0.00  0.00    +0.000 A 
ATOM      6  C   UNL     1      48.300   8.750  17.297  0.00  0.00    +0.000 A 
ATOM      7  N   UNL     1      48.068   8.760  18.648  0.00  0.00    +0.000 N 
ATOM      8  C   UNL     1      48.344   7.529  19.173  0.00  0.00    +0.000 A 
ATOM      9  N   UNL     1      48.240   7.226  20.476  0.00  0.00    +0.000 NA
ATOM     10  C   UNL     1      48.572   5.947  20.703  0.00  0.00    +0.000 A 
ATOM     11  N   UNL     1      48.955   5.018  19.807  0.00  0.00    +0.000 NA
ATOM     12  C   UNL     1      49.061   5.363  18.499  0.00  0.00    +0.000 A 
ATOM     13  N   UNL     1      49.528   4.432  17.580  0.00  0.00    +0.000 N 
ATOM     14  C   UNL     1      48.740   6.691  18.145  0.00  0.00    +0.000 A 
ATOM     15  H   UNL     1      47.738   9.540  19.198  0.00  0.00    +0.000 HD
ATOM     16  H   UNL     1      49.415   4.729  16.609  0.00  0.00    +0.000 HD
BRANCH  13  17
ATOM     17  C   UNL     1      49.230   3.023  17.818  0.00  0.00    +0.000 C 
BRANCH  17  18
ATOM     18  C   UNL     1      50.289   2.108  17.193  0.00  0.00    +0.000 C 
BRANCH  18  19
ATOM     19  O   UNL     1      49.881   1.640  15.907  0.00  0.00    +0.000 OA
ATOM     20  H   UNL     1      50.082   2.346  15.263  0.00  0.00    +0.000 HD
ENDBRANCH  18  19
ENDBRANCH  17  18
ENDBRANCH  13  17
ENDBRANCH   2   5
BRANCH   3  21
ATOM     21  C   UNL     1      48.229   6.823  13.284  0.00  0.00    +0.000 C 
BRANCH  21  22
ATOM     22  C   UNL     1      47.062   6.095  12.671  0.00  0.00    +0.000 A 
ATOM     23  C   UNL     1      46.423   5.058  13.364  0.00  0.00    +0.000 A 
ATOM     24  C   UNL     1      45.305   4.417  12.815  0.00  0.00    +0.000 A 
ATOM     25  C   UNL     1      44.803   4.793  11.561  0.00  0.00    +0.000 A 
ATOM     26  C   UNL     1      45.460   5.810  10.857  0.00  0.00    +0.000 A 
ATOM     27  C   UNL     1      46.581   6.451  11.404  0.00  0.00    +0.000 A 
BRANCH  25  28
ATOM     28  C   UNL     1      43.580   4.109  10.983  0.00  0.00    +0.000 C 
BRANCH  28  29
ATOM     29  N   UNL     1      43.834   3.653   9.618  0.00  0.00    +0.000 NA
ATOM     30  H   UNL     1      44.398   4.356   9.138  0.00  0.00    +0.000 HD
BRANCH  29  31
ATOM     31  C   UNL     1      44.579   2.386   9.595  0.00  0.00    +0.000 C 
BRANCH  31  32
ATOM     32  C   UNL     1      45.577   2.341   8.450  0.00  0.00    +0.000 A 
ATOM     33  C   UNL     1      45.790   3.473   7.661  0.00  0.00    +0.000 A 
ATOM     34  C   UNL     1      46.733   3.419   6.639  0.00  0.00    +0.000 A 
ATOM     35  C   UNL     1      47.433   2.239   6.423  0.00  0.00    +0.000 A 
ATOM     36  C   UNL     1      47.158   1.157   7.242  0.00  0.00    +0.000 A 
ATOM     37  N   UNL     1      46.253   1.180   8.248  0.00  0.00    +0.000 NA
ENDBRANCH  31  32
ENDBRANCH  29  31
ENDBRANCH  28  29
ENDBRANCH  25  28
ENDBRANCH  21  22
ENDBRANCH   3  21
TORSDOF 10
ENDMDL
MODEL 2
REMARK VINA RESULT:    -7.598      1.547      3.169
REMARK INTER + INTRA:         -13.191
REMARK INTER:                 -11.960
REMARK INTRA:                  -1.230
REMARK UNBOUND:                -1.373
REMARK  Name = 
REMARK  10 active torsions:
REMARK  status: ('A' for Active; 'I' for Inactive)
REMARK    1  A    between atoms: C_2  and  C_20
REMARK    2  A    between atoms: N_3  and  C_4
REMARK    3  A    between atoms: C_4  and  C_5
REMARK    4  A    between atoms: C_8  and  C_9
REMARK    5  A    between atoms: C_9  and  N_10
REMARK    6  A    between atoms: N_10  and  C_11
REMARK    7  A    between atoms: C_11  and  C_12
REMARK    8  A    between atoms: N_28  and  C_29
REMARK    9  A    between atoms: C_29  and  C_30
REMARK   10  A    between atoms: C_30  and  O_31
REMARK                            x       y       z     vdW  Elec       q    Type
REMARK                         _______ _______ _______ _____ _____    ______ ____
ROOT
ATOM      1  O   UNL     1      49.923   6.182  16.150  0.00  0.00    +0.000 OA
ATOM      2  C   UNL     1      48.901   5.534  16.375  0.00  0.00    +0.000 C 
ATOM      3  N   UNL     1      47.842   5.474  15.497  0.00  0.00    +0.000 N 
ATOM      4  H   UNL     1      46.959   5.102  15.816  0.00  0.00    +0.000 HD
ENDROOT
BRANCH   2   5
ATOM      5  C   UNL     1      48.724   4.802  17.619  0.00  0.00    +0.000 A 
ATOM      6  C   UNL     1      48.578   3.426  17.764  0.00  0.00    +0.000 A 
ATOM      7  N   UNL     1      48.498   3.142  19.103  0.00  0.00    +0.000 N 
ATOM      8  C   UNL     1      48.563   4.298  19.826  0.00  0.00    +0.000 A 
ATOM      9  N   UNL     1      48.485   4.355  21.164  0.00  0.00    +0.000 NA
ATOM     10  C   UNL     1      48.580   5.619  21.601  0.00  0.00    +0.000 A 
ATOM     11  N   UNL     1      48.746   6.738  20.872  0.00  0.00    +0.000 NA
ATOM     12  C   UNL     1      48.808   6.645  19.520  0.00  0.00    +0.000 A 
ATOM     13  N   UNL     1      48.902   7.802  18.756  0.00  0.00    +0.000 N 
ATOM     14  C   UNL     1      48.714   5.358  18.948  0.00  0.00    +0.000 A 
ATOM     15  H   UNL     1      48.410   2.226  19.520  0.00  0.00    +0.000 HD
ATOM     16  H   UNL     1      49.109   7.622  17.772  0.00  0.00    +0.000 HD
BRANCH  13  17
ATOM     17  C   UNL     1      49.614   8.943  19.324  0.00  0.00    +0.000 C 
BRANCH  17  18
ATOM     18  C   UNL     1      48.717  10.183  19.409  0.00  0.00    +0.000 C 
BRANCH  18  19
ATOM     19  O   UNL     1      47.346   9.826  19.581  0.00  0.00    +0.000 OA
ATOM     20  H   UNL     1      47.036  10.248  20.405  0.00  0.00    +0.000 HD
ENDBRANCH  18  19
ENDBRANCH  17  18
ENDBRANCH  13  17
ENDBRANCH   2   5
BRANCH   3  21
ATOM     21  C   UNL     1      47.872   6.242  14.275  0.00  0.00    +0.000 C 
BRANCH  21  22
ATOM     22  C   UNL     1      46.794   5.834  13.306  0.00  0.00    +0.000 A 
ATOM     23  C   UNL     1      45.832   4.881  13.668  0.00  0.00    +0.000 A 
ATOM     24  C   UNL     1      44.799   4.540  12.786  0.00  0.00    +0.000 A 
ATOM     25  C   UNL     1      44.704   5.139  11.522  0.00  0.00    +0.000 A 
ATOM     26  C   UNL     1      45.682   6.070  11.151  0.00  0.00    +0.000 A 
ATOM     27  C   UNL     1      46.719   6.411  12.032  0.00  0.00    +0.000 A 
BRANCH  25  28
ATOM     28  C   UNL     1      43.572   4.782  10.581  0.00  0.00    +0.000 C 
BRANCH  28  29
ATOM     29  N   UNL     1      44.088   4.308   9.299  0.00  0.00    +0.000 NA
ATOM     30  H   UNL     1      44.965   4.792   9.101  0.00  0.00    +0.000 HD
BRANCH  29  31
ATOM     31  C   UNL     1      44.366   2.864   9.321  0.00  0.00    +0.000 C 
BRANCH  31  32
ATOM     32  C   UNL     1      45.492   2.494   8.371  0.00  0.00    +0.000 A 
ATOM     33  C   UNL     1      45.992   3.439   7.475  0.00  0.00    +0.000 A 
ATOM     34  C   UNL     1      47.047   3.088   6.638  0.00  0.00    +0.000 A 
ATOM     35  C   UNL     1      47.570   1.803   6.708  0.00  0.00    +0.000 A 
ATOM     36  C   UNL     1      47.013   0.920   7.617  0.00  0.00    +0.000 A 
ATOM     37  N   UNL     1      45.993   1.233   8.450  0.00  0.00    +0.000 NA
ENDBRANCH  31  32
ENDBRANCH  29  31
ENDBRANCH  28  29
ENDBRANCH  25  28
ENDBRANCH  21  22
ENDBRANCH   3  21
TORSDOF 10
ENDMDL
MODEL 3
REMARK VINA RESULT:    -7.236      1.465      2.163
REMARK INTER + INTRA:         -12.628
REMARK INTER:                 -11.695
REMARK INTRA:                  -0.933
REMARK UNBOUND:                -1.373
REMARK  Name = 
REMARK  10 active torsions:
REMARK  status: ('A' for Active; 'I' for Inactive)
REMARK    1  A    between atoms: C_2  and  C_20
REMARK    2  A    between atoms: N_3  and  C_4
REMARK    3  A    between atoms: C_4  and  C_5
REMARK    4  A    between atoms: C_8  and  C_9
REMARK    5  A    between atoms: C_9  and  N_10
REMARK    6  A    between atoms: N_10  and  C_11
REMARK    7  A    between atoms: C_11  and  C_12
REMARK    8  A    between atoms: N_28  and  C_29
REMARK    9  A    between atoms: C_29  and  C_30
REMARK   10  A    between atoms: C_30  and  O_31
REMARK                            x       y       z     vdW  Elec       q    Type
REMARK                         _______ _______ _______ _____ _____    ______ ____
ROOT
ATOM      1  O   UNL     1      50.029   7.078  15.402  0.00  0.00    +0.000 OA
ATOM      2  C   UNL     1      48.944   7.654  15.321  0.00  0.00    +0.000 C 
ATOM      3  N   UNL     1      47.974   7.305  14.408  0.00  0.00    +0.000 N 
ATOM      4  H   UNL     1      47.200   7.933  14.249  0.00  0.00    +0.000 HD
ENDROOT
BRANCH   2   5
ATOM      5  C   UNL     1      48.620   8.786  16.175  0.00  0.00    +0.000 A 
ATOM      6  C   UNL     1      48.555  10.124  15.799  0.00  0.00    +0.000 A 
ATOM      7  N   UNL     1      48.158  10.857  16.886  0.00  0.00    +0.000 N 
ATOM      8  C   UNL     1      47.988  10.034  17.963  0.00  0.00    +0.000 A 
ATOM      9  N   UNL     1      47.626  10.455  19.183  0.00  0.00    +0.000 NA
ATOM     10  C   UNL     1      47.534   9.429  20.042  0.00  0.00    +0.000 A 
ATOM     11  N   UNL     1      47.744   8.122  19.798  0.00  0.00    +0.000 NA
ATOM     12  C   UNL     1      48.120   7.733  18.554  0.00  0.00    +0.000 A 
ATOM     13  N   UNL     1      48.413   6.396  18.313  0.00  0.00    +0.000 N 
ATOM     14  C   UNL     1      48.253   8.733  17.567  0.00  0.00    +0.000 A 
ATOM     15  H   UNL     1      48.001  11.855  16.916  0.00  0.00    +0.000 HD
ATOM     16  H   UNL     1      48.523   6.178  17.321  0.00  0.00    +0.000 HD
BRANCH  13  17
ATOM     17  C   UNL     1      47.685   5.386  19.075  0.00  0.00    +0.000 C 
BRANCH  17  18
ATOM     18  C   UNL     1      48.492   4.090  19.210  0.00  0.00    +0.000 C 
BRANCH  18  19
ATOM     19  O   UNL     1      48.422   3.566  20.536  0.00  0.00    +0.000 OA
ATOM     20  H   UNL     1      47.956   4.226  21.085  0.00  0.00    +0.000 HD
ENDBRANCH  18  19
ENDBRANCH  17  18
ENDBRANCH  13  17
ENDBRANCH   2   5
BRANCH   3  21
ATOM     21  C   UNL     1      48.230   6.259  13.446  0.00  0.00    +0.000 C 
BRANCH  21  22
ATOM     22  C   UNL     1      46.979   5.795  12.748  0.00  0.00    +0.000 A 
ATOM     23  C   UNL     1      46.545   6.420  11.571  0.00  0.00    +0.000 A 
ATOM     24  C   UNL     1      45.411   5.955  10.893  0.00  0.00    +0.000 A 
ATOM     25  C   UNL     1      44.683   4.858  11.376  0.00  0.00    +0.000 A 
ATOM     26  C   UNL     1      45.103   4.252  12.567  0.00  0.00    +0.000 A 
ATOM     27  C   UNL     1      46.236   4.718  13.248  0.00  0.00    +0.000 A 
BRANCH  25  28
ATOM     28  C   UNL     1      43.470   4.346  10.626  0.00  0.00    +0.000 C 
BRANCH  28  29
ATOM     29  N   UNL     1      43.867   3.672   9.392  0.00  0.00    +0.000 NA
ATOM     30  H   UNL     1      44.324   4.351   8.780  0.00  0.00    +0.000 HD
BRANCH  29  31
ATOM     31  C   UNL     1      44.819   2.582   9.645  0.00  0.00    +0.000 C 
BRANCH  31  32
ATOM     32  C   UNL     1      45.691   2.302   8.433  0.00  0.00    +0.000 A 
ATOM     33  C   UNL     1      45.954   3.316   7.511  0.00  0.00    +0.000 A 
ATOM     34  C   UNL     1      46.782   3.047   6.426  0.00  0.00    +0.000 A 
ATOM     35  C   UNL     1      47.321   1.775   6.281  0.00  0.00    +0.000 A 
ATOM     36  C   UNL     1      47.004   0.821   7.234  0.00  0.00    +0.000 A 
ATOM     37  N   UNL     1      46.209   1.053   8.303  0.00  0.00    +0.000 NA
ENDBRANCH  31  32
ENDBRANCH  29  31
ENDBRANCH  28  29
ENDBRANCH  25  28
ENDBRANCH  21  22
ENDBRANCH   3  21
TORSDOF 10
ENDMDL
MODEL 4
REMARK VINA RESULT:    -6.887      1.642      3.270
REMARK INTER + INTRA:         -12.086
REMARK INTER:                 -10.803
REMARK INTRA:                  -1.283
REMARK UNBOUND:                -1.373
REMARK  Name = 
REMARK  10 active torsions:
REMARK  status: ('A' for Active; 'I' for Inactive)
REMARK    1  A    between atoms: C_2  and  C_20
REMARK    2  A    between atoms: N_3  and  C_4
REMARK    3  A    between atoms: C_4  and  C_5
REMARK    4  A    between atoms: C_8  and  C_9
REMARK    5  A    between atoms: C_9  and  N_10
REMARK    6  A    between atoms: N_10  and  C_11
REMARK    7  A    between atoms: C_11  and  C_12
REMARK    8  A    between atoms: N_28  and  C_29
REMARK    9  A    between atoms: C_29  and  C_30
REMARK   10  A    between atoms: C_30  and  O_31
REMARK                            x       y       z     vdW  Elec       q    Type
REMARK                         _______ _______ _______ _____ _____    ______ ____
ROOT
ATOM      1  O   UNL     1      49.378   4.282  16.695  0.00  0.00    +0.000 OA
ATOM      2  C   UNL     1      48.397   5.025  16.702  0.00  0.00    +0.000 C 
ATOM      3  N   UNL     1      47.339   4.879  15.832  0.00  0.00    +0.000 N 
ATOM      4  H   UNL     1      46.667   5.628  15.745  0.00  0.00    +0.000 HD
ENDROOT
BRANCH   2   5
ATOM      5  C   UNL     1      48.300   6.148  17.621  0.00  0.00    +0.000 A 
ATOM      6  C   UNL     1      48.107   6.086  18.997  0.00  0.00    +0.000 A 
ATOM      7  N   UNL     1      48.135   7.364  19.492  0.00  0.00    +0.000 N 
ATOM      8  C   UNL     1      48.317   8.252  18.471  0.00  0.00    +0.000 A 
ATOM      9  N   UNL     1      48.364   9.583  18.630  0.00  0.00    +0.000 NA
ATOM     10  C   UNL     1      48.554  10.205  17.457  0.00  0.00    +0.000 A 
ATOM     11  N   UNL     1      48.703   9.650  16.240  0.00  0.00    +0.000 NA
ATOM     12  C   UNL     1      48.639   8.301  16.114  0.00  0.00    +0.000 A 
ATOM     13  N   UNL     1      48.714   7.725  14.852  0.00  0.00    +0.000 N 
ATOM     14  C   UNL     1      48.435   7.543  17.287  0.00  0.00    +0.000 A 
ATOM     15  H   UNL     1      48.045   7.637  20.461  0.00  0.00    +0.000 HD
ATOM     16  H   UNL     1      48.823   6.710  14.876  0.00  0.00    +0.000 HD
BRANCH  13  17
ATOM     17  C   UNL     1      49.525   8.395  13.840  0.00  0.00    +0.000 C 
BRANCH  17  18
ATOM     18  C   UNL     1      49.262   7.829  12.439  0.00  0.00    +0.000 C 
BRANCH  18  19
ATOM     19  O   UNL     1      49.812   6.520  12.292  0.00  0.00    +0.000 OA
ATOM     20  H   UNL     1      49.962   6.373  11.338  0.00  0.00    +0.000 HD
ENDBRANCH  18  19
ENDBRANCH  17  18
ENDBRANCH  13  17
ENDBRANCH   2   5
BRANCH   3  21
ATOM     21  C   UNL     1      47.376   3.856  14.814  0.00  0.00    +0.000 C 
BRANCH  21  22
ATOM     22  C   UNL     1      46.473   4.165  13.649  0.00  0.00    +0.000 A 
ATOM     23  C   UNL     1      45.866   3.131  12.922  0.00  0.00    +0.000 A 
ATOM     24  C   UNL     1      44.986   3.420  11.872  0.00  0.00    +0.000 A 
ATOM     25  C   UNL     1      44.693   4.746  11.521  0.00  0.00    +0.000 A 
ATOM     26  C   UNL     1      45.323   5.777  12.230  0.00  0.00    +0.000 A 
ATOM     27  C   UNL     1      46.206   5.490  13.280  0.00  0.00    +0.000 A 
BRANCH  25  28
ATOM     28  C   UNL     1      43.723   5.051  10.398  0.00  0.00    +0.000 C 
BRANCH  28  29
ATOM     29  N   UNL     1      44.029   4.252   9.214  0.00  0.00    +0.000 NA
ATOM     30  H   UNL     1      43.314   4.429   8.506  0.00  0.00    +0.000 HD
BRANCH  29  31
ATOM     31  C   UNL     1      45.332   4.607   8.635  0.00  0.00    +0.000 C 
BRANCH  31  32
ATOM     32  C   UNL     1      46.061   3.388   8.098  0.00  0.00    +0.000 A 
ATOM     33  C   UNL     1      45.698   2.110   8.526  0.00  0.00    +0.000 A 
ATOM     34  C   UNL     1      46.357   1.005   7.995  0.00  0.00    +0.000 A 
ATOM     35  C   UNL     1      47.364   1.200   7.060  0.00  0.00    +0.000 A 
ATOM     36  C   UNL     1      47.673   2.499   6.694  0.00  0.00    +0.000 A 
ATOM     37  N   UNL     1      47.047   3.593   7.185  0.00  0.00    +0.000 NA
ENDBRANCH  31  32
ENDBRANCH  29  31
ENDBRANCH  28  29
ENDBRANCH  25  28
ENDBRANCH  21  22
ENDBRANCH   3  21
TORSDOF 10
ENDMDL
MODEL 5
REMARK VINA RESULT:    -6.801      3.297      9.921
REMARK INTER + INTRA:         -11.952
REMARK INTER:                 -10.348
REMARK INTRA:                  -1.604
REMARK UNBOUND:                -1.373
REMARK  Name = 
REMARK  10 active torsions:
REMARK  status: ('A' for Active; 'I' for Inactive)
REMARK    1  A    between atoms: C_2  and  C_20
REMARK    2  A    between atoms: N_3  and  C_4
REMARK    3  A    between atoms: C_4  and  C_5
REMARK    4  A    between atoms: C_8  and  C_9
REMARK    5  A    between atoms: C_9  and  N_10
REMARK    6  A    between atoms: N_10  and  C_11
REMARK    7  A    between atoms: C_11  and  C_12
REMARK    8  A    between atoms: N_28  and  C_29
REMARK    9  A    between atoms: C_29  and  C_30
REMARK   10  A    between atoms: C_30  and  O_31
REMARK                            x       y       z     vdW  Elec       q    Type
REMARK                         _______ _______ _______ _____ _____    ______ ____
ROOT
ATOM      1  O   UNL     1      47.162   3.337  13.876  0.00  0.00    +0.000 OA
ATOM      2  C   UNL     1      47.094   4.421  14.457  0.00  0.00    +0.000 C 
ATOM      3  N   UNL     1      47.293   4.559  15.813  0.00  0.00    +0.000 N 
ATOM      4  H   UNL     1      47.026   5.423  16.263  0.00  0.00    +0.000 HD
ENDROOT
BRANCH   2   5
ATOM      5  C   UNL     1      46.760   5.645  13.746  0.00  0.00    +0.000 A 
ATOM      6  C   UNL     1      47.502   6.821  13.717  0.00  0.00    +0.000 A 
ATOM      7  N   UNL     1      46.868   7.707  12.884  0.00  0.00    +0.000 N 
ATOM      8  C   UNL     1      45.725   7.145  12.394  0.00  0.00    +0.000 A 
ATOM      9  N   UNL     1      44.871   7.771  11.570  0.00  0.00    +0.000 NA
ATOM     10  C   UNL     1      43.838   6.978  11.250  0.00  0.00    +0.000 A 
ATOM     11  N   UNL     1      43.613   5.710  11.642  0.00  0.00    +0.000 NA
ATOM     12  C   UNL     1      44.492   5.111  12.485  0.00  0.00    +0.000 A 
ATOM     13  N   UNL     1      44.229   3.831  12.955  0.00  0.00    +0.000 N 
ATOM     14  C   UNL     1      45.618   5.858  12.893  0.00  0.00    +0.000 A 
ATOM     15  H   UNL     1      47.180   8.639  12.646  0.00  0.00    +0.000 HD
ATOM     16  H   UNL     1      45.019   3.408  13.444  0.00  0.00    +0.000 HD
BRANCH  13  17
ATOM     17  C   UNL     1      43.500   2.916  12.081  0.00  0.00    +0.000 C 
BRANCH  17  18
ATOM     18  C   UNL     1      44.273   2.634  10.788  0.00  0.00    +0.000 C 
BRANCH  18  19
ATOM     19  O   UNL     1      43.713   3.338   9.680  0.00  0.00    +0.000 OA
ATOM     20  H   UNL     1      44.260   3.131   8.897  0.00  0.00    +0.000 HD
ENDBRANCH  18  19
ENDBRANCH  17  18
ENDBRANCH  13  17
ENDBRANCH   2   5
BRANCH   3  21
ATOM     21  C   UNL     1      47.533   3.394  16.631  0.00  0.00    +0.000 C 
BRANCH  21  22
ATOM     22  C   UNL     1      48.977   3.258  17.037  0.00  0.00    +0.000 A 
ATOM     23  C   UNL     1      49.622   2.016  16.977  0.00  0.00    +0.000 A 
ATOM     24  C   UNL     1      50.978   1.900  17.305  0.00  0.00    +0.000 A 
ATOM     25  C   UNL     1      51.721   3.021  17.703  0.00  0.00    +0.000 A 
ATOM     26  C   UNL     1      51.068   4.257  17.790  0.00  0.00    +0.000 A 
ATOM     27  C   UNL     1      49.709   4.374  17.464  0.00  0.00    +0.000 A 
BRANCH  25  28
ATOM     28  C   UNL     1      53.194   2.892  18.036  0.00  0.00    +0.000 C 
BRANCH  28  29
ATOM     29  N   UNL     1      53.379   2.366  19.386  0.00  0.00    +0.000 NA
ATOM     30  H   UNL     1      53.886   1.481  19.326  0.00  0.00    +0.000 HD
BRANCH  29  31
ATOM     31  C   UNL     1      54.167   3.280  20.226  0.00  0.00    +0.000 C 
BRANCH  31  32
ATOM     32  C   UNL     1      53.405   4.556  20.537  0.00  0.00    +0.000 A 
ATOM     33  C   UNL     1      52.247   4.509  21.315  0.00  0.00    +0.000 A 
ATOM     34  C   UNL     1      51.584   5.695  21.615  0.00  0.00    +0.000 A 
ATOM     35  C   UNL     1      52.084   6.895  21.127  0.00  0.00    +0.000 A 
ATOM     36  C   UNL     1      53.233   6.857  20.354  0.00  0.00    +0.000 A 
ATOM     37  N   UNL     1      53.905   5.723  20.051  0.00  0.00    +0.000 NA
ENDBRANCH  31  32
ENDBRANCH  29  31
ENDBRANCH  28  29
ENDBRANCH  25  28
ENDBRANCH  21  22
ENDBRANCH   3  21
TORSDOF 10
ENDMDL
MODEL 6
REMARK VINA RESULT:    -6.758      3.505      8.273
REMARK INTER + INTRA:         -11.885
REMARK INTER:                 -10.222
REMARK INTRA:                  -1.663
REMARK UNBOUND:                -1.373
REMARK  Name = 
REMARK  10 active torsions:
REMARK  status: ('A' for Active; 'I' for Inactive)
REMARK    1  A    between atoms: C_2  and  C_20
REMARK    2  A    between atoms: N_3  and  C_4
REMARK    3  A    between atoms: C_4  and  C_5
REMARK    4  A    between atoms: C_8  and  C_9
REMARK    5  A    between atoms: C_9  and  N_10
REMARK    6  A    between atoms: N_10  and  C_11
REMARK    7  A    between atoms: C_11  and  C_12
REMARK    8  A    between atoms: N_28  and  C_29
REMARK    9  A    between atoms: C_29  and  C_30
REMARK   10  A    between atoms: C_30  and  O_31
REMARK                            x       y       z     vdW  Elec       q    Type
REMARK                         _______ _______ _______ _____ _____    ______ ____
ROOT
ATOM      1  O   UNL     1      47.684   7.950  11.843  0.00  0.00    +0.000 OA
ATOM      2  C   UNL     1      46.674   8.153  12.516  0.00  0.00    +0.000 C 
ATOM      3  N   UNL     1      46.683   8.883  13.684  0.00  0.00    +0.000 N 
ATOM      4  H   UNL     1      45.880   8.845  14.295  0.00  0.00    +0.000 HD
ENDROOT
BRANCH   2   5
ATOM      5  C   UNL     1      45.384   7.598  12.137  0.00  0.00    +0.000 A 
ATOM      6  C   UNL     1      44.449   8.170  11.280  0.00  0.00    +0.000 A 
ATOM      7  N   UNL     1      43.401   7.297  11.144  0.00  0.00    +0.000 N 
ATOM      8  C   UNL     1      43.620   6.188  11.910  0.00  0.00    +0.000 A 
ATOM      9  N   UNL     1      42.763   5.161  12.011  0.00  0.00    +0.000 NA
ATOM     10  C   UNL     1      43.240   4.211  12.829  0.00  0.00    +0.000 A 
ATOM     11  N   UNL     1      44.412   4.199  13.490  0.00  0.00    +0.000 NA
ATOM     12  C   UNL     1      45.250   5.259  13.374  0.00  0.00    +0.000 A 
ATOM     13  N   UNL     1      46.426   5.289  14.112  0.00  0.00    +0.000 N 
ATOM     14  C   UNL     1      44.846   6.323  12.539  0.00  0.00    +0.000 A 
ATOM     15  H   UNL     1      42.580   7.425  10.569  0.00  0.00    +0.000 HD
ATOM     16  H   UNL     1      47.061   6.039  13.834  0.00  0.00    +0.000 HD
BRANCH  13  17
ATOM     17  C   UNL     1      47.085   4.019  14.404  0.00  0.00    +0.000 C 
BRANCH  17  18
ATOM     18  C   UNL     1      47.414   3.882  15.895  0.00  0.00    +0.000 C 
BRANCH  18  19
ATOM     19  O   UNL     1      48.441   2.916  16.117  0.00  0.00    +0.000 OA
ATOM     20  H   UNL     1      48.258   2.156  15.531  0.00  0.00    +0.000 HD
ENDBRANCH  18  19
ENDBRANCH  17  18
ENDBRANCH  13  17
ENDBRANCH   2   5
BRANCH   3  21
ATOM     21  C   UNL     1      47.928   9.397  14.205  0.00  0.00    +0.000 C 
BRANCH  21  22
ATOM     22  C   UNL     1      48.409   8.638  15.413  0.00  0.00    +0.000 A 
ATOM     23  C   UNL     1      49.123   7.440  15.266  0.00  0.00    +0.000 A 
ATOM     24  C   UNL     1      49.615   6.762  16.388  0.00  0.00    +0.000 A 
ATOM     25  C   UNL     1      49.404   7.261  17.682  0.00  0.00    +0.000 A 
ATOM     26  C   UNL     1      48.667   8.443  17.828  0.00  0.00    +0.000 A 
ATOM     27  C   UNL     1      48.171   9.122  16.706  0.00  0.00    +0.000 A 
BRANCH  25  28
ATOM     28  C   UNL     1      49.959   6.533  18.889  0.00  0.00    +0.000 C 
BRANCH  28  29
ATOM     29  N   UNL     1      50.270   5.144  18.563  0.00  0.00    +0.000 NA
ATOM     30  H   UNL     1      50.030   4.976  17.585  0.00  0.00    +0.000 HD
BRANCH  29  31
ATOM     31  C   UNL     1      51.701   4.850  18.731  0.00  0.00    +0.000 C 
BRANCH  31  32
ATOM     32  C   UNL     1      52.041   3.437  18.289  0.00  0.00    +0.000 A 
ATOM     33  C   UNL     1      53.306   2.908  18.546  0.00  0.00    +0.000 A 
ATOM     34  C   UNL     1      53.585   1.600  18.162  0.00  0.00    +0.000 A 
ATOM     35  C   UNL     1      52.600   0.855  17.526  0.00  0.00    +0.000 A 
ATOM     36  C   UNL     1      51.373   1.455  17.298  0.00  0.00    +0.000 A 
ATOM     37  N   UNL     1      51.069   2.720  17.666  0.00  0.00    +0.000 NA
ENDBRANCH  31  32
ENDBRANCH  29  31
ENDBRANCH  28  29
ENDBRANCH  25  28
ENDBRANCH  21  22
ENDBRANCH   3  21
TORSDOF 10
ENDMDL
MODEL 7
REMARK VINA RESULT:    -6.577      3.998      6.757
REMARK INTER + INTRA:         -11.602
REMARK INTER:                 -10.177
REMARK INTRA:                  -1.426
REMARK UNBOUND:                -1.373
REMARK  Name = 
REMARK  10 active torsions:
REMARK  status: ('A' for Active; 'I' for Inactive)
REMARK    1  A    between atoms: C_2  and  C_20
REMARK    2  A    between atoms: N_3  and  C_4
REMARK    3  A    between atoms: C_4  and  C_5
REMARK    4  A    between atoms: C_8  and  C_9
REMARK    5  A    between atoms: C_9  and  N_10
REMARK    6  A    between atoms: N_10  and  C_11
REMARK    7  A    between atoms: C_11  and  C_12
REMARK    8  A    between atoms: N_28  and  C_29
REMARK    9  A    between atoms: C_29  and  C_30
REMARK   10  A    between atoms: C_30  and  O_31
REMARK                            x       y       z     vdW  Elec       q    Type
REMARK                         _______ _______ _______ _____ _____    ______ ____
ROOT
ATOM      1  O   UNL     1      49.275   9.625  13.603  0.00  0.00    +0.000 OA
ATOM      2  C   UNL     1      49.735   8.925  12.701  0.00  0.00    +0.000 C 
ATOM      3  N   UNL     1      49.480   7.576  12.594  0.00  0.00    +0.000 N 
ATOM      4  H   UNL     1      50.040   7.018  11.965  0.00  0.00    +0.000 HD
ENDROOT
BRANCH   2   5
ATOM      5  C   UNL     1      50.622   9.475  11.688  0.00  0.00    +0.000 A 
ATOM      6  C   UNL     1      51.904   9.035  11.373  0.00  0.00    +0.000 A 
ATOM      7  N   UNL     1      52.369   9.784  10.323  0.00  0.00    +0.000 N 
ATOM      8  C   UNL     1      51.433  10.712   9.967  0.00  0.00    +0.000 A 
ATOM      9  N   UNL     1      51.602  11.613   8.988  0.00  0.00    +0.000 NA
ATOM     10  C   UNL     1      50.520  12.395   8.858  0.00  0.00    +0.000 A 
ATOM     11  N   UNL     1      49.372  12.346   9.560  0.00  0.00    +0.000 NA
ATOM     12  C   UNL     1      49.241  11.430  10.552  0.00  0.00    +0.000 A 
ATOM     13  N   UNL     1      48.091  11.422  11.331  0.00  0.00    +0.000 N 
ATOM     14  C   UNL     1      50.324  10.554  10.781  0.00  0.00    +0.000 A 
ATOM     15  H   UNL     1      53.261   9.683   9.859  0.00  0.00    +0.000 HD
ATOM     16  H   UNL     1      48.015  10.600  11.933  0.00  0.00    +0.000 HD
BRANCH  13  17
ATOM     17  C   UNL     1      46.836  11.831  10.707  0.00  0.00    +0.000 C 
BRANCH  17  18
ATOM     18  C   UNL     1      45.631  11.513  11.599  0.00  0.00    +0.000 C 
BRANCH  18  19
ATOM     19  O   UNL     1      45.873  10.366  12.414  0.00  0.00    +0.000 OA
ATOM     20  H   UNL     1      46.567   9.838  11.975  0.00  0.00    +0.000 HD
ENDBRANCH  18  19
ENDBRANCH  17  18
ENDBRANCH  13  17
ENDBRANCH   2   5
BRANCH   3  21
ATOM     21  C   UNL     1      48.691   6.907  13.601  0.00  0.00    +0.000 C 
BRANCH  21  22
ATOM     22  C   UNL     1      47.521   6.159  13.020  0.00  0.00    +0.000 A 
ATOM     23  C   UNL     1      46.958   5.071  13.702  0.00  0.00    +0.000 A 
ATOM     24  C   UNL     1      45.838   4.409  13.186  0.00  0.00    +0.000 A 
ATOM     25  C   UNL     1      45.256   4.814  11.976  0.00  0.00    +0.000 A 
ATOM     26  C   UNL     1      45.836   5.882  11.282  0.00  0.00    +0.000 A 
ATOM     27  C   UNL     1      46.960   6.545  11.796  0.00  0.00    +0.000 A 
BRANCH  25  28
ATOM     28  C   UNL     1      44.030   4.106  11.435  0.00  0.00    +0.000 C 
BRANCH  28  29
ATOM     29  N   UNL     1      44.112   3.958   9.984  0.00  0.00    +0.000 NA
ATOM     30  H   UNL     1      44.880   4.537   9.639  0.00  0.00    +0.000 HD
BRANCH  29  31
ATOM     31  C   UNL     1      44.385   2.568   9.590  0.00  0.00    +0.000 C 
BRANCH  31  32
ATOM     32  C   UNL     1      45.473   2.485   8.533  0.00  0.00    +0.000 A 
ATOM     33  C   UNL     1      45.811   3.615   7.786  0.00  0.00    +0.000 A 
ATOM     34  C   UNL     1      46.834   3.524   6.847  0.00  0.00    +0.000 A 
ATOM     35  C   UNL     1      47.489   2.313   6.671  0.00  0.00    +0.000 A 
ATOM     36  C   UNL     1      47.089   1.236   7.444  0.00  0.00    +0.000 A 
ATOM     37  N   UNL     1      46.104   1.293   8.370  0.00  0.00    +0.000 NA
ENDBRANCH  31  32
ENDBRANCH  29  31
ENDBRANCH  28  29
ENDBRANCH  25  28
ENDBRANCH  21  22
ENDBRANCH   3  21
TORSDOF 10
ENDMDL
MODEL 8
REMARK VINA RESULT:    -6.534      3.538      9.138
REMARK INTER + INTRA:         -11.535
REMARK INTER:                 -10.030
REMARK INTRA:                  -1.505
REMARK UNBOUND:                -1.373
REMARK  Name = 
REMARK  10 active torsions:
REMARK  status: ('A' for Active; 'I' for Inactive)
REMARK    1  A    between atoms: C_2  and  C_20
REMARK    2  A    between atoms: N_3  and  C_4
REMARK    3  A    between atoms: C_4  and  C_5
REMARK    4  A    between atoms: C_8  and  C_9
REMARK    5  A    between atoms: C_9  and  N_10
REMARK    6  A    between atoms: N_10  and  C_11
REMARK    7  A    between atoms: C_11  and  C_12
REMARK    8  A    between atoms: N_28  and  C_29
REMARK    9  A    between atoms: C_29  and  C_30
REMARK   10  A    between atoms: C_30  and  O_31
REMARK                            x       y       z     vdW  Elec       q    Type
REMARK                         _______ _______ _______ _____ _____    ______ ____
ROOT
ATOM      1  O   UNL     1      47.096   3.324  13.997  0.00  0.00    +0.000 OA
ATOM      2  C   UNL     1      47.060   4.417  14.562  0.00  0.00    +0.000 C 
ATOM      3  N   UNL     1      47.233   4.566  15.920  0.00  0.00    +0.000 N 
ATOM      4  H   UNL     1      46.992   5.447  16.352  0.00  0.00    +0.000 HD
ENDROOT
BRANCH   2   5
ATOM      5  C   UNL     1      46.794   5.644  13.827  0.00  0.00    +0.000 A 
ATOM      6  C   UNL     1      47.598   6.778  13.777  0.00  0.00    +0.000 A 
ATOM      7  N   UNL     1      47.015   7.681  12.927  0.00  0.00    +0.000 N 
ATOM      8  C   UNL     1      45.842   7.172  12.445  0.00  0.00    +0.000 A 
ATOM      9  N   UNL     1      45.025   7.828  11.608  0.00  0.00    +0.000 NA
ATOM     10  C   UNL     1      43.950   7.086  11.301  0.00  0.00    +0.000 A 
ATOM     11  N   UNL     1      43.657   5.840  11.716  0.00  0.00    +0.000 NA
ATOM     12  C   UNL     1      44.501   5.211  12.572  0.00  0.00    +0.000 A 
ATOM     13  N   UNL     1      44.168   3.955  13.066  0.00  0.00    +0.000 N 
ATOM     14  C   UNL     1      45.666   5.902  12.969  0.00  0.00    +0.000 A 
ATOM     15  H   UNL     1      47.376   8.589  12.672  0.00  0.00    +0.000 HD
ATOM     16  H   UNL     1      44.935   3.500  13.564  0.00  0.00    +0.000 HD
BRANCH  13  17
ATOM     17  C   UNL     1      43.392   3.065  12.208  0.00  0.00    +0.000 C 
BRANCH  17  18
ATOM     18  C   UNL     1      44.145   2.727  10.916  0.00  0.00    +0.000 C 
BRANCH  18  19
ATOM     19  O   UNL     1      43.600   3.426   9.796  0.00  0.00    +0.000 OA
ATOM     20  H   UNL     1      43.196   2.760   9.207  0.00  0.00    +0.000 HD
ENDBRANCH  18  19
ENDBRANCH  17  18
ENDBRANCH  13  17
ENDBRANCH   2   5
BRANCH   3  21
ATOM     21  C   UNL     1      47.406   3.404  16.759  0.00  0.00    +0.000 C 
BRANCH  21  22
ATOM     22  C   UNL     1      48.841   3.185  17.157  0.00  0.00    +0.000 A 
ATOM     23  C   UNL     1      49.510   2.006  16.799  0.00  0.00    +0.000 A 
ATOM     24  C   UNL     1      50.859   1.825  17.125  0.00  0.00    +0.000 A 
ATOM     25  C   UNL     1      51.572   2.815  17.819  0.00  0.00    +0.000 A 
ATOM     26  C   UNL     1      50.894   3.979  18.200  0.00  0.00    +0.000 A 
ATOM     27  C   UNL     1      49.542   4.161  17.877  0.00  0.00    +0.000 A 
BRANCH  25  28
ATOM     28  C   UNL     1      53.038   2.621  18.149  0.00  0.00    +0.000 C 
BRANCH  28  29
ATOM     29  N   UNL     1      53.448   3.505  19.238  0.00  0.00    +0.000 NA
ATOM     30  H   UNL     1      53.644   2.936  20.064  0.00  0.00    +0.000 HD
BRANCH  29  31
ATOM     31  C   UNL     1      54.669   4.253  18.906  0.00  0.00    +0.000 C 
BRANCH  31  32
ATOM     32  C   UNL     1      54.484   5.108  17.665  0.00  0.00    +0.000 A 
ATOM     33  C   UNL     1      53.601   6.189  17.684  0.00  0.00    +0.000 A 
ATOM     34  C   UNL     1      53.473   6.980  16.546  0.00  0.00    +0.000 A 
ATOM     35  C   UNL     1      54.220   6.671  15.417  0.00  0.00    +0.000 A 
ATOM     36  C   UNL     1      55.067   5.576  15.474  0.00  0.00    +0.000 A 
ATOM     37  N   UNL     1      55.220   4.793  16.566  0.00  0.00    +0.000 NA
ENDBRANCH  31  32
ENDBRANCH  29  31
ENDBRANCH  28  29
ENDBRANCH  25  28
ENDBRANCH  21  22
ENDBRANCH   3  21
TORSDOF 10
ENDMDL
MODEL 9
REMARK VINA RESULT:    -6.493      3.148      8.870
REMARK INTER + INTRA:         -11.473
REMARK INTER:                  -9.800
REMARK INTRA:                  -1.673
REMARK UNBOUND:                -1.373
REMARK  Name = 
REMARK  10 active torsions:
REMARK  status: ('A' for Active; 'I' for Inactive)
REMARK    1  A    between atoms: C_2  and  C_20
REMARK    2  A    between atoms: N_3  and  C_4
REMARK    3  A    between atoms: C_4  and  C_5
REMARK    4  A    between atoms: C_8  and  C_9
REMARK    5  A    between atoms: C_9  and  N_10
REMARK    6  A    between atoms: N_10  and  C_11
REMARK    7  A    between atoms: C_11  and  C_12
REMARK    8  A    between atoms: N_28  and  C_29
REMARK    9  A    between atoms: C_29  and  C_30
REMARK   10  A    between atoms: C_30  and  O_31
REMARK                            x       y       z     vdW  Elec       q    Type
REMARK                         _______ _______ _______ _____ _____    ______ ____
ROOT
ATOM      1  O   UNL     1      48.345   6.522  12.270  0.00  0.00    +0.000 OA
ATOM      2  C   UNL     1      47.360   6.403  12.999  0.00  0.00    +0.000 C 
ATOM      3  N   UNL     1      47.066   7.287  14.013  0.00  0.00    +0.000 N 
ATOM      4  H   UNL     1      46.372   7.032  14.702  0.00  0.00    +0.000 HD
ENDROOT
BRANCH   2   5
ATOM      5  C   UNL     1      46.442   5.283  12.860  0.00  0.00    +0.000 A 
ATOM      6  C   UNL     1      46.600   4.005  13.387  0.00  0.00    +0.000 A 
ATOM      7  N   UNL     1      45.483   3.273  13.077  0.00  0.00    +0.000 N 
ATOM      8  C   UNL     1      44.619   4.035  12.344  0.00  0.00    +0.000 A 
ATOM      9  N   UNL     1      43.446   3.594  11.866  0.00  0.00    +0.000 NA
ATOM     10  C   UNL     1      42.807   4.557  11.186  0.00  0.00    +0.000 A 
ATOM     11  N   UNL     1      43.206   5.825  10.973  0.00  0.00    +0.000 NA
ATOM     12  C   UNL     1      44.404   6.234  11.460  0.00  0.00    +0.000 A 
ATOM     13  N   UNL     1      44.858   7.517  11.180  0.00  0.00    +0.000 N 
ATOM     14  C   UNL     1      45.167   5.298  12.191  0.00  0.00    +0.000 A 
ATOM     15  H   UNL     1      45.297   2.316  13.342  0.00  0.00    +0.000 HD
ATOM     16  H   UNL     1      45.681   7.783  11.723  0.00  0.00    +0.000 HD
BRANCH  13  17
ATOM     17  C   UNL     1      43.866   8.577  11.028  0.00  0.00    +0.000 C 
BRANCH  17  18
ATOM     18  C   UNL     1      44.402   9.927  11.518  0.00  0.00    +0.000 C 
BRANCH  18  19
ATOM     19  O   UNL     1      44.737   9.884  12.906  0.00  0.00    +0.000 OA
ATOM     20  H   UNL     1      43.995  10.289  13.396  0.00  0.00    +0.000 HD
ENDBRANCH  18  19
ENDBRANCH  17  18
ENDBRANCH  13  17
ENDBRANCH   2   5
BRANCH   3  21
ATOM     21  C   UNL     1      47.963   8.380  14.303  0.00  0.00    +0.000 C 
BRANCH  21  22
ATOM     22  C   UNL     1      48.891   8.081  15.450  0.00  0.00    +0.000 A 
ATOM     23  C   UNL     1      48.654   8.624  16.720  0.00  0.00    +0.000 A 
ATOM     24  C   UNL     1      49.488   8.304  17.799  0.00  0.00    +0.000 A 
ATOM     25  C   UNL     1      50.578   7.437  17.634  0.00  0.00    +0.000 A 
ATOM     26  C   UNL     1      50.830   6.918  16.358  0.00  0.00    +0.000 A 
ATOM     27  C   UNL     1      49.998   7.239  15.277  0.00  0.00    +0.000 A 
BRANCH  25  28
ATOM     28  C   UNL     1      51.463   7.078  18.811  0.00  0.00    +0.000 C 
BRANCH  28  29
ATOM     29  N   UNL     1      51.584   5.629  18.949  0.00  0.00    +0.000 NA
ATOM     30  H   UNL     1      52.410   5.422  19.512  0.00  0.00    +0.000 HD
BRANCH  29  31
ATOM     31  C   UNL     1      50.418   5.045  19.629  0.00  0.00    +0.000 C 
BRANCH  31  32
ATOM     32  C   UNL     1      49.453   4.409  18.644  0.00  0.00    +0.000 A 
ATOM     33  C   UNL     1      49.856   3.318  17.873  0.00  0.00    +0.000 A 
ATOM     34  C   UNL     1      48.944   2.730  17.002  0.00  0.00    +0.000 A 
ATOM     35  C   UNL     1      47.658   3.247  16.915  0.00  0.00    +0.000 A 
ATOM     36  C   UNL     1      47.338   4.338  17.706  0.00  0.00    +0.000 A 
ATOM     37  N   UNL     1      48.198   4.927  18.567  0.00  0.00    +0.000 NA
ENDBRANCH  31  32
ENDBRANCH  29  31
ENDBRANCH  28  29
ENDBRANCH  25  28
ENDBRANCH  21  22
ENDBRANCH   3  21
TORSDOF 10
ENDMDL
