MODEL 1
REMARK VINA RESULT:    -8.334      0.000      0.000
REMARK INTER + INTRA:         -11.474
REMARK INTER:                 -10.770
REMARK INTRA:                  -0.703
REMARK UNBOUND:                -0.703
REMARK  Name = 
REMARK  5 active torsions:
REMARK  status: ('A' for Active; 'I' for Inactive)
REMARK    1  A    between atoms: C_2  and  C_4
REMARK    2  A    between atoms: C_7  and  C_8
REMARK    3  A    between atoms: C_8  and  O_9
REMARK    4  A    between atoms: O_9  and  C_10
REMARK    5  A    between atoms: C_15  and  C_16
REMARK                            x       y       z     vdW  Elec       q    Type
REMARK                         _______ _______ _______ _____ _____    ______ ____
ROOT
ATOM      1  C   UNL     1      45.117   4.817  11.678  0.00  0.00    +0.000 A 
ATOM      2  C   UNL     1      45.491   3.967  12.715  0.00  0.00    +0.000 A 
ATOM      3  F   UNL     1      44.889   2.786  12.910  0.00  0.00    +0.000 F 
ATOM      4  C   UNL     1      46.516   4.317  13.587  0.00  0.00    +0.000 A 
ATOM      5  C   UNL     1      47.187   5.532  13.431  0.00  0.00    +0.000 A 
ATOM      6  C   UNL     1      46.861   6.419  12.386  0.00  0.00    +0.000 A 
ATOM      7  C   UNL     1      45.810   6.026  11.529  0.00  0.00    +0.000 A 
ATOM      8  F   UNL     1      45.464   6.813  10.494  0.00  0.00    +0.000 F 
ENDROOT
BRANCH   6   9
ATOM      9  C   UNL     1      47.620   7.680  12.177  0.00  0.00    +0.000 A 
ATOM     10  C   UNL     1      48.959   7.666  11.740  0.00  0.00    +0.000 A 
ATOM     11  C   UNL     1      49.658   8.850  11.478  0.00  0.00    +0.000 A 
ATOM     12  C   UNL     1      49.031  10.080  11.639  0.00  0.00    +0.000 A 
ATOM     13  C   UNL     1      47.717  10.128  12.089  0.00  0.00    +0.000 A 
ATOM     14  C   UNL     1      47.029   8.942  12.369  0.00  0.00    +0.000 A 
ENDBRANCH   6   9
BRANCH   1  15
ATOM     15  O   UNL     1      44.126   4.602  10.757  0.00  0.00    +0.000 OA
BRANCH  15  16
ATOM     16  C   UNL     1      43.935   3.263  10.299  0.00  0.00    +0.000 C 
BRANCH  16  20
ATOM     17  C   UNL     1      46.690   2.300   7.181  0.00  0.00    +0.000 A 
ATOM     18  C   UNL     1      46.207   3.606   7.260  0.00  0.00    +0.000 A 
ATOM     19  C   UNL     1      45.298   3.936   8.265  0.00  0.00    +0.000 A 
ATOM     20  C   UNL     1      44.885   2.950   9.161  0.00  0.00    +0.000 A 
ATOM     21  N   UNL     1      45.351   1.675   9.095  0.00  0.00    +0.000 NA
ATOM     22  C   UNL     1      46.225   1.375   8.102  0.00  0.00    +0.000 A 
BRANCH  17  24
ATOM     23  N   UNL     1      48.840   2.527   6.072  0.00  0.00    +0.000 N 
ATOM     24  C   UNL     1      47.651   1.855   6.153  0.00  0.00    +0.000 C 
ATOM     25  O   UNL     1      47.416   0.897   5.426  0.00  0.00    +0.000 OA
ATOM     26  H   UNL     1      49.528   2.139   5.440  0.00  0.00    +0.000 HD
ATOM     27  H   UNL     1      49.170   3.136   6.806  0.00  0.00    +0.000 HD
ENDBRANCH  17  24
ENDBRANCH  16  20
ENDBRANCH  15  16
ENDBRANCH   1  15
TORSDOF 5
ENDMDL
MODEL 2
REMARK VINA RESULT:    -7.828      3.165      6.846
REMARK INTER + INTRA:         -10.819
REMARK INTER:                 -10.250
REMARK INTRA:                  -0.569
REMARK UNBOUND:                -0.703
REMARK  Name = 
REMARK  5 active torsions:
REMARK  status: ('A' for Active; 'I' for Inactive)
REMARK    1  A    between atoms: C_2  and  C_4
REMARK    2  A    between atoms: C_7  and  C_8
REMARK    3  A    between atoms: C_8  and  O_9
REMARK    4  A    between atoms: O_9  and  C_10
REMARK    5  A    between atoms: C_15  and  C_16
REMARK                            x       y       z     vdW  Elec       q    Type
REMARK                         _______ _______ _______ _____ _____    ______ ____
ROOT
ATOM      1  C   UNL     1      44.432   5.069  10.732  0.00  0.00    +0.000 A 
ATOM      2  C   UNL     1      43.586   4.208  11.425  0.00  0.00    +0.000 A 
ATOM      3  F   UNL     1      42.832   4.633  12.447  0.00  0.00    +0.000 F 
ATOM      4  C   UNL     1      43.492   2.866  11.073  0.00  0.00    +0.000 A 
ATOM      5  C   UNL     1      44.250   2.364  10.012  0.00  0.00    +0.000 A 
ATOM      6  C   UNL     1      45.105   3.197   9.264  0.00  0.00    +0.000 A 
ATOM      7  C   UNL     1      45.174   4.550   9.662  0.00  0.00    +0.000 A 
ATOM      8  F   UNL     1      45.951   5.408   8.976  0.00  0.00    +0.000 F 
ENDROOT
BRANCH   6   9
ATOM      9  C   UNL     1      45.858   2.679   8.092  0.00  0.00    +0.000 A 
ATOM     10  C   UNL     1      46.072   3.474   6.949  0.00  0.00    +0.000 A 
ATOM     11  C   UNL     1      46.836   3.017   5.870  0.00  0.00    +0.000 A 
ATOM     12  C   UNL     1      47.415   1.754   5.910  0.00  0.00    +0.000 A 
ATOM     13  C   UNL     1      47.205   0.937   7.015  0.00  0.00    +0.000 A 
ATOM     14  C   UNL     1      46.424   1.391   8.083  0.00  0.00    +0.000 A 
ENDBRANCH   6   9
BRANCH   1  15
ATOM     15  O   UNL     1      44.626   6.403  10.976  0.00  0.00    +0.000 OA
BRANCH  15  16
ATOM     16  C   UNL     1      45.008   6.778  12.299  0.00  0.00    +0.000 C 
BRANCH  16  20
ATOM     17  C   UNL     1      49.099   8.005  12.290  0.00  0.00    +0.000 A 
ATOM     18  C   UNL     1      48.808   6.668  12.557  0.00  0.00    +0.000 A 
ATOM     19  C   UNL     1      47.477   6.251  12.575  0.00  0.00    +0.000 A 
ATOM     20  C   UNL     1      46.468   7.184  12.337  0.00  0.00    +0.000 A 
ATOM     21  N   UNL     1      46.740   8.489  12.072  0.00  0.00    +0.000 NA
ATOM     22  C   UNL     1      48.041   8.872  12.071  0.00  0.00    +0.000 A 
BRANCH  17  24
ATOM     23  N   UNL     1      51.351   8.089  13.198  0.00  0.00    +0.000 N 
ATOM     24  C   UNL     1      50.474   8.540  12.250  0.00  0.00    +0.000 C 
ATOM     25  O   UNL     1      50.832   9.326  11.381  0.00  0.00    +0.000 OA
ATOM     26  H   UNL     1      52.314   8.380  13.089  0.00  0.00    +0.000 HD
ATOM     27  H   UNL     1      51.172   7.267  13.756  0.00  0.00    +0.000 HD
ENDBRANCH  17  24
ENDBRANCH  16  20
ENDBRANCH  15  16
ENDBRANCH   1  15
TORSDOF 5
ENDMDL
MODEL 3
REMARK VINA RESULT:    -7.624      1.876      3.861
REMARK INTER + INTRA:         -10.556
REMARK INTER:                 -10.383
REMARK INTRA:                  -0.173
REMARK UNBOUND:                -0.703
REMARK  Name = 
REMARK  5 active torsions:
REMARK  status: ('A' for Active; 'I' for Inactive)
REMARK    1  A    between atoms: C_2  and  C_4
REMARK    2  A    between atoms: C_7  and  C_8
REMARK    3  A    between atoms: C_8  and  O_9
REMARK    4  A    between atoms: O_9  and  C_10
REMARK    5  A    between atoms: C_15  and  C_16
REMARK                            x       y       z     vdW  Elec       q    Type
REMARK                         _______ _______ _______ _____ _____    ______ ____
ROOT
ATOM      1  C   UNL     1      45.396   5.136  12.033  0.00  0.00    +0.000 A 
ATOM      2  C   UNL     1      45.919   6.320  11.521  0.00  0.00    +0.000 A 
ATOM      3  F   UNL     1      45.429   6.884  10.410  0.00  0.00    +0.000 F 
ATOM      4  C   UNL     1      46.975   6.965  12.157  0.00  0.00    +0.000 A 
ATOM      5  C   UNL     1      47.524   6.429  13.325  0.00  0.00    +0.000 A 
ATOM      6  C   UNL     1      47.018   5.245  13.895  0.00  0.00    +0.000 A 
ATOM      7  C   UNL     1      45.951   4.621  13.212  0.00  0.00    +0.000 A 
ATOM      8  F   UNL     1      45.402   3.501  13.716  0.00  0.00    +0.000 F 
ENDROOT
BRANCH   6   9
ATOM      9  C   UNL     1      47.556   4.712  15.174  0.00  0.00    +0.000 A 
ATOM     10  C   UNL     1      47.616   3.327  15.424  0.00  0.00    +0.000 A 
ATOM     11  C   UNL     1      48.181   2.816  16.597  0.00  0.00    +0.000 A 
ATOM     12  C   UNL     1      48.711   3.679  17.549  0.00  0.00    +0.000 A 
ATOM     13  C   UNL     1      48.648   5.052  17.342  0.00  0.00    +0.000 A 
ATOM     14  C   UNL     1      48.064   5.559  16.176  0.00  0.00    +0.000 A 
ENDBRANCH   6   9
BRANCH   1  15
ATOM     15  O   UNL     1      44.369   4.397  11.508  0.00  0.00    +0.000 OA
BRANCH  15  16
ATOM     16  C   UNL     1      44.049   4.605  10.132  0.00  0.00    +0.000 C 
BRANCH  16  20
ATOM     17  C   UNL     1      46.602   2.398   7.515  0.00  0.00    +0.000 A 
ATOM     18  C   UNL     1      45.883   1.700   8.485  0.00  0.00    +0.000 A 
ATOM     19  C   UNL     1      45.052   2.406   9.356  0.00  0.00    +0.000 A 
ATOM     20  C   UNL     1      44.969   3.793   9.243  0.00  0.00    +0.000 A 
ATOM     21  N   UNL     1      45.663   4.483   8.301  0.00  0.00    +0.000 NA
ATOM     22  C   UNL     1      46.473   3.776   7.473  0.00  0.00    +0.000 A 
BRANCH  17  24
ATOM     23  N   UNL     1      48.636   2.419   6.187  0.00  0.00    +0.000 N 
ATOM     24  C   UNL     1      47.506   1.741   6.552  0.00  0.00    +0.000 C 
ATOM     25  O   UNL     1      47.280   0.615   6.124  0.00  0.00    +0.000 OA
ATOM     26  H   UNL     1      49.297   1.910   5.615  0.00  0.00    +0.000 HD
ATOM     27  H   UNL     1      48.982   3.215   6.703  0.00  0.00    +0.000 HD
ENDBRANCH  17  24
ENDBRANCH  16  20
ENDBRANCH  15  16
ENDBRANCH   1  15
TORSDOF 5
ENDMDL
MODEL 4
REMARK VINA RESULT:    -7.333      3.067      7.120
REMARK INTER + INTRA:         -10.180
REMARK INTER:                 -10.686
REMARK INTRA:                   0.506
REMARK UNBOUND:                -0.703
REMARK  Name = 
REMARK  5 active torsions:
REMARK  status: ('A' for Active; 'I' for Inactive)
REMARK    1  A    between atoms: C_2  and  C_4
REMARK    2  A    between atoms: C_7  and  C_8
REMARK    3  A    between atoms: C_8  and  O_9
REMARK    4  A    between atoms: O_9  and  C_10
REMARK    5  A    between atoms: C_15  and  C_16
REMARK                            x       y       z     vdW  Elec       q    Type
REMARK                         _______ _______ _______ _____ _____    ______ ____
ROOT
ATOM      1  C   UNL     1      44.696   5.008  10.841  0.00  0.00    +0.000 A 
ATOM      2  C   UNL     1      43.764   4.197  11.481  0.00  0.00    +0.000 A 
ATOM      3  F   UNL     1      43.055   4.631  12.531  0.00  0.00    +0.000 F 
ATOM      4  C   UNL     1      43.534   2.897  11.044  0.00  0.00    +0.000 A 
ATOM      5  C   UNL     1      44.238   2.388   9.950  0.00  0.00    +0.000 A 
ATOM      6  C   UNL     1      45.177   3.174   9.255  0.00  0.00    +0.000 A 
ATOM      7  C   UNL     1      45.384   4.485   9.737  0.00  0.00    +0.000 A 
ATOM      8  F   UNL     1      46.247   5.300   9.104  0.00  0.00    +0.000 F 
ENDROOT
BRANCH   6   9
ATOM      9  C   UNL     1      45.876   2.658   8.049  0.00  0.00    +0.000 A 
ATOM     10  C   UNL     1      46.022   3.447   6.891  0.00  0.00    +0.000 A 
ATOM     11  C   UNL     1      46.735   2.992   5.777  0.00  0.00    +0.000 A 
ATOM     12  C   UNL     1      47.332   1.736   5.797  0.00  0.00    +0.000 A 
ATOM     13  C   UNL     1      47.189   0.925   6.916  0.00  0.00    +0.000 A 
ATOM     14  C   UNL     1      46.457   1.377   8.020  0.00  0.00    +0.000 A 
ENDBRANCH   6   9
BRANCH   1  15
ATOM     15  O   UNL     1      45.026   6.297  11.169  0.00  0.00    +0.000 OA
BRANCH  15  16
ATOM     16  C   UNL     1      46.414   6.605  11.297  0.00  0.00    +0.000 C 
BRANCH  16  20
ATOM     17  C   UNL     1      47.730   5.382  15.172  0.00  0.00    +0.000 A 
ATOM     18  C   UNL     1      48.204   6.590  14.661  0.00  0.00    +0.000 A 
ATOM     19  C   UNL     1      47.794   7.000  13.392  0.00  0.00    +0.000 A 
ATOM     20  C   UNL     1      46.928   6.188  12.660  0.00  0.00    +0.000 A 
ATOM     21  N   UNL     1      46.457   5.011  13.150  0.00  0.00    +0.000 NA
ATOM     22  C   UNL     1      46.879   4.628  14.381  0.00  0.00    +0.000 A 
BRANCH  17  24
ATOM     23  N   UNL     1      47.721   5.591  17.593  0.00  0.00    +0.000 N 
ATOM     24  C   UNL     1      48.108   4.864  16.501  0.00  0.00    +0.000 C 
ATOM     25  O   UNL     1      48.709   3.804  16.630  0.00  0.00    +0.000 OA
ATOM     26  H   UNL     1      47.890   5.166  18.495  0.00  0.00    +0.000 HD
ATOM     27  H   UNL     1      47.016   6.313  17.542  0.00  0.00    +0.000 HD
ENDBRANCH  17  24
ENDBRANCH  16  20
ENDBRANCH  15  16
ENDBRANCH   1  15
TORSDOF 5
ENDMDL
MODEL 5
REMARK VINA RESULT:    -7.181      1.468      2.027
REMARK INTER + INTRA:          -9.984
REMARK INTER:                  -9.775
REMARK INTRA:                  -0.208
REMARK UNBOUND:                -0.703
REMARK  Name = 
REMARK  5 active torsions:
REMARK  status: ('A' for Active; 'I' for Inactive)
REMARK    1  A    between atoms: C_2  and  C_4
REMARK    2  A    between atoms: C_7  and  C_8
REMARK    3  A    between atoms: C_8  and  O_9
REMARK    4  A    between atoms: O_9  and  C_10
REMARK    5  A    between atoms: C_15  and  C_16
REMARK                            x       y       z     vdW  Elec       q    Type
REMARK                         _______ _______ _______ _____ _____    ______ ____
ROOT
ATOM      1  C   UNL     1      44.911   5.163  12.329  0.00  0.00    +0.000 A 
ATOM      2  C   UNL     1      46.036   4.521  12.839  0.00  0.00    +0.000 A 
ATOM      3  F   UNL     1      46.061   3.197  13.039  0.00  0.00    +0.000 F 
ATOM      4  C   UNL     1      47.183   5.241  13.155  0.00  0.00    +0.000 A 
ATOM      5  C   UNL     1      47.221   6.624  12.962  0.00  0.00    +0.000 A 
ATOM      6  C   UNL     1      46.117   7.319  12.429  0.00  0.00    +0.000 A 
ATOM      7  C   UNL     1      44.971   6.549  12.130  0.00  0.00    +0.000 A 
ATOM      8  F   UNL     1      43.890   7.144  11.593  0.00  0.00    +0.000 F 
ENDROOT
BRANCH   6   9
ATOM      9  C   UNL     1      46.180   8.779  12.159  0.00  0.00    +0.000 A 
ATOM     10  C   UNL     1      45.010   9.539  11.964  0.00  0.00    +0.000 A 
ATOM     11  C   UNL     1      45.058  10.925  11.775  0.00  0.00    +0.000 A 
ATOM     12  C   UNL     1      46.280  11.588  11.785  0.00  0.00    +0.000 A 
ATOM     13  C   UNL     1      47.454  10.863  11.955  0.00  0.00    +0.000 A 
ATOM     14  C   UNL     1      47.402   9.475  12.123  0.00  0.00    +0.000 A 
ENDBRANCH   6   9
BRANCH   1  15
ATOM     15  O   UNL     1      43.719   4.582  11.984  0.00  0.00    +0.000 OA
BRANCH  15  16
ATOM     16  C   UNL     1      43.310   4.685  10.620  0.00  0.00    +0.000 C 
BRANCH  16  20
ATOM     17  C   UNL     1      45.966   2.370   8.204  0.00  0.00    +0.000 A 
ATOM     18  C   UNL     1      46.021   3.760   8.107  0.00  0.00    +0.000 A 
ATOM     19  C   UNL     1      45.153   4.532   8.880  0.00  0.00    +0.000 A 
ATOM     20  C   UNL     1      44.244   3.896   9.724  0.00  0.00    +0.000 A 
ATOM     21  N   UNL     1      44.183   2.543   9.830  0.00  0.00    +0.000 NA
ATOM     22  C   UNL     1      45.029   1.813   9.060  0.00  0.00    +0.000 A 
BRANCH  17  24
ATOM     23  N   UNL     1      46.750   0.131   7.684  0.00  0.00    +0.000 N 
ATOM     24  C   UNL     1      46.839   1.471   7.427  0.00  0.00    +0.000 C 
ATOM     25  O   UNL     1      47.587   1.898   6.555  0.00  0.00    +0.000 OA
ATOM     26  H   UNL     1      47.273  -0.478   7.067  0.00  0.00    +0.000 HD
ATOM     27  H   UNL     1      45.979  -0.274   8.196  0.00  0.00    +0.000 HD
ENDBRANCH  17  24
ENDBRANCH  16  20
ENDBRANCH  15  16
ENDBRANCH   1  15
TORSDOF 5
ENDMDL
MODEL 6
REMARK VINA RESULT:    -6.769      5.217      8.242
REMARK INTER + INTRA:          -9.450
REMARK INTER:                  -8.586
REMARK INTRA:                  -0.864
REMARK UNBOUND:                -0.703
REMARK  Name = 
REMARK  5 active torsions:
REMARK  status: ('A' for Active; 'I' for Inactive)
REMARK    1  A    between atoms: C_2  and  C_4
REMARK    2  A    between atoms: C_7  and  C_8
REMARK    3  A    between atoms: C_8  and  O_9
REMARK    4  A    between atoms: O_9  and  C_10
REMARK    5  A    between atoms: C_15  and  C_16
REMARK                            x       y       z     vdW  Elec       q    Type
REMARK                         _______ _______ _______ _____ _____    ______ ____
ROOT
ATOM      1  C   UNL     1      47.972   6.980  14.184  0.00  0.00    +0.000 A 
ATOM      2  C   UNL     1      47.662   8.310  13.915  0.00  0.00    +0.000 A 
ATOM      3  F   UNL     1      48.397   9.316  14.404  0.00  0.00    +0.000 F 
ATOM      4  C   UNL     1      46.571   8.639  13.118  0.00  0.00    +0.000 A 
ATOM      5  C   UNL     1      45.769   7.633  12.573  0.00  0.00    +0.000 A 
ATOM      6  C   UNL     1      46.051   6.271  12.797  0.00  0.00    +0.000 A 
ATOM      7  C   UNL     1      47.164   5.983  13.618  0.00  0.00    +0.000 A 
ATOM      8  F   UNL     1      47.506   4.703  13.852  0.00  0.00    +0.000 F 
ENDROOT
BRANCH   6   9
ATOM      9  C   UNL     1      45.241   5.199  12.162  0.00  0.00    +0.000 A 
ATOM     10  C   UNL     1      44.454   4.321  12.933  0.00  0.00    +0.000 A 
ATOM     11  C   UNL     1      43.638   3.353  12.338  0.00  0.00    +0.000 A 
ATOM     12  C   UNL     1      43.581   3.243  10.953  0.00  0.00    +0.000 A 
ATOM     13  C   UNL     1      44.362   4.081  10.165  0.00  0.00    +0.000 A 
ATOM     14  C   UNL     1      45.192   5.034  10.765  0.00  0.00    +0.000 A 
ENDBRANCH   6   9
BRANCH   1  15
ATOM     15  O   UNL     1      49.005   6.516  14.954  0.00  0.00    +0.000 OA
BRANCH  15  16
ATOM     16  C   UNL     1      48.741   6.293  16.339  0.00  0.00    +0.000 C 
BRANCH  16  20
ATOM     17  C   UNL     1      51.022   2.933  17.663  0.00  0.00    +0.000 A 
ATOM     18  C   UNL     1      49.652   2.767  17.460  0.00  0.00    +0.000 A 
ATOM     19  C   UNL     1      48.889   3.857  17.039  0.00  0.00    +0.000 A 
ATOM     20  C   UNL     1      49.512   5.089  16.840  0.00  0.00    +0.000 A 
ATOM     21  N   UNL     1      50.846   5.261  17.032  0.00  0.00    +0.000 NA
ATOM     22  C   UNL     1      51.565   4.190  17.453  0.00  0.00    +0.000 A 
BRANCH  17  24
ATOM     23  N   UNL     1      51.490   0.560  17.889  0.00  0.00    +0.000 N 
ATOM     24  C   UNL     1      51.910   1.843  18.109  0.00  0.00    +0.000 C 
ATOM     25  O   UNL     1      53.000   2.071  18.620  0.00  0.00    +0.000 OA
ATOM     26  H   UNL     1      52.158  -0.170  18.100  0.00  0.00    +0.000 HD
ATOM     27  H   UNL     1      50.739   0.336  17.253  0.00  0.00    +0.000 HD
ENDBRANCH  17  24
ENDBRANCH  16  20
ENDBRANCH  15  16
ENDBRANCH   1  15
TORSDOF 5
ENDMDL
MODEL 7
REMARK VINA RESULT:    -6.677      4.871      7.121
REMARK INTER + INTRA:          -9.332
REMARK INTER:                  -8.703
REMARK INTRA:                  -0.629
REMARK UNBOUND:                -0.703
REMARK  Name = 
REMARK  5 active torsions:
REMARK  status: ('A' for Active; 'I' for Inactive)
REMARK    1  A    between atoms: C_2  and  C_4
REMARK    2  A    between atoms: C_7  and  C_8
REMARK    3  A    between atoms: C_8  and  O_9
REMARK    4  A    between atoms: O_9  and  C_10
REMARK    5  A    between atoms: C_15  and  C_16
REMARK                            x       y       z     vdW  Elec       q    Type
REMARK                         _______ _______ _______ _____ _____    ______ ____
ROOT
ATOM      1  C   UNL     1      46.593   4.336  13.381  0.00  0.00    +0.000 A 
ATOM      2  C   UNL     1      45.453   4.006  12.653  0.00  0.00    +0.000 A 
ATOM      3  F   UNL     1      44.840   2.825  12.802  0.00  0.00    +0.000 F 
ATOM      4  C   UNL     1      44.907   4.904  11.741  0.00  0.00    +0.000 A 
ATOM      5  C   UNL     1      45.498   6.154  11.546  0.00  0.00    +0.000 A 
ATOM      6  C   UNL     1      46.640   6.545  12.272  0.00  0.00    +0.000 A 
ATOM      7  C   UNL     1      47.165   5.600  13.181  0.00  0.00    +0.000 A 
ATOM      8  F   UNL     1      48.238   5.917  13.927  0.00  0.00    +0.000 F 
ENDROOT
BRANCH   6   9
ATOM      9  C   UNL     1      47.229   7.901  12.116  0.00  0.00    +0.000 A 
ATOM     10  C   UNL     1      48.570   8.077  11.722  0.00  0.00    +0.000 A 
ATOM     11  C   UNL     1      49.112   9.349  11.509  0.00  0.00    +0.000 A 
ATOM     12  C   UNL     1      48.322  10.480  11.677  0.00  0.00    +0.000 A 
ATOM     13  C   UNL     1      47.001  10.341  12.085  0.00  0.00    +0.000 A 
ATOM     14  C   UNL     1      46.469   9.068  12.316  0.00  0.00    +0.000 A 
ENDBRANCH   6   9
BRANCH   1  15
ATOM     15  O   UNL     1      47.237   3.550  14.299  0.00  0.00    +0.000 OA
BRANCH  15  16
ATOM     16  C   UNL     1      47.078   3.888  15.677  0.00  0.00    +0.000 C 
BRANCH  16  20
ATOM     17  C   UNL     1      50.817   3.492  17.703  0.00  0.00    +0.000 A 
ATOM     18  C   UNL     1      50.142   2.333  17.323  0.00  0.00    +0.000 A 
ATOM     19  C   UNL     1      48.914   2.443  16.671  0.00  0.00    +0.000 A 
ATOM     20  C   UNL     1      48.385   3.709  16.423  0.00  0.00    +0.000 A 
ATOM     21  N   UNL     1      49.036   4.846  16.785  0.00  0.00    +0.000 NA
ATOM     22  C   UNL     1      50.222   4.713  17.428  0.00  0.00    +0.000 A 
BRANCH  17  24
ATOM     23  N   UNL     1      52.634   2.259  18.743  0.00  0.00    +0.000 N 
ATOM     24  C   UNL     1      52.119   3.478  18.398  0.00  0.00    +0.000 C 
ATOM     25  O   UNL     1      52.737   4.511  18.624  0.00  0.00    +0.000 OA
ATOM     26  H   UNL     1      53.574   2.262  19.117  0.00  0.00    +0.000 HD
ATOM     27  H   UNL     1      52.289   1.394  18.352  0.00  0.00    +0.000 HD
ENDBRANCH  17  24
ENDBRANCH  16  20
ENDBRANCH  15  16
ENDBRANCH   1  15
TORSDOF 5
ENDMDL
MODEL 8
REMARK VINA RESULT:    -6.671      5.113      7.045
REMARK INTER + INTRA:          -9.324
REMARK INTER:                  -8.518
REMARK INTRA:                  -0.806
REMARK UNBOUND:                -0.703
REMARK  Name = 
REMARK  5 active torsions:
REMARK  status: ('A' for Active; 'I' for Inactive)
REMARK    1  A    between atoms: C_2  and  C_4
REMARK    2  A    between atoms: C_7  and  C_8
REMARK    3  A    between atoms: C_8  and  O_9
REMARK    4  A    between atoms: O_9  and  C_10
REMARK    5  A    between atoms: C_15  and  C_16
REMARK                            x       y       z     vdW  Elec       q    Type
REMARK                         _______ _______ _______ _____ _____    ______ ____
ROOT
ATOM      1  C   UNL     1      48.065   3.507  16.833  0.00  0.00    +0.000 A 
ATOM      2  C   UNL     1      49.267   2.842  17.059  0.00  0.00    +0.000 A 
ATOM      3  F   UNL     1      49.677   1.841  16.269  0.00  0.00    +0.000 F 
ATOM      4  C   UNL     1      50.091   3.202  18.120  0.00  0.00    +0.000 A 
ATOM      5  C   UNL     1      49.721   4.242  18.976  0.00  0.00    +0.000 A 
ATOM      6  C   UNL     1      48.526   4.961  18.779  0.00  0.00    +0.000 A 
ATOM      7  C   UNL     1      47.717   4.557  17.694  0.00  0.00    +0.000 A 
ATOM      8  F   UNL     1      46.574   5.217  17.432  0.00  0.00    +0.000 F 
ENDROOT
BRANCH   6   9
ATOM      9  C   UNL     1      48.165   6.113  19.646  0.00  0.00    +0.000 A 
ATOM     10  C   UNL     1      48.130   7.428  19.142  0.00  0.00    +0.000 A 
ATOM     11  C   UNL     1      47.727   8.508  19.936  0.00  0.00    +0.000 A 
ATOM     12  C   UNL     1      47.339   8.298  21.254  0.00  0.00    +0.000 A 
ATOM     13  C   UNL     1      47.382   7.015  21.787  0.00  0.00    +0.000 A 
ATOM     14  C   UNL     1      47.805   5.942  20.996  0.00  0.00    +0.000 A 
ENDBRANCH   6   9
BRANCH   1  15
ATOM     15  O   UNL     1      47.160   3.253  15.837  0.00  0.00    +0.000 OA
BRANCH  15  16
ATOM     16  C   UNL     1      47.566   3.526  14.497  0.00  0.00    +0.000 C 
BRANCH  16  20
ATOM     17  C   UNL     1      44.322   4.940  12.105  0.00  0.00    +0.000 A 
ATOM     18  C   UNL     1      45.044   5.865  12.858  0.00  0.00    +0.000 A 
ATOM     19  C   UNL     1      46.100   5.420  13.654  0.00  0.00    +0.000 A 
ATOM     20  C   UNL     1      46.402   4.059  13.686  0.00  0.00    +0.000 A 
ATOM     21  N   UNL     1      45.707   3.149  12.955  0.00  0.00    +0.000 NA
ATOM     22  C   UNL     1      44.678   3.604  12.198  0.00  0.00    +0.000 A 
BRANCH  17  24
ATOM     23  N   UNL     1      42.151   5.992  11.814  0.00  0.00    +0.000 N 
ATOM     24  C   UNL     1      43.189   5.313  11.237  0.00  0.00    +0.000 C 
ATOM     25  O   UNL     1      43.191   5.065  10.037  0.00  0.00    +0.000 OA
ATOM     26  H   UNL     1      41.438   6.336  11.185  0.00  0.00    +0.000 HD
ATOM     27  H   UNL     1      42.228   6.434  12.719  0.00  0.00    +0.000 HD
ENDBRANCH  17  24
ENDBRANCH  16  20
ENDBRANCH  15  16
ENDBRANCH   1  15
TORSDOF 5
ENDMDL
MODEL 9
REMARK VINA RESULT:    -6.549      3.617      6.191
REMARK INTER + INTRA:          -9.167
REMARK INTER:                  -8.123
REMARK INTRA:                  -1.044
REMARK UNBOUND:                -0.703
REMARK  Name = 
REMARK  5 active torsions:
REMARK  status: ('A' for Active; 'I' for Inactive)
REMARK    1  A    between atoms: C_2  and  C_4
REMARK    2  A    between atoms: C_7  and  C_8
REMARK    3  A    between atoms: C_8  and  O_9
REMARK    4  A    between atoms: O_9  and  C_10
REMARK    5  A    between atoms: C_15  and  C_16
REMARK                            x       y       z     vdW  Elec       q    Type
REMARK                         _______ _______ _______ _____ _____    ______ ____
ROOT
ATOM      1  C   UNL     1      48.238   7.992  13.953  0.00  0.00    +0.000 A 
ATOM      2  C   UNL     1      48.476   9.135  14.711  0.00  0.00    +0.000 A 
ATOM      3  F   UNL     1      48.399  10.362  14.179  0.00  0.00    +0.000 F 
ATOM      4  C   UNL     1      48.800   9.039  16.060  0.00  0.00    +0.000 A 
ATOM      5  C   UNL     1      48.890   7.788  16.674  0.00  0.00    +0.000 A 
ATOM      6  C   UNL     1      48.637   6.602  15.958  0.00  0.00    +0.000 A 
ATOM      7  C   UNL     1      48.319   6.746  14.589  0.00  0.00    +0.000 A 
ATOM      8  F   UNL     1      48.041   5.656  13.851  0.00  0.00    +0.000 F 
ENDROOT
BRANCH   6   9
ATOM      9  C   UNL     1      48.664   5.274  16.626  0.00  0.00    +0.000 A 
ATOM     10  C   UNL     1      49.843   4.772  17.211  0.00  0.00    +0.000 A 
ATOM     11  C   UNL     1      49.859   3.553  17.898  0.00  0.00    +0.000 A 
ATOM     12  C   UNL     1      48.692   2.809  18.027  0.00  0.00    +0.000 A 
ATOM     13  C   UNL     1      47.517   3.268  17.443  0.00  0.00    +0.000 A 
ATOM     14  C   UNL     1      47.510   4.477  16.739  0.00  0.00    +0.000 A 
ENDBRANCH   6   9
BRANCH   1  15
ATOM     15  O   UNL     1      47.919   7.941  12.621  0.00  0.00    +0.000 OA
BRANCH  15  16
ATOM     16  C   UNL     1      46.555   8.163  12.265  0.00  0.00    +0.000 C 
BRANCH  16  20
ATOM     17  C   UNL     1      44.620   4.414  11.599  0.00  0.00    +0.000 A 
ATOM     18  C   UNL     1      45.430   4.932  10.589  0.00  0.00    +0.000 A 
ATOM     19  C   UNL     1      46.061   6.161  10.784  0.00  0.00    +0.000 A 
ATOM     20  C   UNL     1      45.859   6.848  11.981  0.00  0.00    +0.000 A 
ATOM     21  N   UNL     1      45.075   6.351  12.973  0.00  0.00    +0.000 NA
ATOM     22  C   UNL     1      44.462   5.161  12.755  0.00  0.00    +0.000 A 
BRANCH  17  24
ATOM     23  N   UNL     1      43.617   2.465  12.645  0.00  0.00    +0.000 N 
ATOM     24  C   UNL     1      43.910   3.126  11.484  0.00  0.00    +0.000 C 
ATOM     25  O   UNL     1      43.560   2.680  10.398  0.00  0.00    +0.000 OA
ATOM     26  H   UNL     1      43.035   1.642  12.555  0.00  0.00    +0.000 HD
ATOM     27  H   UNL     1      43.655   2.913  13.549  0.00  0.00    +0.000 HD
ENDBRANCH  17  24
ENDBRANCH  16  20
ENDBRANCH  15  16
ENDBRANCH   1  15
TORSDOF 5
ENDMDL
