MODEL 1
REMARK VINA RESULT:    -8.000      0.000      0.000
REMARK INTER + INTRA:         -11.905
REMARK INTER:                 -10.806
REMARK INTRA:                  -1.098
REMARK UNBOUND:                -1.098
REMARK  Name = 
REMARK  7 active torsions:
REMARK  status: ('A' for Active; 'I' for Inactive)
REMARK    1  A    between atoms: C_1  and  C_2
REMARK    2  A    between atoms: C_2  and  N_3
REMARK    3  A    between atoms: C_2  and  C_16
REMARK    4  A    between atoms: C_4  and  C_6
REMARK    5  A    between atoms: C_19  and  C_20
REMARK    6  A    between atoms: C_20  and  N_21
REMARK    7  A    between atoms: C_22  and  C_24
REMARK                            x       y       z     vdW  Elec       q    Type
REMARK                         _______ _______ _______ _____ _____    ______ ____
ROOT
ATOM      1  C   UNL     1      47.081   6.581  13.570  0.00  0.00    +0.000 A 
ATOM      2  C   UNL     1      45.944   6.896  12.815  0.00  0.00    +0.000 A 
ATOM      3  C   UNL     1      45.130   5.882  12.292  0.00  0.00    +0.000 A 
ATOM      4  C   UNL     1      45.428   4.530  12.520  0.00  0.00    +0.000 A 
ATOM      5  C   UNL     1      46.561   4.214  13.278  0.00  0.00    +0.000 A 
ATOM      6  C   UNL     1      47.371   5.226  13.803  0.00  0.00    +0.000 A 
ENDROOT
BRANCH   1   8
ATOM      7  C   UNL     1      47.513   9.053  13.635  0.00  0.00    +0.000 C 
ATOM      8  C   UNL     1      48.008   7.676  14.093  0.00  0.00    +0.000 C 
BRANCH   8   9
ATOM      9  N   UNL     1      48.094   7.564  15.543  0.00  0.00    +0.000 N 
ATOM     10  C   UNL     1      49.150   6.989  16.203  0.00  0.00    +0.000 C 
ATOM     11  O   UNL     1      50.134   6.538  15.625  0.00  0.00    +0.000 OA
ATOM     12  H   UNL     1      47.207   7.609  16.035  0.00  0.00    +0.000 HD
BRANCH  10  13
ATOM     13  C   UNL     1      49.076   7.001  17.670  0.00  0.00    +0.000 A 
ATOM     14  C   UNL     1      49.231   8.196  18.358  0.00  0.00    +0.000 A 
ATOM     15  S   UNL     1      49.112   8.030  20.051  0.00  0.00    +0.000 S 
ATOM     16  C   UNL     1      48.888   6.348  19.925  0.00  0.00    +0.000 A 
ATOM     17  N   UNL     1      48.760   5.573  21.035  0.00  0.00    +0.000 NA
ATOM     18  C   UNL     1      48.630   4.312  20.794  0.00  0.00    +0.000 A 
ATOM     19  N   UNL     1      48.598   3.756  19.541  0.00  0.00    +0.000 N 
ATOM     20  C   UNL     1      48.676   4.504  18.390  0.00  0.00    +0.000 A 
ATOM     21  O   UNL     1      48.564   3.987  17.285  0.00  0.00    +0.000 OA
ATOM     22  C   UNL     1      48.866   5.925  18.608  0.00  0.00    +0.000 A 
ATOM     23  H   UNL     1      48.472   2.763  19.418  0.00  0.00    +0.000 HD
ENDBRANCH  10  13
ENDBRANCH   8   9
ENDBRANCH   1   8
BRANCH   4  24
ATOM     24  C   UNL     1      44.573   3.434  11.934  0.00  0.00    +0.000 C 
BRANCH  24  25
ATOM     25  N   UNL     1      45.170   2.887  10.733  0.00  0.00    +0.000 N 
ATOM     26  C   UNL     1      44.871   3.412   9.493  0.00  0.00    +0.000 C 
ATOM     27  O   UNL     1      44.077   4.327   9.310  0.00  0.00    +0.000 OA
ATOM     28  H   UNL     1      45.993   2.311  10.848  0.00  0.00    +0.000 HD
BRANCH  26  29
ATOM     29  C   UNL     1      45.603   2.813   8.350  0.00  0.00    +0.000 A 
ATOM     30  C   UNL     1      45.926   3.542   7.203  0.00  0.00    +0.000 A 
ATOM     31  C   UNL     1      46.582   2.903   6.153  0.00  0.00    +0.000 A 
ATOM     32  C   UNL     1      46.895   1.560   6.299  0.00  0.00    +0.000 A 
ATOM     33 CL   UNL     1      47.664   0.699   5.031  0.00  0.00    +0.000 Cl
ATOM     34  N   UNL     1      46.625   0.832   7.402  0.00  0.00    +0.000 NA
ATOM     35  C   UNL     1      45.994   1.481   8.413  0.00  0.00    +0.000 A 
ENDBRANCH  26  29
ENDBRANCH  24  25
ENDBRANCH   4  24
TORSDOF 6
ENDMDL
MODEL 2
REMARK VINA RESULT:    -8.000      1.410      1.966
REMARK INTER + INTRA:         -11.904
REMARK INTER:                 -10.619
REMARK INTRA:                  -1.286
REMARK UNBOUND:                -1.098
REMARK  Name = 
REMARK  7 active torsions:
REMARK  status: ('A' for Active; 'I' for Inactive)
REMARK    1  A    between atoms: C_1  and  C_2
REMARK    2  A    between atoms: C_2  and  N_3
REMARK    3  A    between atoms: C_2  and  C_16
REMARK    4  A    between atoms: C_4  and  C_6
REMARK    5  A    between atoms: C_19  and  C_20
REMARK    6  A    between atoms: C_20  and  N_21
REMARK    7  A    between atoms: C_22  and  C_24
REMARK                            x       y       z     vdW  Elec       q    Type
REMARK                         _______ _______ _______ _____ _____    ______ ____
ROOT
ATOM      1  C   UNL     1      47.247   5.773  13.937  0.00  0.00    +0.000 A 
ATOM      2  C   UNL     1      46.287   6.334  13.086  0.00  0.00    +0.000 A 
ATOM      3  C   UNL     1      45.383   5.518  12.391  0.00  0.00    +0.000 A 
ATOM      4  C   UNL     1      45.414   4.123  12.537  0.00  0.00    +0.000 A 
ATOM      5  C   UNL     1      46.370   3.561  13.390  0.00  0.00    +0.000 A 
ATOM      6  C   UNL     1      47.269   4.376  14.086  0.00  0.00    +0.000 A 
ENDROOT
BRANCH   1   8
ATOM      7  C   UNL     1      48.071   8.120  14.274  0.00  0.00    +0.000 C 
ATOM      8  C   UNL     1      48.275   6.648  14.652  0.00  0.00    +0.000 C 
BRANCH   8   9
ATOM      9  N   UNL     1      48.170   6.417  16.086  0.00  0.00    +0.000 N 
ATOM     10  C   UNL     1      49.206   5.970  16.865  0.00  0.00    +0.000 C 
ATOM     11  O   UNL     1      50.329   5.750  16.421  0.00  0.00    +0.000 OA
ATOM     12  H   UNL     1      47.228   6.265  16.433  0.00  0.00    +0.000 HD
BRANCH  10  13
ATOM     13  C   UNL     1      48.920   5.832  18.299  0.00  0.00    +0.000 A 
ATOM     14  C   UNL     1      49.171   4.626  18.939  0.00  0.00    +0.000 A 
ATOM     15  S   UNL     1      48.788   4.640  20.600  0.00  0.00    +0.000 S 
ATOM     16  C   UNL     1      48.237   6.248  20.514  0.00  0.00    +0.000 A 
ATOM     17  N   UNL     1      47.722   6.870  21.608  0.00  0.00    +0.000 NA
ATOM     18  C   UNL     1      47.312   8.075  21.392  0.00  0.00    +0.000 A 
ATOM     19  N   UNL     1      47.386   8.721  20.185  0.00  0.00    +0.000 N 
ATOM     20  C   UNL     1      47.941   8.148  19.065  0.00  0.00    +0.000 A 
ATOM     21  O   UNL     1      48.066   8.778  18.021  0.00  0.00    +0.000 OA
ATOM     22  C   UNL     1      48.379   6.778  19.244  0.00  0.00    +0.000 A 
ATOM     23  H   UNL     1      47.067   9.672  20.086  0.00  0.00    +0.000 HD
ENDBRANCH  10  13
ENDBRANCH   8   9
ENDBRANCH   1   8
BRANCH   4  24
ATOM     24  C   UNL     1      44.465   3.238  11.768  0.00  0.00    +0.000 C 
BRANCH  24  25
ATOM     25  N   UNL     1      45.084   2.723  10.565  0.00  0.00    +0.000 N 
ATOM     26  C   UNL     1      44.939   3.377   9.359  0.00  0.00    +0.000 C 
ATOM     27  O   UNL     1      44.267   4.391   9.206  0.00  0.00    +0.000 OA
ATOM     28  H   UNL     1      45.828   2.048  10.681  0.00  0.00    +0.000 HD
BRANCH  26  29
ATOM     29  C   UNL     1      45.682   2.791   8.217  0.00  0.00    +0.000 A 
ATOM     30  C   UNL     1      45.976   3.519   7.061  0.00  0.00    +0.000 A 
ATOM     31  C   UNL     1      46.646   2.891   6.013  0.00  0.00    +0.000 A 
ATOM     32  C   UNL     1      47.002   1.560   6.170  0.00  0.00    +0.000 A 
ATOM     33 CL   UNL     1      47.790   0.712   4.905  0.00  0.00    +0.000 Cl
ATOM     34  N   UNL     1      46.762   0.834   7.281  0.00  0.00    +0.000 NA
ATOM     35  C   UNL     1      46.116   1.473   8.290  0.00  0.00    +0.000 A 
ENDBRANCH  26  29
ENDBRANCH  24  25
ENDBRANCH   4  24
TORSDOF 6
ENDMDL
MODEL 3
REMARK VINA RESULT:    -7.324      1.704      2.166
REMARK INTER + INTRA:         -10.991
REMARK INTER:                  -9.682
REMARK INTRA:                  -1.309
REMARK UNBOUND:                -1.098
REMARK  Name = 
REMARK  7 active torsions:
REMARK  status: ('A' for Active; 'I' for Inactive)
REMARK    1  A    between atoms: C_1  and  C_2
REMARK    2  A    between atoms: C_2  and  N_3
REMARK    3  A    between atoms: C_2  and  C_16
REMARK    4  A    between atoms: C_4  and  C_6
REMARK    5  A    between atoms: C_19  and  C_20
REMARK    6  A    between atoms: C_20  and  N_21
REMARK    7  A    between atoms: C_22  and  C_24
REMARK                            x       y       z     vdW  Elec       q    Type
REMARK                         _______ _______ _______ _____ _____    ______ ____
ROOT
ATOM      1  C   UNL     1      47.953   8.190  13.384  0.00  0.00    +0.000 A 
ATOM      2  C   UNL     1      48.260   7.125  12.526  0.00  0.00    +0.000 A 
ATOM      3  C   UNL     1      47.272   6.559  11.708  0.00  0.00    +0.000 A 
ATOM      4  C   UNL     1      45.958   7.049  11.722  0.00  0.00    +0.000 A 
ATOM      5  C   UNL     1      45.651   8.115  12.574  0.00  0.00    +0.000 A 
ATOM      6  C   UNL     1      46.637   8.682  13.387  0.00  0.00    +0.000 A 
ENDROOT
BRANCH   1   8
ATOM      7  C   UNL     1      48.673  10.235  14.648  0.00  0.00    +0.000 C 
ATOM      8  C   UNL     1      49.006   8.774  14.322  0.00  0.00    +0.000 C 
BRANCH   8   9
ATOM      9  N   UNL     1      49.088   7.939  15.513  0.00  0.00    +0.000 N 
ATOM     10  C   UNL     1      50.226   7.284  15.909  0.00  0.00    +0.000 C 
ATOM     11  O   UNL     1      51.290   7.368  15.304  0.00  0.00    +0.000 OA
ATOM     12  H   UNL     1      48.201   7.576  15.850  0.00  0.00    +0.000 HD
BRANCH  10  13
ATOM     13  C   UNL     1      50.126   6.518  17.158  0.00  0.00    +0.000 A 
ATOM     14  C   UNL     1      50.915   6.865  18.246  0.00  0.00    +0.000 A 
ATOM     15  S   UNL     1      50.670   5.876  19.612  0.00  0.00    +0.000 S 
ATOM     16  C   UNL     1      49.528   4.924  18.785  0.00  0.00    +0.000 A 
ATOM     17  N   UNL     1      48.945   3.851  19.385  0.00  0.00    +0.000 NA
ATOM     18  C   UNL     1      48.124   3.199  18.631  0.00  0.00    +0.000 A 
ATOM     19  N   UNL     1      47.819   3.533  17.337  0.00  0.00    +0.000 N 
ATOM     20  C   UNL     1      48.347   4.635  16.706  0.00  0.00    +0.000 A 
ATOM     21  O   UNL     1      47.995   4.953  15.576  0.00  0.00    +0.000 OA
ATOM     22  C   UNL     1      49.309   5.378  17.497  0.00  0.00    +0.000 A 
ATOM     23  H   UNL     1      47.152   2.995  16.807  0.00  0.00    +0.000 HD
ENDBRANCH  10  13
ENDBRANCH   8   9
ENDBRANCH   1   8
BRANCH   4  24
ATOM     24  C   UNL     1      44.884   6.422  10.868  0.00  0.00    +0.000 C 
BRANCH  24  25
ATOM     25  N   UNL     1      45.437   5.432   9.969  0.00  0.00    +0.000 N 
ATOM     26  C   UNL     1      44.784   4.239   9.742  0.00  0.00    +0.000 C 
ATOM     27  O   UNL     1      43.737   3.916  10.292  0.00  0.00    +0.000 OA
ATOM     28  H   UNL     1      46.150   5.743   9.322  0.00  0.00    +0.000 HD
BRANCH  26  29
ATOM     29  C   UNL     1      45.415   3.341   8.745  0.00  0.00    +0.000 A 
ATOM     30  C   UNL     1      45.565   1.968   8.960  0.00  0.00    +0.000 A 
ATOM     31  C   UNL     1      46.201   1.193   7.994  0.00  0.00    +0.000 A 
ATOM     32  C   UNL     1      46.655   1.823   6.845  0.00  0.00    +0.000 A 
ATOM     33 CL   UNL     1      47.484   0.939   5.632  0.00  0.00    +0.000 Cl
ATOM     34  N   UNL     1      46.502   3.139   6.589  0.00  0.00    +0.000 NA
ATOM     35  C   UNL     1      45.870   3.869   7.543  0.00  0.00    +0.000 A 
ENDBRANCH  26  29
ENDBRANCH  24  25
ENDBRANCH   4  24
TORSDOF 6
ENDMDL
MODEL 4
REMARK VINA RESULT:    -7.311      4.286      8.934
REMARK INTER + INTRA:         -10.973
REMARK INTER:                  -9.906
REMARK INTRA:                  -1.067
REMARK UNBOUND:                -1.098
REMARK  Name = 
REMARK  7 active torsions:
REMARK  status: ('A' for Active; 'I' for Inactive)
REMARK    1  A    between atoms: C_1  and  C_2
REMARK    2  A    between atoms: C_2  and  N_3
REMARK    3  A    between atoms: C_2  and  C_16
REMARK    4  A    between atoms: C_4  and  C_6
REMARK    5  A    between atoms: C_19  and  C_20
REMARK    6  A    between atoms: C_20  and  N_21
REMARK    7  A    between atoms: C_22  and  C_24
REMARK                            x       y       z     vdW  Elec       q    Type
REMARK                         _______ _______ _______ _____ _____    ______ ____
ROOT
ATOM      1  C   UNL     1      48.586   7.648  13.635  0.00  0.00    +0.000 A 
ATOM      2  C   UNL     1      48.126   6.456  14.209  0.00  0.00    +0.000 A 
ATOM      3  C   UNL     1      48.460   6.123  15.530  0.00  0.00    +0.000 A 
ATOM      4  C   UNL     1      49.255   6.978  16.308  0.00  0.00    +0.000 A 
ATOM      5  C   UNL     1      49.711   8.171  15.738  0.00  0.00    +0.000 A 
ATOM      6  C   UNL     1      49.375   8.504  14.422  0.00  0.00    +0.000 A 
ENDROOT
BRANCH   1   8
ATOM      7  C   UNL     1      49.576   8.306  11.423  0.00  0.00    +0.000 C 
ATOM      8  C   UNL     1      48.279   7.992  12.179  0.00  0.00    +0.000 C 
BRANCH   8   9
ATOM      9  N   UNL     1      47.535   6.889  11.585  0.00  0.00    +0.000 N 
ATOM     10  C   UNL     1      46.170   6.867  11.462  0.00  0.00    +0.000 C 
ATOM     11  O   UNL     1      45.451   7.796  11.822  0.00  0.00    +0.000 OA
ATOM     12  H   UNL     1      48.017   5.995  11.577  0.00  0.00    +0.000 HD
BRANCH  10  13
ATOM     13  C   UNL     1      45.601   5.685  10.802  0.00  0.00    +0.000 A 
ATOM     14  C   UNL     1      45.760   5.517   9.433  0.00  0.00    +0.000 A 
ATOM     15  S   UNL     1      45.043   4.091   8.832  0.00  0.00    +0.000 S 
ATOM     16  C   UNL     1      44.462   3.669  10.374  0.00  0.00    +0.000 A 
ATOM     17  N   UNL     1      43.710   2.550  10.557  0.00  0.00    +0.000 NA
ATOM     18  C   UNL     1      43.309   2.370  11.770  0.00  0.00    +0.000 A 
ATOM     19  N   UNL     1      43.606   3.197  12.823  0.00  0.00    +0.000 N 
ATOM     20  C   UNL     1      44.400   4.312  12.694  0.00  0.00    +0.000 A 
ATOM     21  O   UNL     1      44.713   4.988  13.668  0.00  0.00    +0.000 OA
ATOM     22  C   UNL     1      44.842   4.583  11.341  0.00  0.00    +0.000 A 
ATOM     23  H   UNL     1      43.279   2.989  13.753  0.00  0.00    +0.000 HD
ENDBRANCH  10  13
ENDBRANCH   8   9
ENDBRANCH   1   8
BRANCH   4  24
ATOM     24  C   UNL     1      49.643   6.610  17.719  0.00  0.00    +0.000 C 
BRANCH  24  25
ATOM     25  N   UNL     1      50.572   5.499  17.736  0.00  0.00    +0.000 N 
ATOM     26  C   UNL     1      50.134   4.215  17.988  0.00  0.00    +0.000 C 
ATOM     27  O   UNL     1      48.971   3.927  18.246  0.00  0.00    +0.000 OA
ATOM     28  H   UNL     1      51.472   5.644  17.300  0.00  0.00    +0.000 HD
BRANCH  26  29
ATOM     29  C   UNL     1      51.169   3.156  17.904  0.00  0.00    +0.000 A 
ATOM     30  C   UNL     1      52.460   3.329  18.408  0.00  0.00    +0.000 A 
ATOM     31  C   UNL     1      53.391   2.303  18.260  0.00  0.00    +0.000 A 
ATOM     32  C   UNL     1      52.987   1.141  17.620  0.00  0.00    +0.000 A 
ATOM     33 CL   UNL     1      54.091  -0.146  17.366  0.00  0.00    +0.000 Cl
ATOM     34  N   UNL     1      51.741   0.927  17.148  0.00  0.00    +0.000 NA
ATOM     35  C   UNL     1      50.852   1.939  17.313  0.00  0.00    +0.000 A 
ENDBRANCH  26  29
ENDBRANCH  24  25
ENDBRANCH   4  24
TORSDOF 6
ENDMDL
MODEL 5
REMARK VINA RESULT:    -7.206      5.234      7.049
REMARK INTER + INTRA:         -10.832
REMARK INTER:                  -9.831
REMARK INTRA:                  -1.002
REMARK UNBOUND:                -1.098
REMARK  Name = 
REMARK  7 active torsions:
REMARK  status: ('A' for Active; 'I' for Inactive)
REMARK    1  A    between atoms: C_1  and  C_2
REMARK    2  A    between atoms: C_2  and  N_3
REMARK    3  A    between atoms: C_2  and  C_16
REMARK    4  A    between atoms: C_4  and  C_6
REMARK    5  A    between atoms: C_19  and  C_20
REMARK    6  A    between atoms: C_20  and  N_21
REMARK    7  A    between atoms: C_22  and  C_24
REMARK                            x       y       z     vdW  Elec       q    Type
REMARK                         _______ _______ _______ _____ _____    ______ ____
ROOT
ATOM      1  C   UNL     1      45.903   5.902  13.427  0.00  0.00    +0.000 A 
ATOM      2  C   UNL     1      46.778   6.994  13.489  0.00  0.00    +0.000 A 
ATOM      3  C   UNL     1      46.473   8.193  12.829  0.00  0.00    +0.000 A 
ATOM      4  C   UNL     1      45.284   8.330  12.098  0.00  0.00    +0.000 A 
ATOM      5  C   UNL     1      44.407   7.242  12.038  0.00  0.00    +0.000 A 
ATOM      6  C   UNL     1      44.709   6.048  12.700  0.00  0.00    +0.000 A 
ENDROOT
BRANCH   1   8
ATOM      7  C   UNL     1      46.594   3.522  13.028  0.00  0.00    +0.000 C 
ATOM      8  C   UNL     1      46.253   4.572  14.092  0.00  0.00    +0.000 C 
BRANCH   8   9
ATOM      9  N   UNL     1      47.342   4.792  15.034  0.00  0.00    +0.000 N 
ATOM     10  C   UNL     1      47.404   4.216  16.277  0.00  0.00    +0.000 C 
ATOM     11  O   UNL     1      46.553   3.438  16.696  0.00  0.00    +0.000 OA
ATOM     12  H   UNL     1      47.876   5.643  14.888  0.00  0.00    +0.000 HD
BRANCH  10  13
ATOM     13  C   UNL     1      48.599   4.527  17.071  0.00  0.00    +0.000 A 
ATOM     14  C   UNL     1      48.707   5.759  17.702  0.00  0.00    +0.000 A 
ATOM     15  S   UNL     1      50.153   5.952  18.584  0.00  0.00    +0.000 S 
ATOM     16  C   UNL     1      50.703   4.409  18.124  0.00  0.00    +0.000 A 
ATOM     17  N   UNL     1      51.925   3.957  18.514  0.00  0.00    +0.000 NA
ATOM     18  C   UNL     1      52.228   2.785  18.065  0.00  0.00    +0.000 A 
ATOM     19  N   UNL     1      51.412   2.017  17.274  0.00  0.00    +0.000 N 
ATOM     20  C   UNL     1      50.152   2.413  16.894  0.00  0.00    +0.000 A 
ATOM     21  O   UNL     1      49.416   1.672  16.254  0.00  0.00    +0.000 OA
ATOM     22  C   UNL     1      49.780   3.742  17.338  0.00  0.00    +0.000 A 
ATOM     23  H   UNL     1      51.699   1.098  16.973  0.00  0.00    +0.000 HD
ENDBRANCH  10  13
ENDBRANCH   8   9
ENDBRANCH   1   8
BRANCH   4  24
ATOM     24  C   UNL     1      44.967   9.606  11.360  0.00  0.00    +0.000 C 
BRANCH  24  25
ATOM     25  N   UNL     1      43.670  10.126  11.741  0.00  0.00    +0.000 N 
ATOM     26  C   UNL     1      42.715  10.413  10.787  0.00  0.00    +0.000 C 
ATOM     27  O   UNL     1      42.894  10.292   9.581  0.00  0.00    +0.000 OA
ATOM     28  H   UNL     1      43.395  10.015  12.707  0.00  0.00    +0.000 HD
BRANCH  26  29
ATOM     29  C   UNL     1      41.404  10.868  11.309  0.00  0.00    +0.000 A 
ATOM     30  C   UNL     1      41.250  12.071  12.003  0.00  0.00    +0.000 A 
ATOM     31  C   UNL     1      39.993  12.416  12.497  0.00  0.00    +0.000 A 
ATOM     32  C   UNL     1      38.940  11.545  12.267  0.00  0.00    +0.000 A 
ATOM     33 CL   UNL     1      37.375  11.884  12.882  0.00  0.00    +0.000 Cl
ATOM     34  N   UNL     1      39.044  10.390  11.577  0.00  0.00    +0.000 NA
ATOM     35  C   UNL     1      40.277  10.083  11.100  0.00  0.00    +0.000 A 
ENDBRANCH  26  29
ENDBRANCH  24  25
ENDBRANCH   4  24
TORSDOF 6
ENDMDL
MODEL 6
REMARK VINA RESULT:    -7.183      2.467      3.504
REMARK INTER + INTRA:         -10.801
REMARK INTER:                  -9.531
REMARK INTRA:                  -1.269
REMARK UNBOUND:                -1.098
REMARK  Name = 
REMARK  7 active torsions:
REMARK  status: ('A' for Active; 'I' for Inactive)
REMARK    1  A    between atoms: C_1  and  C_2
REMARK    2  A    between atoms: C_2  and  N_3
REMARK    3  A    between atoms: C_2  and  C_16
REMARK    4  A    between atoms: C_4  and  C_6
REMARK    5  A    between atoms: C_19  and  C_20
REMARK    6  A    between atoms: C_20  and  N_21
REMARK    7  A    between atoms: C_22  and  C_24
REMARK                            x       y       z     vdW  Elec       q    Type
REMARK                         _______ _______ _______ _____ _____    ______ ____
ROOT
ATOM      1  C   UNL     1      47.076   7.494  13.589  0.00  0.00    +0.000 A 
ATOM      2  C   UNL     1      45.878   7.717  12.898  0.00  0.00    +0.000 A 
ATOM      3  C   UNL     1      45.076   6.641  12.493  0.00  0.00    +0.000 A 
ATOM      4  C   UNL     1      45.449   5.319  12.774  0.00  0.00    +0.000 A 
ATOM      5  C   UNL     1      46.643   5.094  13.467  0.00  0.00    +0.000 A 
ATOM      6  C   UNL     1      47.441   6.167  13.876  0.00  0.00    +0.000 A 
ENDROOT
BRANCH   1   8
ATOM      7  C   UNL     1      47.800   9.828  13.014  0.00  0.00    +0.000 C 
ATOM      8  C   UNL     1      47.987   8.654  13.983  0.00  0.00    +0.000 C 
BRANCH   8   9
ATOM      9  N   UNL     1      47.709   9.019  15.366  0.00  0.00    +0.000 N 
ATOM     10  C   UNL     1      48.526   8.696  16.419  0.00  0.00    +0.000 C 
ATOM     11  O   UNL     1      49.584   8.089  16.283  0.00  0.00    +0.000 OA
ATOM     12  H   UNL     1      46.735   9.215  15.575  0.00  0.00    +0.000 HD
BRANCH  10  13
ATOM     13  C   UNL     1      48.099   9.182  17.737  0.00  0.00    +0.000 A 
ATOM     14  C   UNL     1      47.786   8.273  18.739  0.00  0.00    +0.000 A 
ATOM     15  S   UNL     1      47.315   9.007  20.204  0.00  0.00    +0.000 S 
ATOM     16  C   UNL     1      47.476  10.564  19.540  0.00  0.00    +0.000 A 
ATOM     17  N   UNL     1      47.177  11.671  20.270  0.00  0.00    +0.000 NA
ATOM     18  C   UNL     1      47.312  12.785  19.631  0.00  0.00    +0.000 A 
ATOM     19  N   UNL     1      47.736  12.893  18.332  0.00  0.00    +0.000 N 
ATOM     20  C   UNL     1      48.093  11.805  17.570  0.00  0.00    +0.000 A 
ATOM     21  O   UNL     1      48.545  11.940  16.439  0.00  0.00    +0.000 OA
ATOM     22  C   UNL     1      47.919  10.526  18.229  0.00  0.00    +0.000 A 
ATOM     23  H   UNL     1      47.842  13.796  17.895  0.00  0.00    +0.000 HD
ENDBRANCH  10  13
ENDBRANCH   8   9
ENDBRANCH   1   8
BRANCH   4  24
ATOM     24  C   UNL     1      44.606   4.156  12.312  0.00  0.00    +0.000 C 
BRANCH  24  25
ATOM     25  N   UNL     1      45.184   3.516  11.150  0.00  0.00    +0.000 N 
ATOM     26  C   UNL     1      44.750   3.830   9.879  0.00  0.00    +0.000 C 
ATOM     27  O   UNL     1      43.845   4.622   9.641  0.00  0.00    +0.000 OA
ATOM     28  H   UNL     1      46.074   3.052  11.274  0.00  0.00    +0.000 HD
BRANCH  26  29
ATOM     29  C   UNL     1      45.473   3.162   8.770  0.00  0.00    +0.000 A 
ATOM     30  C   UNL     1      45.983   3.865   7.676  0.00  0.00    +0.000 A 
ATOM     31  C   UNL     1      46.618   3.164   6.652  0.00  0.00    +0.000 A 
ATOM     32  C   UNL     1      46.723   1.787   6.771  0.00  0.00    +0.000 A 
ATOM     33 CL   UNL     1      47.455   0.856   5.531  0.00  0.00    +0.000 Cl
ATOM     34  N   UNL     1      46.270   1.077   7.826  0.00  0.00    +0.000 NA
ATOM     35  C   UNL     1      45.664   1.785   8.812  0.00  0.00    +0.000 A 
ENDBRANCH  26  29
ENDBRANCH  24  25
ENDBRANCH   4  24
TORSDOF 6
ENDMDL
MODEL 7
REMARK VINA RESULT:    -7.049      5.117      8.097
REMARK INTER + INTRA:         -10.620
REMARK INTER:                  -9.639
REMARK INTRA:                  -0.981
REMARK UNBOUND:                -1.098
REMARK  Name = 
REMARK  7 active torsions:
REMARK  status: ('A' for Active; 'I' for Inactive)
REMARK    1  A    between atoms: C_1  and  C_2
REMARK    2  A    between atoms: C_2  and  N_3
REMARK    3  A    between atoms: C_2  and  C_16
REMARK    4  A    between atoms: C_4  and  C_6
REMARK    5  A    between atoms: C_19  and  C_20
REMARK    6  A    between atoms: C_20  and  N_21
REMARK    7  A    between atoms: C_22  and  C_24
REMARK                            x       y       z     vdW  Elec       q    Type
REMARK                         _______ _______ _______ _____ _____    ______ ____
ROOT
ATOM      1  C   UNL     1      47.403   8.442  12.291  0.00  0.00    +0.000 A 
ATOM      2  C   UNL     1      47.938   9.710  12.031  0.00  0.00    +0.000 A 
ATOM      3  C   UNL     1      49.284   9.857  11.667  0.00  0.00    +0.000 A 
ATOM      4  C   UNL     1      50.124   8.740  11.548  0.00  0.00    +0.000 A 
ATOM      5  C   UNL     1      49.589   7.472  11.803  0.00  0.00    +0.000 A 
ATOM      6  C   UNL     1      48.246   7.325  12.162  0.00  0.00    +0.000 A 
ENDROOT
BRANCH   1   8
ATOM      7  C   UNL     1      45.137   9.518  12.374  0.00  0.00    +0.000 C 
ATOM      8  C   UNL     1      45.955   8.276  12.746  0.00  0.00    +0.000 C 
BRANCH   8   9
ATOM      9  N   UNL     1      45.418   7.054  12.163  0.00  0.00    +0.000 N 
ATOM     10  C   UNL     1      45.456   5.831  12.782  0.00  0.00    +0.000 C 
ATOM     11  O   UNL     1      45.927   5.665  13.904  0.00  0.00    +0.000 OA
ATOM     12  H   UNL     1      45.326   7.061  11.152  0.00  0.00    +0.000 HD
BRANCH  10  13
ATOM     13  C   UNL     1      44.831   4.721  12.053  0.00  0.00    +0.000 A 
ATOM     14  C   UNL     1      44.005   3.831  12.728  0.00  0.00    +0.000 A 
ATOM     15  S   UNL     1      43.360   2.607  11.731  0.00  0.00    +0.000 S 
ATOM     16  C   UNL     1      44.193   3.201  10.371  0.00  0.00    +0.000 A 
ATOM     17  N   UNL     1      44.108   2.570   9.169  0.00  0.00    +0.000 NA
ATOM     18  C   UNL     1      44.817   3.108   8.234  0.00  0.00    +0.000 A 
ATOM     19  N   UNL     1      45.590   4.231   8.387  0.00  0.00    +0.000 N 
ATOM     20  C   UNL     1      45.668   4.927   9.570  0.00  0.00    +0.000 A 
ATOM     21  O   UNL     1      46.303   5.972   9.654  0.00  0.00    +0.000 OA
ATOM     22  C   UNL     1      44.923   4.339  10.665  0.00  0.00    +0.000 A 
ATOM     23  H   UNL     1      46.104   4.615   7.610  0.00  0.00    +0.000 HD
ENDBRANCH  10  13
ENDBRANCH   8   9
ENDBRANCH   1   8
BRANCH   4  24
ATOM     24  C   UNL     1      51.580   8.894  11.188  0.00  0.00    +0.000 C 
BRANCH  24  25
ATOM     25  N   UNL     1      52.049   7.774  10.399  0.00  0.00    +0.000 N 
ATOM     26  C   UNL     1      52.599   7.970   9.150  0.00  0.00    +0.000 C 
ATOM     27  O   UNL     1      52.697   9.065   8.608  0.00  0.00    +0.000 OA
ATOM     28  H   UNL     1      52.212   6.903  10.887  0.00  0.00    +0.000 HD
BRANCH  26  29
ATOM     29  C   UNL     1      53.109   6.752   8.475  0.00  0.00    +0.000 A 
ATOM     30  C   UNL     1      54.149   5.982   9.003  0.00  0.00    +0.000 A 
ATOM     31  C   UNL     1      54.601   4.871   8.294  0.00  0.00    +0.000 A 
ATOM     32  C   UNL     1      53.987   4.571   7.088  0.00  0.00    +0.000 A 
ATOM     33 CL   UNL     1      54.519   3.244   6.142  0.00  0.00    +0.000 Cl
ATOM     34  N   UNL     1      52.962   5.273   6.561  0.00  0.00    +0.000 NA
ATOM     35  C   UNL     1      52.535   6.345   7.276  0.00  0.00    +0.000 A 
ENDBRANCH  26  29
ENDBRANCH  24  25
ENDBRANCH   4  24
TORSDOF 6
ENDMDL
MODEL 8
REMARK VINA RESULT:    -6.956      4.141      9.378
REMARK INTER + INTRA:         -10.494
REMARK INTER:                  -9.546
REMARK INTRA:                  -0.948
REMARK UNBOUND:                -1.098
REMARK  Name = 
REMARK  7 active torsions:
REMARK  status: ('A' for Active; 'I' for Inactive)
REMARK    1  A    between atoms: C_1  and  C_2
REMARK    2  A    between atoms: C_2  and  N_3
REMARK    3  A    between atoms: C_2  and  C_16
REMARK    4  A    between atoms: C_4  and  C_6
REMARK    5  A    between atoms: C_19  and  C_20
REMARK    6  A    between atoms: C_20  and  N_21
REMARK    7  A    between atoms: C_22  and  C_24
REMARK                            x       y       z     vdW  Elec       q    Type
REMARK                         _______ _______ _______ _____ _____    ______ ____
ROOT
ATOM      1  C   UNL     1      48.433   7.427  14.009  0.00  0.00    +0.000 A 
ATOM      2  C   UNL     1      49.515   8.244  14.359  0.00  0.00    +0.000 A 
ATOM      3  C   UNL     1      50.231   8.014  15.542  0.00  0.00    +0.000 A 
ATOM      4  C   UNL     1      49.887   6.958  16.398  0.00  0.00    +0.000 A 
ATOM      5  C   UNL     1      48.810   6.138  16.048  0.00  0.00    +0.000 A 
ATOM      6  C   UNL     1      48.098   6.364  14.866  0.00  0.00    +0.000 A 
ENDROOT
BRANCH   1   8
ATOM      7  C   UNL     1      48.529   8.091  11.590  0.00  0.00    +0.000 C 
ATOM      8  C   UNL     1      47.608   7.704  12.754  0.00  0.00    +0.000 C 
BRANCH   8   9
ATOM      9  N   UNL     1      46.794   6.533  12.460  0.00  0.00    +0.000 N 
ATOM     10  C   UNL     1      45.596   6.583  11.794  0.00  0.00    +0.000 C 
ATOM     11  O   UNL     1      45.116   7.627  11.361  0.00  0.00    +0.000 OA
ATOM     12  H   UNL     1      46.961   5.728  13.056  0.00  0.00    +0.000 HD
BRANCH  10  13
ATOM     13  C   UNL     1      44.936   5.293  11.558  0.00  0.00    +0.000 A 
ATOM     14  C   UNL     1      44.182   4.709  12.567  0.00  0.00    +0.000 A 
ATOM     15  S   UNL     1      43.483   3.219  12.123  0.00  0.00    +0.000 S 
ATOM     16  C   UNL     1      44.194   3.283  10.579  0.00  0.00    +0.000 A 
ATOM     17  N   UNL     1      44.027   2.269   9.688  0.00  0.00    +0.000 NA
ATOM     18  C   UNL     1      44.650   2.434   8.570  0.00  0.00    +0.000 A 
ATOM     19  N   UNL     1      45.412   3.529   8.253  0.00  0.00    +0.000 N 
ATOM     20  C   UNL     1      45.571   4.598   9.103  0.00  0.00    +0.000 A 
ATOM     21  O   UNL     1      46.192   5.598   8.762  0.00  0.00    +0.000 OA
ATOM     22  C   UNL     1      44.925   4.444  10.392  0.00  0.00    +0.000 A 
ATOM     23  H   UNL     1      45.856   3.608   7.352  0.00  0.00    +0.000 HD
ENDBRANCH  10  13
ENDBRANCH   8   9
ENDBRANCH   1   8
BRANCH   4  24
ATOM     24  C   UNL     1      50.634   6.725  17.688  0.00  0.00    +0.000 C 
BRANCH  24  25
ATOM     25  N   UNL     1      51.424   5.514  17.628  0.00  0.00    +0.000 N 
ATOM     26  C   UNL     1      50.938   4.327  18.135  0.00  0.00    +0.000 C 
ATOM     27  O   UNL     1      49.852   4.214  18.693  0.00  0.00    +0.000 OA
ATOM     28  H   UNL     1      52.199   5.500  16.979  0.00  0.00    +0.000 HD
BRANCH  26  29
ATOM     29  C   UNL     1      51.810   3.143  17.946  0.00  0.00    +0.000 A 
ATOM     30  C   UNL     1      53.172   3.157  18.259  0.00  0.00    +0.000 A 
ATOM     31  C   UNL     1      53.938   2.018  18.020  0.00  0.00    +0.000 A 
ATOM     32  C   UNL     1      53.305   0.906  17.484  0.00  0.00    +0.000 A 
ATOM     33 CL   UNL     1      54.193  -0.516  17.125  0.00  0.00    +0.000 Cl
ATOM     34  N   UNL     1      51.988   0.845  17.198  0.00  0.00    +0.000 NA
ATOM     35  C   UNL     1      51.264   1.965  17.449  0.00  0.00    +0.000 A 
ENDBRANCH  26  29
ENDBRANCH  24  25
ENDBRANCH   4  24
TORSDOF 6
ENDMDL
MODEL 9
REMARK VINA RESULT:    -6.396      5.501      9.063
REMARK INTER + INTRA:          -9.737
REMARK INTER:                  -9.158
REMARK INTRA:                  -0.579
REMARK UNBOUND:                -1.098
REMARK  Name = 
REMARK  7 active torsions:
REMARK  status: ('A' for Active; 'I' for Inactive)
REMARK    1  A    between atoms: C_1  and  C_2
REMARK    2  A    between atoms: C_2  and  N_3
REMARK    3  A    between atoms: C_2  and  C_16
REMARK    4  A    between atoms: C_4  and  C_6
REMARK    5  A    between atoms: C_19  and  C_20
REMARK    6  A    between atoms: C_20  and  N_21
REMARK    7  A    between atoms: C_22  and  C_24
REMARK                            x       y       z     vdW  Elec       q    Type
REMARK                         _______ _______ _______ _____ _____    ______ ____
ROOT
ATOM      1  C   UNL     1      48.354   7.260  13.670  0.00  0.00    +0.000 A 
ATOM      2  C   UNL     1      47.507   6.175  13.408  0.00  0.00    +0.000 A 
ATOM      3  C   UNL     1      47.288   5.188  14.379  0.00  0.00    +0.000 A 
ATOM      4  C   UNL     1      47.905   5.266  15.637  0.00  0.00    +0.000 A 
ATOM      5  C   UNL     1      48.747   6.351  15.902  0.00  0.00    +0.000 A 
ATOM      6  C   UNL     1      48.963   7.337  14.935  0.00  0.00    +0.000 A 
ENDROOT
BRANCH   1   8
ATOM      7  C   UNL     1      49.295   7.650  11.376  0.00  0.00    +0.000 C 
ATOM      8  C   UNL     1      48.647   8.308  12.599  0.00  0.00    +0.000 C 
BRANCH   8   9
ATOM      9  N   UNL     1      47.409   9.003  12.273  0.00  0.00    +0.000 N 
ATOM     10  C   UNL     1      47.314  10.361  12.115  0.00  0.00    +0.000 C 
ATOM     11  O   UNL     1      48.279  11.114  12.211  0.00  0.00    +0.000 OA
ATOM     12  H   UNL     1      46.557   8.501  12.503  0.00  0.00    +0.000 HD
BRANCH  10  13
ATOM     13  C   UNL     1      45.988  10.877  11.751  0.00  0.00    +0.000 A 
ATOM     14  C   UNL     1      45.765  12.247  11.723  0.00  0.00    +0.000 A 
ATOM     15  S   UNL     1      44.175  12.671  11.276  0.00  0.00    +0.000 S 
ATOM     16  C   UNL     1      43.719  11.037  11.140  0.00  0.00    +0.000 A 
ATOM     17  N   UNL     1      42.443  10.690  10.822  0.00  0.00    +0.000 NA
ATOM     18  C   UNL     1      42.229   9.418  10.787  0.00  0.00    +0.000 A 
ATOM     19  N   UNL     1      43.180   8.459  11.025  0.00  0.00    +0.000 N 
ATOM     20  C   UNL     1      44.492   8.762  11.304  0.00  0.00    +0.000 A 
ATOM     21  O   UNL     1      45.336   7.883  11.433  0.00  0.00    +0.000 OA
ATOM     22  C   UNL     1      44.775  10.181  11.396  0.00  0.00    +0.000 A 
ATOM     23  H   UNL     1      42.954   7.479  10.961  0.00  0.00    +0.000 HD
ENDBRANCH  10  13
ENDBRANCH   8   9
ENDBRANCH   1   8
BRANCH   4  24
ATOM     24  C   UNL     1      47.698   4.190  16.674  0.00  0.00    +0.000 C 
BRANCH  24  25
ATOM     25  N   UNL     1      48.954   3.782  17.266  0.00  0.00    +0.000 N 
ATOM     26  C   UNL     1      49.619   2.662  16.813  0.00  0.00    +0.000 C 
ATOM     27  O   UNL     1      49.196   1.926  15.929  0.00  0.00    +0.000 OA
ATOM     28  H   UNL     1      49.451   4.472  17.814  0.00  0.00    +0.000 HD
BRANCH  26  29
ATOM     29  C   UNL     1      50.930   2.392  17.451  0.00  0.00    +0.000 A 
ATOM     30  C   UNL     1      51.737   3.410  17.967  0.00  0.00    +0.000 A 
ATOM     31  C   UNL     1      52.974   3.085  18.518  0.00  0.00    +0.000 A 
ATOM     32  C   UNL     1      53.350   1.750  18.538  0.00  0.00    +0.000 A 
ATOM     33 CL   UNL     1      54.876   1.281  19.163  0.00  0.00    +0.000 Cl
ATOM     34  N   UNL     1      52.586   0.738  18.077  0.00  0.00    +0.000 NA
ATOM     35  C   UNL     1      51.382   1.082  17.553  0.00  0.00    +0.000 A 
ENDBRANCH  26  29
ENDBRANCH  24  25
ENDBRANCH   4  24
TORSDOF 6
ENDMDL
