MODEL 1
REMARK VINA RESULT:    -8.071      0.000      0.000
REMARK INTER + INTRA:         -12.116
REMARK INTER:                 -10.666
REMARK INTRA:                  -1.451
REMARK UNBOUND:                -1.451
REMARK  Name = 
REMARK  7 active torsions:
REMARK  status: ('A' for Active; 'I' for Inactive)
REMARK    1  A    between atoms: C_1  and  N_2
REMARK    2  A    between atoms: N_2  and  C_3
REMARK    3  A    between atoms: C_3  and  C_4
REMARK    4  A    between atoms: C_7  and  C_8
REMARK    5  A    between atoms: C_8  and  O_9
REMARK    6  A    between atoms: C_8  and  C_10
REMARK    7  A    between atoms: C_18  and  C_20
REMARK                            x       y       z     vdW  Elec       q    Type
REMARK                         _______ _______ _______ _____ _____    ______ ____
ROOT
ATOM      1  C   UNL     1      47.125   6.248  12.300  0.00  0.00    +0.000 C 
ENDROOT
BRANCH   1   2
ATOM      2  C   UNL     1      47.440   5.834  13.714  0.00  0.00    +0.000 A 
ATOM      3  C   UNL     1      48.307   6.600  14.506  0.00  0.00    +0.000 A 
ATOM      4  C   UNL     1      48.630   6.190  15.803  0.00  0.00    +0.000 A 
ATOM      5  C   UNL     1      48.094   5.004  16.328  0.00  0.00    +0.000 A 
ATOM      6  C   UNL     1      47.219   4.248  15.531  0.00  0.00    +0.000 A 
ATOM      7  C   UNL     1      46.893   4.659  14.239  0.00  0.00    +0.000 A 
BRANCH   5   8
ATOM      8  C   UNL     1      48.475   4.546  17.724  0.00  0.00    +0.000 C 
BRANCH   8   9
ATOM      9  C   UNL     1      49.780   3.763  17.770  0.00  0.00    +0.000 A 
ATOM     10  C   UNL     1      50.957   4.384  18.229  0.00  0.00    +0.000 A 
ATOM     11  C   UNL     1      52.169   3.693  18.249  0.00  0.00    +0.000 A 
ATOM     12  C   UNL     1      52.224   2.368  17.821  0.00  0.00    +0.000 A 
ATOM     13  C   UNL     1      51.071   1.735  17.378  0.00  0.00    +0.000 A 
ATOM     14  C   UNL     1      49.857   2.426  17.351  0.00  0.00    +0.000 A 
ENDBRANCH   8   9
BRANCH   8  15
ATOM     15  O   UNL     1      47.408   3.777  18.290  0.00  0.00    +0.000 OA
ATOM     16  H   UNL     1      46.650   4.370  18.404  0.00  0.00    +0.000 HD
ENDBRANCH   8  15
ENDBRANCH   5   8
ENDBRANCH   1   2
BRANCH   1  18
ATOM     17  C   UNL     1      46.123   8.579  12.189  0.00  0.00    +0.000 C 
ATOM     18  N   UNL     1      45.970   7.131  12.099  0.00  0.00    +0.000 N 
ATOM     19  C   UNL     1      44.715   6.685  11.643  0.00  0.00    +0.000 C 
ATOM     20  O   UNL     1      43.819   7.483  11.374  0.00  0.00    +0.000 OA
BRANCH  19  21
ATOM     21  C   UNL     1      44.453   5.245  11.521  0.00  0.00    +0.000 A 
ATOM     22  C   UNL     1      43.712   4.501  12.424  0.00  0.00    +0.000 A 
ATOM     23  S   UNL     1      43.520   2.866  11.972  0.00  0.00    +0.000 S 
ATOM     24  C   UNL     1      44.295   3.135  10.482  0.00  0.00    +0.000 A 
ATOM     25  N   UNL     1      44.377   2.149   9.549  0.00  0.00    +0.000 NA
ATOM     26  C   UNL     1      44.926   2.518   8.440  0.00  0.00    +0.000 A 
ATOM     27  N   UNL     1      45.433   3.769   8.195  0.00  0.00    +0.000 N 
ATOM     28  C   UNL     1      45.498   4.754   9.157  0.00  0.00    +0.000 A 
ATOM     29  O   UNL     1      46.171   5.761   8.983  0.00  0.00    +0.000 OA
ATOM     30  C   UNL     1      44.780   4.425  10.377  0.00  0.00    +0.000 A 
ATOM     31  H   UNL     1      45.911   3.970   7.329  0.00  0.00    +0.000 HD
ENDBRANCH  19  21
ENDBRANCH   1  18
TORSDOF 6
ENDMDL
MODEL 2
REMARK VINA RESULT:    -7.696      3.714      8.284
REMARK INTER + INTRA:         -11.622
REMARK INTER:                 -10.267
REMARK INTRA:                  -1.355
REMARK UNBOUND:                -1.451
REMARK  Name = 
REMARK  7 active torsions:
REMARK  status: ('A' for Active; 'I' for Inactive)
REMARK    1  A    between atoms: C_1  and  N_2
REMARK    2  A    between atoms: N_2  and  C_3
REMARK    3  A    between atoms: C_3  and  C_4
REMARK    4  A    between atoms: C_7  and  C_8
REMARK    5  A    between atoms: C_8  and  O_9
REMARK    6  A    between atoms: C_8  and  C_10
REMARK    7  A    between atoms: C_18  and  C_20
REMARK                            x       y       z     vdW  Elec       q    Type
REMARK                         _______ _______ _______ _____ _____    ______ ____
ROOT
ATOM      1  C   UNL     1      47.651   7.840  13.934  0.00  0.00    +0.000 C 
ENDROOT
BRANCH   1   2
ATOM      2  C   UNL     1      46.735   6.989  13.094  0.00  0.00    +0.000 A 
ATOM      3  C   UNL     1      46.648   5.607  13.309  0.00  0.00    +0.000 A 
ATOM      4  C   UNL     1      45.829   4.814  12.500  0.00  0.00    +0.000 A 
ATOM      5  C   UNL     1      45.087   5.391  11.458  0.00  0.00    +0.000 A 
ATOM      6  C   UNL     1      45.173   6.778  11.255  0.00  0.00    +0.000 A 
ATOM      7  C   UNL     1      45.986   7.569  12.065  0.00  0.00    +0.000 A 
BRANCH   5   8
ATOM      8  C   UNL     1      44.226   4.521  10.560  0.00  0.00    +0.000 C 
BRANCH   8   9
ATOM      9  C   UNL     1      45.016   3.801   9.476  0.00  0.00    +0.000 A 
ATOM     10  C   UNL     1      45.072   2.395   9.463  0.00  0.00    +0.000 A 
ATOM     11  C   UNL     1      45.816   1.717   8.497  0.00  0.00    +0.000 A 
ATOM     12  C   UNL     1      46.507   2.433   7.521  0.00  0.00    +0.000 A 
ATOM     13  C   UNL     1      46.452   3.819   7.509  0.00  0.00    +0.000 A 
ATOM     14  C   UNL     1      45.712   4.500   8.479  0.00  0.00    +0.000 A 
ENDBRANCH   8   9
BRANCH   8  15
ATOM     15  O   UNL     1      43.180   5.308   9.980  0.00  0.00    +0.000 OA
ATOM     16  H   UNL     1      43.102   6.121  10.505  0.00  0.00    +0.000 HD
ENDBRANCH   8  15
ENDBRANCH   5   8
ENDBRANCH   1   2
BRANCH   1  18
ATOM     17  C   UNL     1      49.723   7.278  12.577  0.00  0.00    +0.000 C 
ATOM     18  N   UNL     1      49.089   7.557  13.861  0.00  0.00    +0.000 N 
ATOM     19  C   UNL     1      49.971   7.703  14.949  0.00  0.00    +0.000 C 
ATOM     20  O   UNL     1      51.185   7.572  14.802  0.00  0.00    +0.000 OA
BRANCH  19  21
ATOM     21  C   UNL     1      49.437   7.981  16.289  0.00  0.00    +0.000 A 
ATOM     22  C   UNL     1      49.424   9.231  16.887  0.00  0.00    +0.000 A 
ATOM     23  S   UNL     1      48.669   9.250  18.418  0.00  0.00    +0.000 S 
ATOM     24  C   UNL     1      48.206   7.621  18.267  0.00  0.00    +0.000 A 
ATOM     25  N   UNL     1      47.424   7.027  19.206  0.00  0.00    +0.000 NA
ATOM     26  C   UNL     1      47.090   5.812  18.923  0.00  0.00    +0.000 A 
ATOM     27  N   UNL     1      47.499   5.127  17.807  0.00  0.00    +0.000 N 
ATOM     28  C   UNL     1      48.404   5.640  16.901  0.00  0.00    +0.000 A 
ATOM     29  O   UNL     1      48.931   4.922  16.062  0.00  0.00    +0.000 OA
ATOM     30  C   UNL     1      48.706   7.046  17.112  0.00  0.00    +0.000 A 
ATOM     31  H   UNL     1      47.257   4.156  17.681  0.00  0.00    +0.000 HD
ENDBRANCH  19  21
ENDBRANCH   1  18
TORSDOF 6
ENDMDL
MODEL 3
REMARK VINA RESULT:    -7.454      1.330      2.371
REMARK INTER + INTRA:         -11.301
REMARK INTER:                  -9.886
REMARK INTRA:                  -1.415
REMARK UNBOUND:                -1.451
REMARK  Name = 
REMARK  7 active torsions:
REMARK  status: ('A' for Active; 'I' for Inactive)
REMARK    1  A    between atoms: C_1  and  N_2
REMARK    2  A    between atoms: N_2  and  C_3
REMARK    3  A    between atoms: C_3  and  C_4
REMARK    4  A    between atoms: C_7  and  C_8
REMARK    5  A    between atoms: C_8  and  O_9
REMARK    6  A    between atoms: C_8  and  C_10
REMARK    7  A    between atoms: C_18  and  C_20
REMARK                            x       y       z     vdW  Elec       q    Type
REMARK                         _______ _______ _______ _____ _____    ______ ____
ROOT
ATOM      1  C   UNL     1      47.302   6.567  12.376  0.00  0.00    +0.000 C 
ENDROOT
BRANCH   1   2
ATOM      2  C   UNL     1      47.639   5.980  13.723  0.00  0.00    +0.000 A 
ATOM      3  C   UNL     1      47.016   4.806  14.166  0.00  0.00    +0.000 A 
ATOM      4  C   UNL     1      47.301   4.287  15.433  0.00  0.00    +0.000 A 
ATOM      5  C   UNL     1      48.211   4.939  16.279  0.00  0.00    +0.000 A 
ATOM      6  C   UNL     1      48.839   6.110  15.822  0.00  0.00    +0.000 A 
ATOM      7  C   UNL     1      48.558   6.624  14.557  0.00  0.00    +0.000 A 
BRANCH   5   8
ATOM      8  C   UNL     1      48.491   4.391  17.667  0.00  0.00    +0.000 C 
BRANCH   8   9
ATOM      9  C   UNL     1      49.817   3.649  17.770  0.00  0.00    +0.000 A 
ATOM     10  C   UNL     1      49.932   2.342  17.262  0.00  0.00    +0.000 A 
ATOM     11  C   UNL     1      51.129   1.633  17.374  0.00  0.00    +0.000 A 
ATOM     12  C   UNL     1      52.234   2.224  17.985  0.00  0.00    +0.000 A 
ATOM     13  C   UNL     1      52.143   3.518  18.479  0.00  0.00    +0.000 A 
ATOM     14  C   UNL     1      50.944   4.227  18.374  0.00  0.00    +0.000 A 
ENDBRANCH   8   9
BRANCH   8  15
ATOM     15  O   UNL     1      47.411   3.549  18.083  0.00  0.00    +0.000 OA
ATOM     16  H   UNL     1      46.657   3.734  17.501  0.00  0.00    +0.000 HD
ENDBRANCH   8  15
ENDBRANCH   5   8
ENDBRANCH   1   2
BRANCH   1  18
ATOM     17  C   UNL     1      46.219   8.784  12.977  0.00  0.00    +0.000 C 
ATOM     18  N   UNL     1      46.161   7.487  12.311  0.00  0.00    +0.000 N 
ATOM     19  C   UNL     1      45.039   7.284  11.485  0.00  0.00    +0.000 C 
ATOM     20  O   UNL     1      44.170   8.146  11.375  0.00  0.00    +0.000 OA
BRANCH  19  21
ATOM     21  C   UNL     1      44.880   6.010  10.771  0.00  0.00    +0.000 A 
ATOM     22  C   UNL     1      45.456   5.718   9.545  0.00  0.00    +0.000 A 
ATOM     23  S   UNL     1      45.150   4.129   9.004  0.00  0.00    +0.000 S 
ATOM     24  C   UNL     1      44.362   3.732  10.459  0.00  0.00    +0.000 A 
ATOM     25  N   UNL     1      43.934   2.464  10.698  0.00  0.00    +0.000 NA
ATOM     26  C   UNL     1      43.422   2.294  11.871  0.00  0.00    +0.000 A 
ATOM     27  N   UNL     1      43.264   3.283  12.808  0.00  0.00    +0.000 N 
ATOM     28  C   UNL     1      43.552   4.608  12.557  0.00  0.00    +0.000 A 
ATOM     29  O   UNL     1      43.174   5.490  13.317  0.00  0.00    +0.000 OA
ATOM     30  C   UNL     1      44.247   4.824  11.299  0.00  0.00    +0.000 A 
ATOM     31  H   UNL     1      42.792   3.095  13.681  0.00  0.00    +0.000 HD
ENDBRANCH  19  21
ENDBRANCH   1  18
TORSDOF 6
ENDMDL
MODEL 4
REMARK VINA RESULT:    -7.427      3.514      8.391
REMARK INTER + INTRA:         -11.265
REMARK INTER:                  -9.762
REMARK INTRA:                  -1.504
REMARK UNBOUND:                -1.451
REMARK  Name = 
REMARK  7 active torsions:
REMARK  status: ('A' for Active; 'I' for Inactive)
REMARK    1  A    between atoms: C_1  and  N_2
REMARK    2  A    between atoms: N_2  and  C_3
REMARK    3  A    between atoms: C_3  and  C_4
REMARK    4  A    between atoms: C_7  and  C_8
REMARK    5  A    between atoms: C_8  and  O_9
REMARK    6  A    between atoms: C_8  and  C_10
REMARK    7  A    between atoms: C_18  and  C_20
REMARK                            x       y       z     vdW  Elec       q    Type
REMARK                         _______ _______ _______ _____ _____    ______ ____
ROOT
ATOM      1  C   UNL     1      47.689   7.845  14.224  0.00  0.00    +0.000 C 
ENDROOT
BRANCH   1   2
ATOM      2  C   UNL     1      46.832   7.027  13.292  0.00  0.00    +0.000 A 
ATOM      3  C   UNL     1      45.923   7.650  12.426  0.00  0.00    +0.000 A 
ATOM      4  C   UNL     1      45.099   6.886  11.594  0.00  0.00    +0.000 A 
ATOM      5  C   UNL     1      45.170   5.485  11.617  0.00  0.00    +0.000 A 
ATOM      6  C   UNL     1      46.090   4.869  12.481  0.00  0.00    +0.000 A 
ATOM      7  C   UNL     1      46.914   5.631  13.308  0.00  0.00    +0.000 A 
BRANCH   5   8
ATOM      8  C   UNL     1      44.249   4.659  10.736  0.00  0.00    +0.000 C 
BRANCH   8   9
ATOM      9  C   UNL     1      44.984   3.891   9.646  0.00  0.00    +0.000 A 
ATOM     10  C   UNL     1      45.667   4.588   8.633  0.00  0.00    +0.000 A 
ATOM     11  C   UNL     1      46.320   3.903   7.607  0.00  0.00    +0.000 A 
ATOM     12  C   UNL     1      46.310   2.509   7.583  0.00  0.00    +0.000 A 
ATOM     13  C   UNL     1      45.653   1.804   8.582  0.00  0.00    +0.000 A 
ATOM     14  C   UNL     1      44.993   2.488   9.607  0.00  0.00    +0.000 A 
ENDBRANCH   8   9
BRANCH   8  15
ATOM     15  O   UNL     1      43.241   5.500  10.166  0.00  0.00    +0.000 OA
ATOM     16  H   UNL     1      43.465   5.632   9.231  0.00  0.00    +0.000 HD
ENDBRANCH   8  15
ENDBRANCH   5   8
ENDBRANCH   1   2
BRANCH   1  18
ATOM     17  C   UNL     1      50.046   7.971  13.287  0.00  0.00    +0.000 C 
ATOM     18  N   UNL     1      49.113   7.499  14.305  0.00  0.00    +0.000 N 
ATOM     19  C   UNL     1      49.702   6.868  15.417  0.00  0.00    +0.000 C 
ATOM     20  O   UNL     1      50.920   6.714  15.485  0.00  0.00    +0.000 OA
BRANCH  19  21
ATOM     21  C   UNL     1      48.852   6.352  16.497  0.00  0.00    +0.000 A 
ATOM     22  C   UNL     1      48.398   5.045  16.585  0.00  0.00    +0.000 A 
ATOM     23  S   UNL     1      47.490   4.728  17.995  0.00  0.00    +0.000 S 
ATOM     24  C   UNL     1      47.798   6.285  18.605  0.00  0.00    +0.000 A 
ATOM     25  N   UNL     1      47.384   6.643  19.850  0.00  0.00    +0.000 NA
ATOM     26  C   UNL     1      47.752   7.827  20.207  0.00  0.00    +0.000 A 
ATOM     27  N   UNL     1      48.462   8.699  19.420  0.00  0.00    +0.000 N 
ATOM     28  C   UNL     1      48.780   8.433  18.104  0.00  0.00    +0.000 A 
ATOM     29  O   UNL     1      49.190   9.317  17.365  0.00  0.00    +0.000 OA
ATOM     30  C   UNL     1      48.497   7.065  17.702  0.00  0.00    +0.000 A 
ATOM     31  H   UNL     1      48.657   9.636  19.737  0.00  0.00    +0.000 HD
ENDBRANCH  19  21
ENDBRANCH   1  18
TORSDOF 6
ENDMDL
MODEL 5
REMARK VINA RESULT:    -7.269      3.170      8.076
REMARK INTER + INTRA:         -11.058
REMARK INTER:                  -9.764
REMARK INTRA:                  -1.294
REMARK UNBOUND:                -1.451
REMARK  Name = 
REMARK  7 active torsions:
REMARK  status: ('A' for Active; 'I' for Inactive)
REMARK    1  A    between atoms: C_1  and  N_2
REMARK    2  A    between atoms: N_2  and  C_3
REMARK    3  A    between atoms: C_3  and  C_4
REMARK    4  A    between atoms: C_7  and  C_8
REMARK    5  A    between atoms: C_8  and  O_9
REMARK    6  A    between atoms: C_8  and  C_10
REMARK    7  A    between atoms: C_18  and  C_20
REMARK                            x       y       z     vdW  Elec       q    Type
REMARK                         _______ _______ _______ _____ _____    ______ ____
ROOT
ATOM      1  C   UNL     1      48.939   6.598  14.806  0.00  0.00    +0.000 C 
ENDROOT
BRANCH   1   2
ATOM      2  C   UNL     1      47.746   6.292  13.937  0.00  0.00    +0.000 A 
ATOM      3  C   UNL     1      47.089   5.059  14.035  0.00  0.00    +0.000 A 
ATOM      4  C   UNL     1      46.009   4.762  13.198  0.00  0.00    +0.000 A 
ATOM      5  C   UNL     1      45.572   5.695  12.246  0.00  0.00    +0.000 A 
ATOM      6  C   UNL     1      46.230   6.933  12.161  0.00  0.00    +0.000 A 
ATOM      7  C   UNL     1      47.304   7.230  12.998  0.00  0.00    +0.000 A 
BRANCH   5   8
ATOM      8  C   UNL     1      44.421   5.355  11.316  0.00  0.00    +0.000 C 
BRANCH   8   9
ATOM      9  C   UNL     1      44.822   4.444  10.164  0.00  0.00    +0.000 A 
ATOM     10  C   UNL     1      44.427   3.094  10.164  0.00  0.00    +0.000 A 
ATOM     11  C   UNL     1      44.810   2.235   9.133  0.00  0.00    +0.000 A 
ATOM     12  C   UNL     1      45.586   2.715   8.079  0.00  0.00    +0.000 A 
ATOM     13  C   UNL     1      45.972   4.048   8.054  0.00  0.00    +0.000 A 
ATOM     14  C   UNL     1      45.595   4.908   9.088  0.00  0.00    +0.000 A 
ENDBRANCH   8   9
BRANCH   8  15
ATOM     15  O   UNL     1      43.826   6.560  10.820  0.00  0.00    +0.000 OA
ATOM     16  H   UNL     1      43.025   6.725  11.342  0.00  0.00    +0.000 HD
ENDBRANCH   8  15
ENDBRANCH   5   8
ENDBRANCH   1   2
BRANCH   1  18
ATOM     17  C   UNL     1      48.626   8.829  15.980  0.00  0.00    +0.000 C 
ATOM     18  N   UNL     1      48.699   7.372  16.030  0.00  0.00    +0.000 N 
ATOM     19  C   UNL     1      48.352   6.794  17.265  0.00  0.00    +0.000 C 
ATOM     20  O   UNL     1      48.041   7.493  18.227  0.00  0.00    +0.000 OA
BRANCH  19  21
ATOM     21  C   UNL     1      48.396   5.334  17.425  0.00  0.00    +0.000 A 
ATOM     22  C   UNL     1      47.292   4.501  17.351  0.00  0.00    +0.000 A 
ATOM     23  S   UNL     1      47.672   2.843  17.503  0.00  0.00    +0.000 S 
ATOM     24  C   UNL     1      49.340   3.176  17.526  0.00  0.00    +0.000 A 
ATOM     25  N   UNL     1      50.253   2.169  17.537  0.00  0.00    +0.000 NA
ATOM     26  C   UNL     1      51.479   2.569  17.478  0.00  0.00    +0.000 A 
ATOM     27  N   UNL     1      51.874   3.882  17.448  0.00  0.00    +0.000 N 
ATOM     28  C   UNL     1      50.992   4.934  17.577  0.00  0.00    +0.000 A 
ATOM     29  O   UNL     1      51.394   6.070  17.793  0.00  0.00    +0.000 OA
ATOM     30  C   UNL     1      49.596   4.534  17.518  0.00  0.00    +0.000 A 
ATOM     31  H   UNL     1      52.853   4.126  17.472  0.00  0.00    +0.000 HD
ENDBRANCH  19  21
ENDBRANCH   1  18
TORSDOF 6
ENDMDL
MODEL 6
REMARK VINA RESULT:    -6.904      3.485      8.215
REMARK INTER + INTRA:         -10.574
REMARK INTER:                  -9.419
REMARK INTRA:                  -1.156
REMARK UNBOUND:                -1.451
REMARK  Name = 
REMARK  7 active torsions:
REMARK  status: ('A' for Active; 'I' for Inactive)
REMARK    1  A    between atoms: C_1  and  N_2
REMARK    2  A    between atoms: N_2  and  C_3
REMARK    3  A    between atoms: C_3  and  C_4
REMARK    4  A    between atoms: C_7  and  C_8
REMARK    5  A    between atoms: C_8  and  O_9
REMARK    6  A    between atoms: C_8  and  C_10
REMARK    7  A    between atoms: C_18  and  C_20
REMARK                            x       y       z     vdW  Elec       q    Type
REMARK                         _______ _______ _______ _____ _____    ______ ____
ROOT
ATOM      1  C   UNL     1      49.153   7.136  14.175  0.00  0.00    +0.000 C 
ENDROOT
BRANCH   1   2
ATOM      2  C   UNL     1      48.024   6.584  13.344  0.00  0.00    +0.000 A 
ATOM      3  C   UNL     1      47.661   7.195  12.136  0.00  0.00    +0.000 A 
ATOM      4  C   UNL     1      46.586   6.705  11.389  0.00  0.00    +0.000 A 
ATOM      5  C   UNL     1      45.854   5.596  11.841  0.00  0.00    +0.000 A 
ATOM      6  C   UNL     1      46.231   4.984  13.047  0.00  0.00    +0.000 A 
ATOM      7  C   UNL     1      47.305   5.471  13.790  0.00  0.00    +0.000 A 
BRANCH   5   8
ATOM      8  C   UNL     1      44.666   5.089  11.043  0.00  0.00    +0.000 C 
BRANCH   8   9
ATOM      9  C   UNL     1      45.057   4.175   9.890  0.00  0.00    +0.000 A 
ATOM     10  C   UNL     1      44.846   2.787   9.990  0.00  0.00    +0.000 A 
ATOM     11  C   UNL     1      45.227   1.929   8.957  0.00  0.00    +0.000 A 
ATOM     12  C   UNL     1      45.812   2.445   7.802  0.00  0.00    +0.000 A 
ATOM     13  C   UNL     1      46.014   3.813   7.679  0.00  0.00    +0.000 A 
ATOM     14  C   UNL     1      45.640   4.673   8.715  0.00  0.00    +0.000 A 
ENDBRANCH   8   9
BRANCH   8  15
ATOM     15  O   UNL     1      43.893   6.196  10.566  0.00  0.00    +0.000 OA
ATOM     16  H   UNL     1      43.431   5.906   9.765  0.00  0.00    +0.000 HD
ENDBRANCH   8  15
ENDBRANCH   5   8
ENDBRANCH   1   2
BRANCH   1  18
ATOM     17  C   UNL     1      47.774   8.945  15.306  0.00  0.00    +0.000 C 
ATOM     18  N   UNL     1      48.793   7.903  15.374  0.00  0.00    +0.000 N 
ATOM     19  C   UNL     1      49.248   7.588  16.669  0.00  0.00    +0.000 C 
ATOM     20  O   UNL     1      48.818   8.187  17.653  0.00  0.00    +0.000 OA
BRANCH  19  21
ATOM     21  C   UNL     1      50.278   6.556  16.849  0.00  0.00    +0.000 A 
ATOM     22  C   UNL     1      51.635   6.811  16.955  0.00  0.00    +0.000 A 
ATOM     23  S   UNL     1      52.575   5.413  17.234  0.00  0.00    +0.000 S 
ATOM     24  C   UNL     1      51.184   4.443  17.368  0.00  0.00    +0.000 A 
ATOM     25  N   UNL     1      51.277   3.131  17.711  0.00  0.00    +0.000 NA
ATOM     26  C   UNL     1      50.138   2.540  17.848  0.00  0.00    +0.000 A 
ATOM     27  N   UNL     1      48.918   3.131  17.637  0.00  0.00    +0.000 N 
ATOM     28  C   UNL     1      48.780   4.415  17.153  0.00  0.00    +0.000 A 
ATOM     29  O   UNL     1      47.700   4.822  16.745  0.00  0.00    +0.000 OA
ATOM     30  C   UNL     1      50.029   5.157  17.106  0.00  0.00    +0.000 A 
ATOM     31  H   UNL     1      48.067   2.591  17.695  0.00  0.00    +0.000 HD
ENDBRANCH  19  21
ENDBRANCH   1  18
TORSDOF 6
ENDMDL
MODEL 7
REMARK VINA RESULT:    -6.665      3.672      5.369
REMARK INTER + INTRA:         -10.259
REMARK INTER:                  -9.085
REMARK INTRA:                  -1.174
REMARK UNBOUND:                -1.451
REMARK  Name = 
REMARK  7 active torsions:
REMARK  status: ('A' for Active; 'I' for Inactive)
REMARK    1  A    between atoms: C_1  and  N_2
REMARK    2  A    between atoms: N_2  and  C_3
REMARK    3  A    between atoms: C_3  and  C_4
REMARK    4  A    between atoms: C_7  and  C_8
REMARK    5  A    between atoms: C_8  and  O_9
REMARK    6  A    between atoms: C_8  and  C_10
REMARK    7  A    between atoms: C_18  and  C_20
REMARK                            x       y       z     vdW  Elec       q    Type
REMARK                         _______ _______ _______ _____ _____    ______ ____
ROOT
ATOM      1  C   UNL     1      46.404   6.308  12.916  0.00  0.00    +0.000 C 
ENDROOT
BRANCH   1   2
ATOM      2  C   UNL     1      47.768   6.926  12.747  0.00  0.00    +0.000 A 
ATOM      3  C   UNL     1      48.201   7.367  11.490  0.00  0.00    +0.000 A 
ATOM      4  C   UNL     1      49.483   7.902  11.329  0.00  0.00    +0.000 A 
ATOM      5  C   UNL     1      50.354   8.000  12.425  0.00  0.00    +0.000 A 
ATOM      6  C   UNL     1      49.908   7.564  13.683  0.00  0.00    +0.000 A 
ATOM      7  C   UNL     1      48.629   7.035  13.844  0.00  0.00    +0.000 A 
BRANCH   5   8
ATOM      8  C   UNL     1      51.758   8.549  12.238  0.00  0.00    +0.000 C 
BRANCH   8   9
ATOM      9  C   UNL     1      52.279   8.407  10.815  0.00  0.00    +0.000 A 
ATOM     10  C   UNL     1      52.456   9.550  10.014  0.00  0.00    +0.000 A 
ATOM     11  C   UNL     1      52.904   9.439   8.697  0.00  0.00    +0.000 A 
ATOM     12  C   UNL     1      53.193   8.184   8.163  0.00  0.00    +0.000 A 
ATOM     13  C   UNL     1      53.039   7.047   8.943  0.00  0.00    +0.000 A 
ATOM     14  C   UNL     1      52.585   7.155  10.260  0.00  0.00    +0.000 A 
ENDBRANCH   8   9
BRANCH   8  15
ATOM     15  O   UNL     1      52.650   7.922  13.166  0.00  0.00    +0.000 OA
ATOM     16  H   UNL     1      53.118   7.218  12.690  0.00  0.00    +0.000 HD
ENDBRANCH   8  15
ENDBRANCH   5   8
ENDBRANCH   1   2
BRANCH   1  18
ATOM     17  C   UNL     1      45.225   8.527  12.546  0.00  0.00    +0.000 C 
ATOM     18  N   UNL     1      45.253   7.073  12.423  0.00  0.00    +0.000 N 
ATOM     19  C   UNL     1      44.210   6.513  11.661  0.00  0.00    +0.000 C 
ATOM     20  O   UNL     1      43.334   7.222  11.169  0.00  0.00    +0.000 OA
BRANCH  19  21
ATOM     21  C   UNL     1      44.141   5.057  11.479  0.00  0.00    +0.000 A 
ATOM     22  C   UNL     1      43.402   4.199  12.276  0.00  0.00    +0.000 A 
ATOM     23  S   UNL     1      43.462   2.570  11.769  0.00  0.00    +0.000 S 
ATOM     24  C   UNL     1      44.358   2.981  10.383  0.00  0.00    +0.000 A 
ATOM     25  N   UNL     1      44.661   2.046   9.444  0.00  0.00    +0.000 NA
ATOM     26  C   UNL     1      45.279   2.517   8.413  0.00  0.00    +0.000 A 
ATOM     27  N   UNL     1      45.653   3.827   8.253  0.00  0.00    +0.000 N 
ATOM     28  C   UNL     1      45.492   4.779   9.238  0.00  0.00    +0.000 A 
ATOM     29  O   UNL     1      46.051   5.864   9.163  0.00  0.00    +0.000 OA
ATOM     30  C   UNL     1      44.689   4.323  10.361  0.00  0.00    +0.000 A 
ATOM     31  H   UNL     1      46.194   4.114   7.452  0.00  0.00    +0.000 HD
ENDBRANCH  19  21
ENDBRANCH   1  18
TORSDOF 6
ENDMDL
MODEL 8
REMARK VINA RESULT:    -6.220      4.221      7.909
REMARK INTER + INTRA:          -9.670
REMARK INTER:                  -7.990
REMARK INTRA:                  -1.680
REMARK UNBOUND:                -1.451
REMARK  Name = 
REMARK  7 active torsions:
REMARK  status: ('A' for Active; 'I' for Inactive)
REMARK    1  A    between atoms: C_1  and  N_2
REMARK    2  A    between atoms: N_2  and  C_3
REMARK    3  A    between atoms: C_3  and  C_4
REMARK    4  A    between atoms: C_7  and  C_8
REMARK    5  A    between atoms: C_8  and  O_9
REMARK    6  A    between atoms: C_8  and  C_10
REMARK    7  A    between atoms: C_18  and  C_20
REMARK                            x       y       z     vdW  Elec       q    Type
REMARK                         _______ _______ _______ _____ _____    ______ ____
ROOT
ATOM      1  C   UNL     1      49.104  10.123  11.884  0.00  0.00    +0.000 C 
ENDROOT
BRANCH   1   2
ATOM      2  C   UNL     1      48.101   9.005  12.005  0.00  0.00    +0.000 A 
ATOM      3  C   UNL     1      46.735   9.283  12.141  0.00  0.00    +0.000 A 
ATOM      4  C   UNL     1      45.812   8.244  12.296  0.00  0.00    +0.000 A 
ATOM      5  C   UNL     1      46.243   6.909  12.321  0.00  0.00    +0.000 A 
ATOM      6  C   UNL     1      47.614   6.639  12.175  0.00  0.00    +0.000 A 
ATOM      7  C   UNL     1      48.533   7.675  12.016  0.00  0.00    +0.000 A 
BRANCH   5   8
ATOM      8  C   UNL     1      45.241   5.786  12.523  0.00  0.00    +0.000 C 
BRANCH   8   9
ATOM      9  C   UNL     1      45.082   4.889  11.303  0.00  0.00    +0.000 A 
ATOM     10  C   UNL     1      45.484   5.349  10.036  0.00  0.00    +0.000 A 
ATOM     11  C   UNL     1      45.317   4.554   8.900  0.00  0.00    +0.000 A 
ATOM     12  C   UNL     1      44.756   3.283   9.015  0.00  0.00    +0.000 A 
ATOM     13  C   UNL     1      44.367   2.807  10.260  0.00  0.00    +0.000 A 
ATOM     14  C   UNL     1      44.527   3.604  11.397  0.00  0.00    +0.000 A 
ENDBRANCH   8   9
BRANCH   8  15
ATOM     15  O   UNL     1      43.977   6.330  12.916  0.00  0.00    +0.000 OA
ATOM     16  H   UNL     1      43.550   6.682  12.119  0.00  0.00    +0.000 HD
ENDBRANCH   8  15
ENDBRANCH   5   8
ENDBRANCH   1   2
BRANCH   1  18
ATOM     17  C   UNL     1      48.364  12.380  12.783  0.00  0.00    +0.000 C 
ATOM     18  N   UNL     1      49.112  11.138  12.944  0.00  0.00    +0.000 N 
ATOM     19  C   UNL     1      49.666  10.929  14.222  0.00  0.00    +0.000 C 
ATOM     20  O   UNL     1      49.536  11.767  15.112  0.00  0.00    +0.000 OA
BRANCH  19  21
ATOM     21  C   UNL     1      50.442   9.711  14.490  0.00  0.00    +0.000 A 
ATOM     22  C   UNL     1      51.799   9.573  14.243  0.00  0.00    +0.000 A 
ATOM     23  S   UNL     1      52.434   8.065  14.729  0.00  0.00    +0.000 S 
ATOM     24  C   UNL     1      50.949   7.604  15.418  0.00  0.00    +0.000 A 
ATOM     25  N   UNL     1      50.830   6.438  16.107  0.00  0.00    +0.000 NA
ATOM     26  C   UNL     1      49.667   6.256  16.637  0.00  0.00    +0.000 A 
ATOM     27  N   UNL     1      48.603   7.113  16.508  0.00  0.00    +0.000 N 
ATOM     28  C   UNL     1      48.636   8.233  15.704  0.00  0.00    +0.000 A 
ATOM     29  O   UNL     1      47.608   8.834  15.418  0.00  0.00    +0.000 OA
ATOM     30  C   UNL     1      49.960   8.544  15.192  0.00  0.00    +0.000 A 
ATOM     31  H   UNL     1      47.701   6.875  16.891  0.00  0.00    +0.000 HD
ENDBRANCH  19  21
ENDBRANCH   1  18
TORSDOF 6
ENDMDL
MODEL 9
REMARK VINA RESULT:    -5.930      4.440      8.237
REMARK INTER + INTRA:          -9.288
REMARK INTER:                  -7.826
REMARK INTRA:                  -1.462
REMARK UNBOUND:                -1.451
REMARK  Name = 
REMARK  7 active torsions:
REMARK  status: ('A' for Active; 'I' for Inactive)
REMARK    1  A    between atoms: C_1  and  N_2
REMARK    2  A    between atoms: N_2  and  C_3
REMARK    3  A    between atoms: C_3  and  C_4
REMARK    4  A    between atoms: C_7  and  C_8
REMARK    5  A    between atoms: C_8  and  O_9
REMARK    6  A    between atoms: C_8  and  C_10
REMARK    7  A    between atoms: C_18  and  C_20
REMARK                            x       y       z     vdW  Elec       q    Type
REMARK                         _______ _______ _______ _____ _____    ______ ____
ROOT
ATOM      1  C   UNL     1      49.239   9.262  12.272  0.00  0.00    +0.000 C 
ENDROOT
BRANCH   1   2
ATOM      2  C   UNL     1      48.094   8.286  12.356  0.00  0.00    +0.000 A 
ATOM      3  C   UNL     1      48.333   6.922  12.568  0.00  0.00    +0.000 A 
ATOM      4  C   UNL     1      47.270   6.013  12.604  0.00  0.00    +0.000 A 
ATOM      5  C   UNL     1      45.951   6.456  12.423  0.00  0.00    +0.000 A 
ATOM      6  C   UNL     1      45.720   7.827  12.221  0.00  0.00    +0.000 A 
ATOM      7  C   UNL     1      46.779   8.732  12.190  0.00  0.00    +0.000 A 
BRANCH   5   8
ATOM      8  C   UNL     1      44.804   5.461  12.429  0.00  0.00    +0.000 C 
BRANCH   8   9
ATOM      9  C   UNL     1      44.770   4.570  11.195  0.00  0.00    +0.000 A 
ATOM     10  C   UNL     1      45.152   5.087   9.943  0.00  0.00    +0.000 A 
ATOM     11  C   UNL     1      45.098   4.296   8.795  0.00  0.00    +0.000 A 
ATOM     12  C   UNL     1      44.671   2.971   8.881  0.00  0.00    +0.000 A 
ATOM     13  C   UNL     1      44.304   2.440  10.109  0.00  0.00    +0.000 A 
ATOM     14  C   UNL     1      44.352   3.232  11.259  0.00  0.00    +0.000 A 
ENDBRANCH   8   9
BRANCH   8  15
ATOM     15  O   UNL     1      43.561   6.155  12.582  0.00  0.00    +0.000 OA
ATOM     16  H   UNL     1      43.340   6.152  13.526  0.00  0.00    +0.000 HD
ENDBRANCH   8  15
ENDBRANCH   5   8
ENDBRANCH   1   2
BRANCH   1  18
ATOM     17  C   UNL     1      51.362   8.121  11.470  0.00  0.00    +0.000 C 
ATOM     18  N   UNL     1      50.586   8.744  12.538  0.00  0.00    +0.000 N 
ATOM     19  C   UNL     1      51.282   8.958  13.743  0.00  0.00    +0.000 C 
ATOM     20  O   UNL     1      52.454   8.608  13.867  0.00  0.00    +0.000 OA
BRANCH  19  21
ATOM     21  C   UNL     1      50.593   9.574  14.884  0.00  0.00    +0.000 A 
ATOM     22  C   UNL     1      50.484  10.939  15.093  0.00  0.00    +0.000 A 
ATOM     23  S   UNL     1      49.560  11.351  16.468  0.00  0.00    +0.000 S 
ATOM     24  C   UNL     1      49.152   9.723  16.744  0.00  0.00    +0.000 A 
ATOM     25  N   UNL     1      48.280   9.378  17.729  0.00  0.00    +0.000 NA
ATOM     26  C   UNL     1      48.008   8.117  17.773  0.00  0.00    +0.000 A 
ATOM     27  N   UNL     1      48.556   7.167  16.948  0.00  0.00    +0.000 N 
ATOM     28  C   UNL     1      49.547   7.450  16.032  0.00  0.00    +0.000 A 
ATOM     29  O   UNL     1      50.182   6.554  15.493  0.00  0.00    +0.000 OA
ATOM     30  C   UNL     1      49.792   8.873  15.861  0.00  0.00    +0.000 A 
ATOM     31  H   UNL     1      48.351   6.188  17.083  0.00  0.00    +0.000 HD
ENDBRANCH  19  21
ENDBRANCH   1  18
TORSDOF 6
ENDMDL
