MODEL 1
REMARK VINA RESULT:    -6.970      0.000      0.000
REMARK INTER + INTRA:         -10.189
REMARK INTER:                  -9.415
REMARK INTRA:                  -0.774
REMARK UNBOUND:                -0.774
REMARK  Name = 
REMARK  6 active torsions:
REMARK  status: ('A' for Active; 'I' for Inactive)
REMARK    1  A    between atoms: C_2  and  C_3
REMARK    2  A    between atoms: C_5  and  S_6
REMARK    3  A    between atoms: S_6  and  C_7
REMARK    4  A    between atoms: C_7  and  C_8
REMARK    5  A    between atoms: C_12  and  N_13
REMARK    6  A    between atoms: C_21  and  C_22
REMARK                            x       y       z     vdW  Elec       q    Type
REMARK                         _______ _______ _______ _____ _____    ______ ____
ROOT
ATOM      1  S   UNL     1      47.327   6.844  12.597  0.00  0.00    +0.000 S 
ENDROOT
BRANCH   1   4
ATOM      2  C   UNL     1      47.845   4.905  16.169  0.00  0.00    +0.000 A 
ATOM      3  C   UNL     1      47.327   5.252  14.920  0.00  0.00    +0.000 A 
ATOM      4  C   UNL     1      47.891   6.300  14.196  0.00  0.00    +0.000 A 
ATOM      5  C   UNL     1      48.982   6.996  14.752  0.00  0.00    +0.000 A 
ATOM      6  C   UNL     1      49.498   6.663  16.017  0.00  0.00    +0.000 A 
ATOM      7  C   UNL     1      48.920   5.608  16.720  0.00  0.00    +0.000 A 
BRANCH   6   8
ATOM      8  C   UNL     1      50.647   7.454  16.550  0.00  0.00    +0.000 C 
ATOM      9  N   UNL     1      51.195   8.422  15.755  0.00  0.00    +0.000 N 
ATOM     10  O   UNL     1      51.099   7.251  17.670  0.00  0.00    +0.000 OA
ATOM     11  H   UNL     1      50.911   8.654  14.818  0.00  0.00    +0.000 HD
ATOM     12  H   UNL     1      51.981   8.937  16.137  0.00  0.00    +0.000 HD
ENDBRANCH   6   8
BRANCH   2  14
ATOM     13  N   UNL     1      46.821   2.919  17.489  0.00  0.00    +0.000 NA
ATOM     14  C   UNL     1      47.279   3.808  16.891  0.00  0.00    +0.000 C 
ENDBRANCH   2  14
ENDBRANCH   1   4
BRANCH   1  15
ATOM     15  C   UNL     1      45.485   6.796  12.659  0.00  0.00    +0.000 C 
BRANCH  15  16
ATOM     16  C   UNL     1      44.915   5.472  12.212  0.00  0.00    +0.000 A 
ATOM     17  C   UNL     1      44.182   4.676  13.089  0.00  0.00    +0.000 A 
ATOM     18  N   UNL     1      43.635   3.490  12.767  0.00  0.00    +0.000 NA
ATOM     19  C   UNL     1      43.832   3.055  11.493  0.00  0.00    +0.000 A 
ATOM     20  C   UNL     1      44.565   3.728  10.518  0.00  0.00    +0.000 A 
ATOM     21  C   UNL     1      45.111   4.948  10.927  0.00  0.00    +0.000 A 
BRANCH  20  22
ATOM     22  N   UNL     1      44.759   3.252   9.244  0.00  0.00    +0.000 N 
ATOM     23  C   UNL     1      44.763   1.821   8.946  0.00  0.00    +0.000 C 
ATOM     24  C   UNL     1      46.118   1.422   8.371  0.00  0.00    +0.000 C 
ATOM     25  C   UNL     1      46.492   2.305   7.179  0.00  0.00    +0.000 C 
ATOM     26  C   UNL     1      46.385   3.793   7.519  0.00  0.00    +0.000 C 
ATOM     27  C   UNL     1      45.019   4.140   8.114  0.00  0.00    +0.000 C 
ENDBRANCH  20  22
ENDBRANCH  15  16
ENDBRANCH   1  15
TORSDOF 6
ENDMDL
MODEL 2
REMARK VINA RESULT:    -6.897      1.489      2.821
REMARK INTER + INTRA:         -10.090
REMARK INTER:                  -9.270
REMARK INTRA:                  -0.820
REMARK UNBOUND:                -0.774
REMARK  Name = 
REMARK  6 active torsions:
REMARK  status: ('A' for Active; 'I' for Inactive)
REMARK    1  A    between atoms: C_2  and  C_3
REMARK    2  A    between atoms: C_5  and  S_6
REMARK    3  A    between atoms: S_6  and  C_7
REMARK    4  A    between atoms: C_7  and  C_8
REMARK    5  A    between atoms: C_12  and  N_13
REMARK    6  A    between atoms: C_21  and  C_22
REMARK                            x       y       z     vdW  Elec       q    Type
REMARK                         _______ _______ _______ _____ _____    ______ ____
ROOT
ATOM      1  S   UNL     1      47.852   6.776  12.901  0.00  0.00    +0.000 S 
ENDROOT
BRANCH   1   4
ATOM      2  C   UNL     1      48.811   6.859  16.884  0.00  0.00    +0.000 A 
ATOM      3  C   UNL     1      48.601   7.279  15.568  0.00  0.00    +0.000 A 
ATOM      4  C   UNL     1      48.158   6.372  14.608  0.00  0.00    +0.000 A 
ATOM      5  C   UNL     1      47.934   5.036  14.991  0.00  0.00    +0.000 A 
ATOM      6  C   UNL     1      48.160   4.602  16.310  0.00  0.00    +0.000 A 
ATOM      7  C   UNL     1      48.599   5.529  17.254  0.00  0.00    +0.000 A 
BRANCH   6   8
ATOM      8  C   UNL     1      47.917   3.167  16.641  0.00  0.00    +0.000 C 
ATOM      9  N   UNL     1      46.989   2.868  17.600  0.00  0.00    +0.000 N 
ATOM     10  O   UNL     1      48.527   2.267  16.078  0.00  0.00    +0.000 OA
ATOM     11  H   UNL     1      46.450   3.531  18.133  0.00  0.00    +0.000 HD
ATOM     12  H   UNL     1      46.851   1.887  17.814  0.00  0.00    +0.000 HD
ENDBRANCH   6   8
BRANCH   2  14
ATOM     13  N   UNL     1      49.582   8.582  18.665  0.00  0.00    +0.000 NA
ATOM     14  C   UNL     1      49.236   7.804  17.869  0.00  0.00    +0.000 C 
ENDBRANCH   2  14
ENDBRANCH   1   4
BRANCH   1  15
ATOM     15  C   UNL     1      46.021   6.890  12.722  0.00  0.00    +0.000 C 
BRANCH  15  16
ATOM     16  C   UNL     1      45.386   5.583  12.317  0.00  0.00    +0.000 A 
ATOM     17  C   UNL     1      44.709   4.798  13.247  0.00  0.00    +0.000 A 
ATOM     18  N   UNL     1      44.110   3.627  12.967  0.00  0.00    +0.000 NA
ATOM     19  C   UNL     1      44.193   3.195  11.679  0.00  0.00    +0.000 A 
ATOM     20  C   UNL     1      44.860   3.856  10.651  0.00  0.00    +0.000 A 
ATOM     21  C   UNL     1      45.465   5.062  11.019  0.00  0.00    +0.000 A 
BRANCH  20  22
ATOM     22  N   UNL     1      44.937   3.383   9.363  0.00  0.00    +0.000 N 
ATOM     23  C   UNL     1      44.845   1.957   9.057  0.00  0.00    +0.000 C 
ATOM     24  C   UNL     1      46.133   1.493   8.385  0.00  0.00    +0.000 C 
ATOM     25  C   UNL     1      46.469   2.367   7.175  0.00  0.00    +0.000 C 
ATOM     26  C   UNL     1      46.465   3.855   7.531  0.00  0.00    +0.000 C 
ATOM     27  C   UNL     1      45.165   4.268   8.223  0.00  0.00    +0.000 C 
ENDBRANCH  20  22
ENDBRANCH  15  16
ENDBRANCH   1  15
TORSDOF 6
ENDMDL
MODEL 3
REMARK VINA RESULT:    -6.784      2.727      7.975
REMARK INTER + INTRA:          -9.937
REMARK INTER:                  -9.047
REMARK INTRA:                  -0.891
REMARK UNBOUND:                -0.774
REMARK  Name = 
REMARK  6 active torsions:
REMARK  status: ('A' for Active; 'I' for Inactive)
REMARK    1  A    between atoms: C_2  and  C_3
REMARK    2  A    between atoms: C_5  and  S_6
REMARK    3  A    between atoms: S_6  and  C_7
REMARK    4  A    between atoms: C_7  and  C_8
REMARK    5  A    between atoms: C_12  and  N_13
REMARK    6  A    between atoms: C_21  and  C_22
REMARK                            x       y       z     vdW  Elec       q    Type
REMARK                         _______ _______ _______ _____ _____    ______ ____
ROOT
ATOM      1  S   UNL     1      46.150   7.592  11.968  0.00  0.00    +0.000 S 
ENDROOT
BRANCH   1   4
ATOM      2  C   UNL     1      45.557   4.565   9.270  0.00  0.00    +0.000 A 
ATOM      3  C   UNL     1      46.001   5.765   9.830  0.00  0.00    +0.000 A 
ATOM      4  C   UNL     1      45.652   6.098  11.137  0.00  0.00    +0.000 A 
ATOM      5  C   UNL     1      44.846   5.205  11.870  0.00  0.00    +0.000 A 
ATOM      6  C   UNL     1      44.381   4.003  11.307  0.00  0.00    +0.000 A 
ATOM      7  C   UNL     1      44.747   3.691   9.999  0.00  0.00    +0.000 A 
BRANCH   6   8
ATOM      8  C   UNL     1      43.517   3.113  12.138  0.00  0.00    +0.000 C 
ATOM      9  N   UNL     1      43.374   3.401  13.467  0.00  0.00    +0.000 N 
ATOM     10  O   UNL     1      42.947   2.142  11.655  0.00  0.00    +0.000 OA
ATOM     11  H   UNL     1      43.812   4.160  13.962  0.00  0.00    +0.000 HD
ATOM     12  H   UNL     1      42.791   2.774  14.010  0.00  0.00    +0.000 HD
ENDBRANCH   6   8
BRANCH   2  14
ATOM     13  N   UNL     1      46.272   3.929   6.858  0.00  0.00    +0.000 NA
ATOM     14  C   UNL     1      45.946   4.218   7.939  0.00  0.00    +0.000 C 
ENDBRANCH   2  14
ENDBRANCH   1   4
BRANCH   1  15
ATOM     15  C   UNL     1      47.991   7.637  11.882  0.00  0.00    +0.000 C 
BRANCH  15  16
ATOM     16  C   UNL     1      48.649   7.343  13.207  0.00  0.00    +0.000 A 
ATOM     17  C   UNL     1      49.889   7.891  13.528  0.00  0.00    +0.000 A 
ATOM     18  N   UNL     1      50.538   7.686  14.688  0.00  0.00    +0.000 NA
ATOM     19  C   UNL     1      49.925   6.874  15.592  0.00  0.00    +0.000 A 
ATOM     20  C   UNL     1      48.703   6.235  15.399  0.00  0.00    +0.000 A 
ATOM     21  C   UNL     1      48.091   6.489  14.168  0.00  0.00    +0.000 A 
BRANCH  20  22
ATOM     22  N   UNL     1      48.118   5.410  16.329  0.00  0.00    +0.000 N 
ATOM     23  C   UNL     1      48.284   5.623  17.766  0.00  0.00    +0.000 C 
ATOM     24  C   UNL     1      48.965   4.408  18.388  0.00  0.00    +0.000 C 
ATOM     25  C   UNL     1      48.222   3.119  18.034  0.00  0.00    +0.000 C 
ATOM     26  C   UNL     1      47.996   2.989  16.527  0.00  0.00    +0.000 C 
ATOM     27  C   UNL     1      47.334   4.239  15.944  0.00  0.00    +0.000 C 
ENDBRANCH  20  22
ENDBRANCH  15  16
ENDBRANCH   1  15
TORSDOF 6
ENDMDL
MODEL 4
REMARK VINA RESULT:    -6.765      1.882      3.294
REMARK INTER + INTRA:          -9.912
REMARK INTER:                  -9.087
REMARK INTRA:                  -0.825
REMARK UNBOUND:                -0.774
REMARK  Name = 
REMARK  6 active torsions:
REMARK  status: ('A' for Active; 'I' for Inactive)
REMARK    1  A    between atoms: C_2  and  C_3
REMARK    2  A    between atoms: C_5  and  S_6
REMARK    3  A    between atoms: S_6  and  C_7
REMARK    4  A    between atoms: C_7  and  C_8
REMARK    5  A    between atoms: C_12  and  N_13
REMARK    6  A    between atoms: C_21  and  C_22
REMARK                            x       y       z     vdW  Elec       q    Type
REMARK                         _______ _______ _______ _____ _____    ______ ____
ROOT
ATOM      1  S   UNL     1      45.879   7.460  11.706  0.00  0.00    +0.000 S 
ENDROOT
BRANCH   1   4
ATOM      2  C   UNL     1      49.885   8.089  12.297  0.00  0.00    +0.000 A 
ATOM      3  C   UNL     1      48.633   8.049  11.680  0.00  0.00    +0.000 A 
ATOM      4  C   UNL     1      47.526   7.566  12.375  0.00  0.00    +0.000 A 
ATOM      5  C   UNL     1      47.701   7.120  13.699  0.00  0.00    +0.000 A 
ATOM      6  C   UNL     1      48.962   7.142  14.321  0.00  0.00    +0.000 A 
ATOM      7  C   UNL     1      50.053   7.634  13.607  0.00  0.00    +0.000 A 
BRANCH   6   8
ATOM      8  C   UNL     1      49.075   6.640  15.723  0.00  0.00    +0.000 C 
ATOM      9  N   UNL     1      49.440   7.521  16.703  0.00  0.00    +0.000 N 
ATOM     10  O   UNL     1      48.853   5.468  16.003  0.00  0.00    +0.000 OA
ATOM     11  H   UNL     1      49.662   8.494  16.575  0.00  0.00    +0.000 HD
ATOM     12  H   UNL     1      49.521   7.152  17.643  0.00  0.00    +0.000 HD
ENDBRANCH   6   8
BRANCH   2  14
ATOM     13  N   UNL     1      51.926   9.035  11.003  0.00  0.00    +0.000 NA
ATOM     14  C   UNL     1      51.008   8.616  11.587  0.00  0.00    +0.000 C 
ENDBRANCH   2  14
ENDBRANCH   1   4
BRANCH   1  15
ATOM     15  C   UNL     1      44.906   6.446  12.900  0.00  0.00    +0.000 C 
BRANCH  15  16
ATOM     16  C   UNL     1      44.504   5.104  12.342  0.00  0.00    +0.000 A 
ATOM     17  C   UNL     1      43.842   4.169  13.134  0.00  0.00    +0.000 A 
ATOM     18  N   UNL     1      43.443   2.956  12.712  0.00  0.00    +0.000 NA
ATOM     19  C   UNL     1      43.725   2.639  11.418  0.00  0.00    +0.000 A 
ATOM     20  C   UNL     1      44.403   3.459  10.520  0.00  0.00    +0.000 A 
ATOM     21  C   UNL     1      44.794   4.700  11.032  0.00  0.00    +0.000 A 
BRANCH  20  22
ATOM     22  N   UNL     1      44.685   3.102   9.224  0.00  0.00    +0.000 N 
ATOM     23  C   UNL     1      44.820   1.704   8.819  0.00  0.00    +0.000 C 
ATOM     24  C   UNL     1      46.225   1.462   8.278  0.00  0.00    +0.000 C 
ATOM     25  C   UNL     1      46.571   2.462   7.174  0.00  0.00    +0.000 C 
ATOM     26  C   UNL     1      46.326   3.906   7.620  0.00  0.00    +0.000 C 
ATOM     27  C   UNL     1      44.915   4.095   8.177  0.00  0.00    +0.000 C 
ENDBRANCH  20  22
ENDBRANCH  15  16
ENDBRANCH   1  15
TORSDOF 6
ENDMDL
MODEL 5
REMARK VINA RESULT:    -6.614      3.728      5.421
REMARK INTER + INTRA:          -9.708
REMARK INTER:                  -8.973
REMARK INTRA:                  -0.735
REMARK UNBOUND:                -0.774
REMARK  Name = 
REMARK  6 active torsions:
REMARK  status: ('A' for Active; 'I' for Inactive)
REMARK    1  A    between atoms: C_2  and  C_3
REMARK    2  A    between atoms: C_5  and  S_6
REMARK    3  A    between atoms: S_6  and  C_7
REMARK    4  A    between atoms: C_7  and  C_8
REMARK    5  A    between atoms: C_12  and  N_13
REMARK    6  A    between atoms: C_21  and  C_22
REMARK                            x       y       z     vdW  Elec       q    Type
REMARK                         _______ _______ _______ _____ _____    ______ ____
ROOT
ATOM      1  S   UNL     1      47.106   6.837  12.196  0.00  0.00    +0.000 S 
ENDROOT
BRANCH   1   4
ATOM      2  C   UNL     1      47.995  10.826  11.900  0.00  0.00    +0.000 A 
ATOM      3  C   UNL     1      48.153   9.448  12.065  0.00  0.00    +0.000 A 
ATOM      4  C   UNL     1      47.044   8.606  12.003  0.00  0.00    +0.000 A 
ATOM      5  C   UNL     1      45.775   9.174  11.778  0.00  0.00    +0.000 A 
ATOM      6  C   UNL     1      45.608  10.562  11.628  0.00  0.00    +0.000 A 
ATOM      7  C   UNL     1      46.732  11.383  11.689  0.00  0.00    +0.000 A 
BRANCH   6   8
ATOM      8  C   UNL     1      44.230  11.095  11.407  0.00  0.00    +0.000 C 
ATOM      9  N   UNL     1      43.221  10.645  12.213  0.00  0.00    +0.000 N 
ATOM     10  O   UNL     1      43.994  11.913  10.527  0.00  0.00    +0.000 OA
ATOM     11  H   UNL     1      43.307   9.964  12.949  0.00  0.00    +0.000 HD
ATOM     12  H   UNL     1      42.294  11.015  12.035  0.00  0.00    +0.000 HD
ENDBRANCH   6   8
BRANCH   2  14
ATOM     13  N   UNL     1      50.081  12.369  11.952  0.00  0.00    +0.000 NA
ATOM     14  C   UNL     1      49.142  11.679  11.934  0.00  0.00    +0.000 C 
ENDBRANCH   2  14
ENDBRANCH   1   4
BRANCH   1  15
ATOM     15  C   UNL     1      45.546   6.361  13.056  0.00  0.00    +0.000 C 
BRANCH  15  16
ATOM     16  C   UNL     1      44.898   5.134  12.463  0.00  0.00    +0.000 A 
ATOM     17  C   UNL     1      44.059   4.328  13.228  0.00  0.00    +0.000 A 
ATOM     18  N   UNL     1      43.437   3.225  12.774  0.00  0.00    +0.000 NA
ATOM     19  C   UNL     1      43.668   2.888  11.476  0.00  0.00    +0.000 A 
ATOM     20  C   UNL     1      44.503   3.580  10.602  0.00  0.00    +0.000 A 
ATOM     21  C   UNL     1      45.121   4.710  11.146  0.00  0.00    +0.000 A 
BRANCH  20  22
ATOM     22  N   UNL     1      44.726   3.203   9.300  0.00  0.00    +0.000 N 
ATOM     23  C   UNL     1      44.755   1.798   8.896  0.00  0.00    +0.000 C 
ATOM     24  C   UNL     1      46.125   1.459   8.320  0.00  0.00    +0.000 C 
ATOM     25  C   UNL     1      46.511   2.432   7.205  0.00  0.00    +0.000 C 
ATOM     26  C   UNL     1      46.378   3.889   7.653  0.00  0.00    +0.000 C 
ATOM     27  C   UNL     1      44.997   4.176   8.245  0.00  0.00    +0.000 C 
ENDBRANCH  20  22
ENDBRANCH  15  16
ENDBRANCH   1  15
TORSDOF 6
ENDMDL
MODEL 6
REMARK VINA RESULT:    -6.415      2.557      4.258
REMARK INTER + INTRA:          -9.438
REMARK INTER:                  -8.440
REMARK INTRA:                  -0.998
REMARK UNBOUND:                -0.774
REMARK  Name = 
REMARK  6 active torsions:
REMARK  status: ('A' for Active; 'I' for Inactive)
REMARK    1  A    between atoms: C_2  and  C_3
REMARK    2  A    between atoms: C_5  and  S_6
REMARK    3  A    between atoms: S_6  and  C_7
REMARK    4  A    between atoms: C_7  and  C_8
REMARK    5  A    between atoms: C_12  and  N_13
REMARK    6  A    between atoms: C_21  and  C_22
REMARK                            x       y       z     vdW  Elec       q    Type
REMARK                         _______ _______ _______ _____ _____    ______ ____
ROOT
ATOM      1  S   UNL     1      49.401   7.894  14.503  0.00  0.00    +0.000 S 
ENDROOT
BRANCH   1   4
ATOM      2  C   UNL     1      48.290   6.878  18.314  0.00  0.00    +0.000 A 
ATOM      3  C   UNL     1      48.761   7.625  17.232  0.00  0.00    +0.000 A 
ATOM      4  C   UNL     1      48.822   7.054  15.963  0.00  0.00    +0.000 A 
ATOM      5  C   UNL     1      48.407   5.719  15.801  0.00  0.00    +0.000 A 
ATOM      6  C   UNL     1      47.949   4.955  16.889  0.00  0.00    +0.000 A 
ATOM      7  C   UNL     1      47.892   5.550  18.148  0.00  0.00    +0.000 A 
BRANCH   6   8
ATOM      8  C   UNL     1      47.539   3.540  16.646  0.00  0.00    +0.000 C 
ATOM      9  N   UNL     1      46.969   2.841  17.675  0.00  0.00    +0.000 N 
ATOM     10  O   UNL     1      47.706   3.002  15.558  0.00  0.00    +0.000 OA
ATOM     11  H   UNL     1      46.807   3.183  18.607  0.00  0.00    +0.000 HD
ATOM     12  H   UNL     1      46.711   1.879  17.486  0.00  0.00    +0.000 HD
ENDBRANCH   6   8
BRANCH   2  14
ATOM     13  N   UNL     1      48.140   7.976  20.661  0.00  0.00    +0.000 NA
ATOM     14  C   UNL     1      48.201   7.482  19.607  0.00  0.00    +0.000 C 
ENDBRANCH   2  14
ENDBRANCH   1   4
BRANCH   1  15
ATOM     15  C   UNL     1      48.867   6.860  13.072  0.00  0.00    +0.000 C 
BRANCH  15  16
ATOM     16  C   UNL     1      47.476   7.193  12.592  0.00  0.00    +0.000 A 
ATOM     17  C   UNL     1      47.068   8.516  12.442  0.00  0.00    +0.000 A 
ATOM     18  N   UNL     1      45.851   8.896  12.013  0.00  0.00    +0.000 NA
ATOM     19  C   UNL     1      44.971   7.900  11.720  0.00  0.00    +0.000 A 
ATOM     20  C   UNL     1      45.228   6.537  11.850  0.00  0.00    +0.000 A 
ATOM     21  C   UNL     1      46.510   6.218  12.309  0.00  0.00    +0.000 A 
BRANCH  20  22
ATOM     22  N   UNL     1      44.310   5.556  11.561  0.00  0.00    +0.000 N 
ATOM     23  C   UNL     1      43.312   5.119  12.535  0.00  0.00    +0.000 C 
ATOM     24  C   UNL     1      43.509   3.638  12.839  0.00  0.00    +0.000 C 
ATOM     25  C   UNL     1      43.525   2.809  11.554  0.00  0.00    +0.000 C 
ATOM     26  C   UNL     1      44.522   3.362  10.534  0.00  0.00    +0.000 C 
ATOM     27  C   UNL     1      44.302   4.854  10.280  0.00  0.00    +0.000 C 
ENDBRANCH  20  22
ENDBRANCH  15  16
ENDBRANCH   1  15
TORSDOF 6
ENDMDL
MODEL 7
REMARK VINA RESULT:    -6.378      5.740      8.161
REMARK INTER + INTRA:          -9.389
REMARK INTER:                  -8.757
REMARK INTRA:                  -0.632
REMARK UNBOUND:                -0.774
REMARK  Name = 
REMARK  6 active torsions:
REMARK  status: ('A' for Active; 'I' for Inactive)
REMARK    1  A    between atoms: C_2  and  C_3
REMARK    2  A    between atoms: C_5  and  S_6
REMARK    3  A    between atoms: S_6  and  C_7
REMARK    4  A    between atoms: C_7  and  C_8
REMARK    5  A    between atoms: C_12  and  N_13
REMARK    6  A    between atoms: C_21  and  C_22
REMARK                            x       y       z     vdW  Elec       q    Type
REMARK                         _______ _______ _______ _____ _____    ______ ____
ROOT
ATOM      1  S   UNL     1      45.506   8.498  12.423  0.00  0.00    +0.000 S 
ENDROOT
BRANCH   1   4
ATOM      2  C   UNL     1      46.310   4.583  13.328  0.00  0.00    +0.000 A 
ATOM      3  C   UNL     1      46.333   5.979  13.372  0.00  0.00    +0.000 A 
ATOM      4  C   UNL     1      45.566   6.719  12.474  0.00  0.00    +0.000 A 
ATOM      5  C   UNL     1      44.780   6.033  11.529  0.00  0.00    +0.000 A 
ATOM      6  C   UNL     1      44.765   4.628  11.468  0.00  0.00    +0.000 A 
ATOM      7  C   UNL     1      45.537   3.909  12.380  0.00  0.00    +0.000 A 
BRANCH   6   8
ATOM      8  C   UNL     1      43.919   3.967  10.430  0.00  0.00    +0.000 C 
ATOM      9  N   UNL     1      43.931   4.476   9.161  0.00  0.00    +0.000 N 
ATOM     10  O   UNL     1      43.224   2.994  10.694  0.00  0.00    +0.000 OA
ATOM     11  H   UNL     1      44.450   5.279   8.847  0.00  0.00    +0.000 HD
ATOM     12  H   UNL     1      43.340   4.016   8.478  0.00  0.00    +0.000 HD
ENDBRANCH   6   8
BRANCH   2  14
ATOM     13  N   UNL     1      47.709   3.223  15.039  0.00  0.00    +0.000 NA
ATOM     14  C   UNL     1      47.075   3.832  14.273  0.00  0.00    +0.000 C 
ENDBRANCH   2  14
ENDBRANCH   1   4
BRANCH   1  15
ATOM     15  C   UNL     1      44.385   8.932  11.025  0.00  0.00    +0.000 C 
BRANCH  15  16
ATOM     16  C   UNL     1      43.692  10.259  11.216  0.00  0.00    +0.000 A 
ATOM     17  C   UNL     1      44.421  11.415  11.482  0.00  0.00    +0.000 A 
ATOM     18  N   UNL     1      43.882  12.635  11.657  0.00  0.00    +0.000 NA
ATOM     19  C   UNL     1      42.526  12.718  11.573  0.00  0.00    +0.000 A 
ATOM     20  C   UNL     1      41.668  11.645  11.342  0.00  0.00    +0.000 A 
ATOM     21  C   UNL     1      42.299  10.408  11.179  0.00  0.00    +0.000 A 
BRANCH  20  22
ATOM     22  N   UNL     1      40.301  11.762  11.279  0.00  0.00    +0.000 N 
ATOM     23  C   UNL     1      39.549  12.578  12.231  0.00  0.00    +0.000 C 
ATOM     24  C   UNL     1      38.572  11.697  13.002  0.00  0.00    +0.000 C 
ATOM     25  C   UNL     1      37.691  10.886  12.050  0.00  0.00    +0.000 C 
ATOM     26  C   UNL     1      38.524  10.122  11.018  0.00  0.00    +0.000 C 
ATOM     27  C   UNL     1      39.505  11.041  10.289  0.00  0.00    +0.000 C 
ENDBRANCH  20  22
ENDBRANCH  15  16
ENDBRANCH   1  15
TORSDOF 6
ENDMDL
MODEL 8
REMARK VINA RESULT:    -6.242      2.785      4.589
REMARK INTER + INTRA:          -9.205
REMARK INTER:                  -8.299
REMARK INTRA:                  -0.906
REMARK UNBOUND:                -0.774
REMARK  Name = 
REMARK  6 active torsions:
REMARK  status: ('A' for Active; 'I' for Inactive)
REMARK    1  A    between atoms: C_2  and  C_3
REMARK    2  A    between atoms: C_5  and  S_6
REMARK    3  A    between atoms: S_6  and  C_7
REMARK    4  A    between atoms: C_7  and  C_8
REMARK    5  A    between atoms: C_12  and  N_13
REMARK    6  A    between atoms: C_21  and  C_22
REMARK                            x       y       z     vdW  Elec       q    Type
REMARK                         _______ _______ _______ _____ _____    ______ ____
ROOT
ATOM      1  S   UNL     1      49.401   8.046  15.392  0.00  0.00    +0.000 S 
ENDROOT
BRANCH   1   4
ATOM      2  C   UNL     1      51.132   4.905  17.373  0.00  0.00    +0.000 A 
ATOM      3  C   UNL     1      50.985   6.117  16.696  0.00  0.00    +0.000 A 
ATOM      4  C   UNL     1      49.726   6.528  16.264  0.00  0.00    +0.000 A 
ATOM      5  C   UNL     1      48.618   5.697  16.519  0.00  0.00    +0.000 A 
ATOM      6  C   UNL     1      48.762   4.466  17.185  0.00  0.00    +0.000 A 
ATOM      7  C   UNL     1      50.031   4.079  17.612  0.00  0.00    +0.000 A 
BRANCH   6   8
ATOM      8  C   UNL     1      47.546   3.629  17.408  0.00  0.00    +0.000 C 
ATOM      9  N   UNL     1      47.519   2.795  18.492  0.00  0.00    +0.000 N 
ATOM     10  O   UNL     1      46.588   3.675  16.646  0.00  0.00    +0.000 OA
ATOM     11  H   UNL     1      48.257   2.670  19.164  0.00  0.00    +0.000 HD
ATOM     12  H   UNL     1      46.687   2.230  18.613  0.00  0.00    +0.000 HD
ENDBRANCH   6   8
BRANCH   2  14
ATOM     13  N   UNL     1      53.471   4.175  18.229  0.00  0.00    +0.000 NA
ATOM     14  C   UNL     1      52.423   4.507  17.840  0.00  0.00    +0.000 C 
ENDBRANCH   2  14
ENDBRANCH   1   4
BRANCH   1  15
ATOM     15  C   UNL     1      49.197   7.585  13.619  0.00  0.00    +0.000 C 
BRANCH  15  16
ATOM     16  C   UNL     1      47.755   7.580  13.174  0.00  0.00    +0.000 A 
ATOM     17  C   UNL     1      47.139   8.749  12.732  0.00  0.00    +0.000 A 
ATOM     18  N   UNL     1      45.864   8.828  12.311  0.00  0.00    +0.000 NA
ATOM     19  C   UNL     1      45.142   7.675  12.339  0.00  0.00    +0.000 A 
ATOM     20  C   UNL     1      45.614   6.441  12.782  0.00  0.00    +0.000 A 
ATOM     21  C   UNL     1      46.945   6.438  13.211  0.00  0.00    +0.000 A 
BRANCH  20  22
ATOM     22  N   UNL     1      44.853   5.298  12.810  0.00  0.00    +0.000 N 
ATOM     23  C   UNL     1      45.448   3.969  12.682  0.00  0.00    +0.000 C 
ATOM     24  C   UNL     1      44.889   3.275  11.446  0.00  0.00    +0.000 C 
ATOM     25  C   UNL     1      43.360   3.270  11.460  0.00  0.00    +0.000 C 
ATOM     26  C   UNL     1      42.790   4.672  11.686  0.00  0.00    +0.000 C 
ATOM     27  C   UNL     1      43.397   5.337  12.922  0.00  0.00    +0.000 C 
ENDBRANCH  20  22
ENDBRANCH  15  16
ENDBRANCH   1  15
TORSDOF 6
ENDMDL
MODEL 9
REMARK VINA RESULT:    -6.160      3.713      7.645
REMARK INTER + INTRA:          -9.094
REMARK INTER:                  -8.205
REMARK INTRA:                  -0.889
REMARK UNBOUND:                -0.774
REMARK  Name = 
REMARK  6 active torsions:
REMARK  status: ('A' for Active; 'I' for Inactive)
REMARK    1  A    between atoms: C_2  and  C_3
REMARK    2  A    between atoms: C_5  and  S_6
REMARK    3  A    between atoms: S_6  and  C_7
REMARK    4  A    between atoms: C_7  and  C_8
REMARK    5  A    between atoms: C_12  and  N_13
REMARK    6  A    between atoms: C_21  and  C_22
REMARK                            x       y       z     vdW  Elec       q    Type
REMARK                         _______ _______ _______ _____ _____    ______ ____
ROOT
ATOM      1  S   UNL     1      47.814   8.756  12.270  0.00  0.00    +0.000 S 
ENDROOT
BRANCH   1   4
ATOM      2  C   UNL     1      46.532   4.986  13.236  0.00  0.00    +0.000 A 
ATOM      3  C   UNL     1      47.347   6.116  13.129  0.00  0.00    +0.000 A 
ATOM      4  C   UNL     1      46.880   7.254  12.476  0.00  0.00    +0.000 A 
ATOM      5  C   UNL     1      45.583   7.236  11.928  0.00  0.00    +0.000 A 
ATOM      6  C   UNL     1      44.764   6.096  12.017  0.00  0.00    +0.000 A 
ATOM      7  C   UNL     1      45.251   4.971  12.679  0.00  0.00    +0.000 A 
BRANCH   6   8
ATOM      8  C   UNL     1      43.405   6.144  11.399  0.00  0.00    +0.000 C 
ATOM      9  N   UNL     1      42.878   7.364  11.079  0.00  0.00    +0.000 N 
ATOM     10  O   UNL     1      42.765   5.123  11.181  0.00  0.00    +0.000 OA
ATOM     11  H   UNL     1      43.312   8.259  11.234  0.00  0.00    +0.000 HD
ATOM     12  H   UNL     1      41.950   7.369  10.671  0.00  0.00    +0.000 HD
ENDBRANCH   6   8
BRANCH   2  14
ATOM     13  N   UNL     1      47.404   2.900  14.511  0.00  0.00    +0.000 NA
ATOM     14  C   UNL     1      47.008   3.834  13.935  0.00  0.00    +0.000 C 
ENDBRANCH   2  14
ENDBRANCH   1   4
BRANCH   1  15
ATOM     15  C   UNL     1      48.206   9.353  13.970  0.00  0.00    +0.000 C 
BRANCH  15  16
ATOM     16  C   UNL     1      49.225   8.492  14.675  0.00  0.00    +0.000 A 
ATOM     17  C   UNL     1      50.576   8.568  14.347  0.00  0.00    +0.000 A 
ATOM     18  N   UNL     1      51.546   7.843  14.933  0.00  0.00    +0.000 NA
ATOM     19  C   UNL     1      51.153   6.974  15.905  0.00  0.00    +0.000 A 
ATOM     20  C   UNL     1      49.839   6.771  16.317  0.00  0.00    +0.000 A 
ATOM     21  C   UNL     1      48.885   7.552  15.658  0.00  0.00    +0.000 A 
BRANCH  20  22
ATOM     22  N   UNL     1      49.475   5.874  17.292  0.00  0.00    +0.000 N 
ATOM     23  C   UNL     1      50.325   4.742  17.657  0.00  0.00    +0.000 C 
ATOM     24  C   UNL     1      49.582   3.437  17.393  0.00  0.00    +0.000 C 
ATOM     25  C   UNL     1      48.215   3.433  18.080  0.00  0.00    +0.000 C 
ATOM     26  C   UNL     1      47.402   4.682  17.734  0.00  0.00    +0.000 C 
ATOM     27  C   UNL     1      48.196   5.964  17.992  0.00  0.00    +0.000 C 
ENDBRANCH  20  22
ENDBRANCH  15  16
ENDBRANCH   1  15
TORSDOF 6
ENDMDL
