MODEL 1
REMARK VINA RESULT:    -8.304      0.000      0.000
REMARK INTER + INTRA:         -12.417
REMARK INTER:                 -11.460
REMARK INTRA:                  -0.957
REMARK UNBOUND:                -0.957
REMARK  Name = 
REMARK  8 active torsions:
REMARK  status: ('A' for Active; 'I' for Inactive)
REMARK    1  A    between atoms: C_1  and  O_2
REMARK    2  A    between atoms: O_2  and  C_3
REMARK    3  A    between atoms: C_5  and  C_6
REMARK    4  A    between atoms: C_6  and  N_7
REMARK    5  A    between atoms: N_7  and  C_8
REMARK    6  A    between atoms: C_12  and  C_13
REMARK    7  A    between atoms: C_21  and  C_22
REMARK    8  A    between atoms: C_22  and  O_24
REMARK                            x       y       z     vdW  Elec       q    Type
REMARK                         _______ _______ _______ _____ _____    ______ ____
ROOT
ATOM      1  N   UNL     1      43.503   6.092  10.653  0.00  0.00    +0.000 N 
ATOM      2  H   UNL     1      43.965   6.681   9.965  0.00  0.00    +0.000 HD
ENDROOT
BRANCH   1   3
ATOM      3  C   UNL     1      43.778   4.727  10.420  0.00  0.00    +0.000 A 
ATOM      4  C   UNL     1      43.217   3.685  11.163  0.00  0.00    +0.000 A 
ATOM      5  N   UNL     1      43.453   2.371  10.961  0.00  0.00    +0.000 NA
ATOM      6  C   UNL     1      44.278   2.066   9.934  0.00  0.00    +0.000 A 
ATOM      7  C   UNL     1      44.875   2.992   9.076  0.00  0.00    +0.000 A 
ATOM      8  C   UNL     1      44.570   4.345   9.328  0.00  0.00    +0.000 A 
BRANCH   7   9
ATOM      9  C   UNL     1      45.806   2.567   8.006  0.00  0.00    +0.000 A 
ATOM     10  C   UNL     1      46.410   1.299   8.005  0.00  0.00    +0.000 A 
ATOM     11  C   UNL     1      47.256   0.896   6.965  0.00  0.00    +0.000 A 
ATOM     12  C   UNL     1      47.528   1.760   5.909  0.00  0.00    +0.000 A 
ATOM     13  C   UNL     1      46.957   3.028   5.892  0.00  0.00    +0.000 A 
ATOM     14  C   UNL     1      46.105   3.423   6.926  0.00  0.00    +0.000 A 
ENDBRANCH   7   9
ENDBRANCH   1   3
BRANCH   1  15
ATOM     15  C   UNL     1      43.776   6.553  12.016  0.00  0.00    +0.000 C 
BRANCH  15  18
ATOM     16  C   UNL     1      47.565   7.028  12.013  0.00  0.00    +0.000 A 
ATOM     17  C   UNL     1      46.210   7.192  11.724  0.00  0.00    +0.000 A 
ATOM     18  C   UNL     1      45.241   6.387  12.349  0.00  0.00    +0.000 A 
ATOM     19  C   UNL     1      45.649   5.448  13.307  0.00  0.00    +0.000 A 
ATOM     20  C   UNL     1      47.008   5.301  13.620  0.00  0.00    +0.000 A 
ATOM     21  C   UNL     1      47.960   6.074  12.952  0.00  0.00    +0.000 A 
BRANCH  16  23
ATOM     22  C   UNL     1      49.816   7.778  12.187  0.00  0.00    +0.000 C 
ATOM     23  O   UNL     1      48.605   7.709  11.448  0.00  0.00    +0.000 OA
ENDBRANCH  16  23
BRANCH  20  24
ATOM     24  C   UNL     1      47.401   4.276  14.614  0.00  0.00    +0.000 C 
ATOM     25  O   UNL     1      47.305   3.078  14.389  0.00  0.00    +0.000 OA
BRANCH  24  26
ATOM     26  O   UNL     1      47.832   4.768  15.792  0.00  0.00    +0.000 OA
ATOM     27  H   UNL     1      48.521   5.459  15.732  0.00  0.00    +0.000 HD
ENDBRANCH  24  26
ENDBRANCH  20  24
ENDBRANCH  15  18
ENDBRANCH   1  15
TORSDOF 7
ENDMDL
MODEL 2
REMARK VINA RESULT:    -8.000      1.018      2.634
REMARK INTER + INTRA:         -11.996
REMARK INTER:                 -11.260
REMARK INTRA:                  -0.737
REMARK UNBOUND:                -0.957
REMARK  Name = 
REMARK  8 active torsions:
REMARK  status: ('A' for Active; 'I' for Inactive)
REMARK    1  A    between atoms: C_1  and  O_2
REMARK    2  A    between atoms: O_2  and  C_3
REMARK    3  A    between atoms: C_5  and  C_6
REMARK    4  A    between atoms: C_6  and  N_7
REMARK    5  A    between atoms: N_7  and  C_8
REMARK    6  A    between atoms: C_12  and  C_13
REMARK    7  A    between atoms: C_21  and  C_22
REMARK    8  A    between atoms: C_22  and  O_24
REMARK                            x       y       z     vdW  Elec       q    Type
REMARK                         _______ _______ _______ _____ _____    ______ ____
ROOT
ATOM      1  N   UNL     1      44.535   6.315  10.663  0.00  0.00    +0.000 N 
ATOM      2  H   UNL     1      45.360   6.773  10.281  0.00  0.00    +0.000 HD
ENDROOT
BRANCH   1   3
ATOM      3  C   UNL     1      44.498   4.951  10.304  0.00  0.00    +0.000 A 
ATOM      4  C   UNL     1      43.684   4.005  10.933  0.00  0.00    +0.000 A 
ATOM      5  N   UNL     1      43.618   2.696  10.609  0.00  0.00    +0.000 NA
ATOM      6  C   UNL     1      44.390   2.302   9.571  0.00  0.00    +0.000 A 
ATOM      7  C   UNL     1      45.216   3.137   8.816  0.00  0.00    +0.000 A 
ATOM      8  C   UNL     1      45.221   4.495   9.193  0.00  0.00    +0.000 A 
BRANCH   7   9
ATOM      9  C   UNL     1      46.064   2.606   7.725  0.00  0.00    +0.000 A 
ATOM     10  C   UNL     1      46.639   1.326   7.785  0.00  0.00    +0.000 A 
ATOM     11  C   UNL     1      47.406   0.821   6.728  0.00  0.00    +0.000 A 
ATOM     12  C   UNL     1      47.626   1.593   5.592  0.00  0.00    +0.000 A 
ATOM     13  C   UNL     1      47.082   2.871   5.511  0.00  0.00    +0.000 A 
ATOM     14  C   UNL     1      46.309   3.367   6.564  0.00  0.00    +0.000 A 
ENDBRANCH   7   9
ENDBRANCH   1   3
BRANCH   1  15
ATOM     15  C   UNL     1      44.399   6.580  12.098  0.00  0.00    +0.000 C 
BRANCH  15  18
ATOM     16  C   UNL     1      46.875   4.764  14.367  0.00  0.00    +0.000 A 
ATOM     17  C   UNL     1      45.709   5.093  13.674  0.00  0.00    +0.000 A 
ATOM     18  C   UNL     1      45.671   6.215  12.828  0.00  0.00    +0.000 A 
ATOM     19  C   UNL     1      46.836   6.975  12.648  0.00  0.00    +0.000 A 
ATOM     20  C   UNL     1      48.016   6.630  13.321  0.00  0.00    +0.000 A 
ATOM     21  C   UNL     1      48.022   5.542  14.197  0.00  0.00    +0.000 A 
BRANCH  16  23
ATOM     22  C   UNL     1      47.195   4.069  16.619  0.00  0.00    +0.000 C 
ATOM     23  O   UNL     1      47.034   3.734  15.248  0.00  0.00    +0.000 OA
ENDBRANCH  16  23
BRANCH  20  24
ATOM     24  C   UNL     1      49.217   7.476  13.129  0.00  0.00    +0.000 C 
ATOM     25  O   UNL     1      49.258   8.373  12.300  0.00  0.00    +0.000 OA
BRANCH  24  26
ATOM     26  O   UNL     1      50.266   7.152  13.910  0.00  0.00    +0.000 OA
ATOM     27  H   UNL     1      50.075   6.516  14.628  0.00  0.00    +0.000 HD
ENDBRANCH  24  26
ENDBRANCH  20  24
ENDBRANCH  15  18
ENDBRANCH   1  15
TORSDOF 7
ENDMDL
MODEL 3
REMARK VINA RESULT:    -7.845      0.471      1.241
REMARK INTER + INTRA:         -11.782
REMARK INTER:                 -10.840
REMARK INTRA:                  -0.942
REMARK UNBOUND:                -0.957
REMARK  Name = 
REMARK  8 active torsions:
REMARK  status: ('A' for Active; 'I' for Inactive)
REMARK    1  A    between atoms: C_1  and  O_2
REMARK    2  A    between atoms: O_2  and  C_3
REMARK    3  A    between atoms: C_5  and  C_6
REMARK    4  A    between atoms: C_6  and  N_7
REMARK    5  A    between atoms: N_7  and  C_8
REMARK    6  A    between atoms: C_12  and  C_13
REMARK    7  A    between atoms: C_21  and  C_22
REMARK    8  A    between atoms: C_22  and  O_24
REMARK                            x       y       z     vdW  Elec       q    Type
REMARK                         _______ _______ _______ _____ _____    ______ ____
ROOT
ATOM      1  N   UNL     1      44.089   6.280  10.636  0.00  0.00    +0.000 N 
ATOM      2  H   UNL     1      44.769   6.818  10.104  0.00  0.00    +0.000 HD
ENDROOT
BRANCH   1   3
ATOM      3  C   UNL     1      44.192   4.902  10.347  0.00  0.00    +0.000 A 
ATOM      4  C   UNL     1      43.503   3.909  11.047  0.00  0.00    +0.000 A 
ATOM      5  N   UNL     1      43.573   2.585  10.792  0.00  0.00    +0.000 NA
ATOM      6  C   UNL     1      44.357   2.222   9.752  0.00  0.00    +0.000 A 
ATOM      7  C   UNL     1      45.067   3.100   8.931  0.00  0.00    +0.000 A 
ATOM      8  C   UNL     1      44.933   4.469   9.239  0.00  0.00    +0.000 A 
BRANCH   7   9
ATOM      9  C   UNL     1      45.941   2.607   7.842  0.00  0.00    +0.000 A 
ATOM     10  C   UNL     1      46.199   3.372   6.692  0.00  0.00    +0.000 A 
ATOM     11  C   UNL     1      47.060   2.910   5.688  0.00  0.00    +0.000 A 
ATOM     12  C   UNL     1      47.669   1.665   5.807  0.00  0.00    +0.000 A 
ATOM     13  C   UNL     1      47.418   0.879   6.927  0.00  0.00    +0.000 A 
ATOM     14  C   UNL     1      46.568   1.347   7.931  0.00  0.00    +0.000 A 
ENDBRANCH   7   9
ENDBRANCH   1   3
BRANCH   1  15
ATOM     15  C   UNL     1      44.141   6.618  12.061  0.00  0.00    +0.000 C 
BRANCH  15  18
ATOM     16  C   UNL     1      47.825   7.508  12.525  0.00  0.00    +0.000 A 
ATOM     17  C   UNL     1      46.502   7.536  12.084  0.00  0.00    +0.000 A 
ATOM     18  C   UNL     1      45.568   6.598  12.559  0.00  0.00    +0.000 A 
ATOM     19  C   UNL     1      45.970   5.662  13.522  0.00  0.00    +0.000 A 
ATOM     20  C   UNL     1      47.292   5.651  13.989  0.00  0.00    +0.000 A 
ATOM     21  C   UNL     1      48.218   6.557  13.468  0.00  0.00    +0.000 A 
BRANCH  16  23
ATOM     22  C   UNL     1      50.166   7.859  12.289  0.00  0.00    +0.000 C 
ATOM     23  O   UNL     1      48.837   8.328  12.113  0.00  0.00    +0.000 OA
ENDBRANCH  16  23
BRANCH  20  24
ATOM     24  C   UNL     1      47.686   4.626  14.983  0.00  0.00    +0.000 C 
ATOM     25  O   UNL     1      48.341   4.900  15.978  0.00  0.00    +0.000 OA
BRANCH  24  26
ATOM     26  O   UNL     1      47.302   3.370  14.682  0.00  0.00    +0.000 OA
ATOM     27  H   UNL     1      47.117   3.202  13.737  0.00  0.00    +0.000 HD
ENDBRANCH  24  26
ENDBRANCH  20  24
ENDBRANCH  15  18
ENDBRANCH   1  15
TORSDOF 7
ENDMDL
MODEL 4
REMARK VINA RESULT:    -7.632      1.668      2.719
REMARK INTER + INTRA:         -11.489
REMARK INTER:                 -10.714
REMARK INTRA:                  -0.775
REMARK UNBOUND:                -0.957
REMARK  Name = 
REMARK  8 active torsions:
REMARK  status: ('A' for Active; 'I' for Inactive)
REMARK    1  A    between atoms: C_1  and  O_2
REMARK    2  A    between atoms: O_2  and  C_3
REMARK    3  A    between atoms: C_5  and  C_6
REMARK    4  A    between atoms: C_6  and  N_7
REMARK    5  A    between atoms: N_7  and  C_8
REMARK    6  A    between atoms: C_12  and  C_13
REMARK    7  A    between atoms: C_21  and  C_22
REMARK    8  A    between atoms: C_22  and  O_24
REMARK                            x       y       z     vdW  Elec       q    Type
REMARK                         _______ _______ _______ _____ _____    ______ ____
ROOT
ATOM      1  N   UNL     1      44.029   6.316  10.744  0.00  0.00    +0.000 N 
ATOM      2  H   UNL     1      44.532   6.870  10.055  0.00  0.00    +0.000 HD
ENDROOT
BRANCH   1   3
ATOM      3  C   UNL     1      44.129   4.937  10.459  0.00  0.00    +0.000 A 
ATOM      4  C   UNL     1      43.438   3.947  11.162  0.00  0.00    +0.000 A 
ATOM      5  N   UNL     1      43.504   2.623  10.910  0.00  0.00    +0.000 NA
ATOM      6  C   UNL     1      44.286   2.255   9.870  0.00  0.00    +0.000 A 
ATOM      7  C   UNL     1      44.998   3.129   9.046  0.00  0.00    +0.000 A 
ATOM      8  C   UNL     1      44.867   4.499   9.351  0.00  0.00    +0.000 A 
BRANCH   7   9
ATOM      9  C   UNL     1      45.868   2.631   7.957  0.00  0.00    +0.000 A 
ATOM     10  C   UNL     1      46.185   3.420   6.838  0.00  0.00    +0.000 A 
ATOM     11  C   UNL     1      47.042   2.951   5.835  0.00  0.00    +0.000 A 
ATOM     12  C   UNL     1      47.591   1.676   5.923  0.00  0.00    +0.000 A 
ATOM     13  C   UNL     1      47.282   0.867   7.011  0.00  0.00    +0.000 A 
ATOM     14  C   UNL     1      46.434   1.341   8.015  0.00  0.00    +0.000 A 
ENDBRANCH   7   9
ENDBRANCH   1   3
BRANCH   1  15
ATOM     15  C   UNL     1      44.410   6.693  12.108  0.00  0.00    +0.000 C 
BRANCH  15  18
ATOM     16  C   UNL     1      46.454   9.917  12.052  0.00  0.00    +0.000 A 
ATOM     17  C   UNL     1      45.374   9.035  12.092  0.00  0.00    +0.000 A 
ATOM     18  C   UNL     1      45.584   7.644  12.088  0.00  0.00    +0.000 A 
ATOM     19  C   UNL     1      46.897   7.152  12.094  0.00  0.00    +0.000 A 
ATOM     20  C   UNL     1      47.984   8.037  12.083  0.00  0.00    +0.000 A 
ATOM     21  C   UNL     1      47.756   9.414  12.035  0.00  0.00    +0.000 A 
BRANCH  16  23
ATOM     22  C   UNL     1      47.616  11.988  11.906  0.00  0.00    +0.000 C 
ATOM     23  O   UNL     1      46.389  11.280  12.007  0.00  0.00    +0.000 OA
ENDBRANCH  16  23
BRANCH  20  24
ATOM     24  C   UNL     1      49.355   7.479  12.058  0.00  0.00    +0.000 C 
ATOM     25  O   UNL     1      50.178   7.806  11.215  0.00  0.00    +0.000 OA
BRANCH  24  26
ATOM     26  O   UNL     1      49.607   6.557  13.008  0.00  0.00    +0.000 OA
ATOM     27  H   UNL     1      49.630   6.894  13.925  0.00  0.00    +0.000 HD
ENDBRANCH  24  26
ENDBRANCH  20  24
ENDBRANCH  15  18
ENDBRANCH   1  15
TORSDOF 7
ENDMDL
MODEL 5
REMARK VINA RESULT:    -7.174      2.242      3.141
REMARK INTER + INTRA:         -10.857
REMARK INTER:                 -10.111
REMARK INTRA:                  -0.746
REMARK UNBOUND:                -0.957
REMARK  Name = 
REMARK  8 active torsions:
REMARK  status: ('A' for Active; 'I' for Inactive)
REMARK    1  A    between atoms: C_1  and  O_2
REMARK    2  A    between atoms: O_2  and  C_3
REMARK    3  A    between atoms: C_5  and  C_6
REMARK    4  A    between atoms: C_6  and  N_7
REMARK    5  A    between atoms: N_7  and  C_8
REMARK    6  A    between atoms: C_12  and  C_13
REMARK    7  A    between atoms: C_21  and  C_22
REMARK    8  A    between atoms: C_22  and  O_24
REMARK                            x       y       z     vdW  Elec       q    Type
REMARK                         _______ _______ _______ _____ _____    ______ ____
ROOT
ATOM      1  N   UNL     1      45.609   6.582  13.281  0.00  0.00    +0.000 N 
ATOM      2  H   UNL     1      45.295   7.548  13.217  0.00  0.00    +0.000 HD
ENDROOT
BRANCH   1   3
ATOM      3  C   UNL     1      44.865   5.748  12.418  0.00  0.00    +0.000 A 
ATOM      4  C   UNL     1      43.495   5.511  12.557  0.00  0.00    +0.000 A 
ATOM      5  N   UNL     1      42.755   4.727  11.746  0.00  0.00    +0.000 NA
ATOM      6  C   UNL     1      43.409   4.162  10.706  0.00  0.00    +0.000 A 
ATOM      7  C   UNL     1      44.761   4.342  10.410  0.00  0.00    +0.000 A 
ATOM      8  C   UNL     1      45.472   5.190  11.284  0.00  0.00    +0.000 A 
BRANCH   7   9
ATOM      9  C   UNL     1      45.405   3.642   9.275  0.00  0.00    +0.000 A 
ATOM     10  C   UNL     1      45.475   2.240   9.209  0.00  0.00    +0.000 A 
ATOM     11  C   UNL     1      46.051   1.591   8.110  0.00  0.00    +0.000 A 
ATOM     12  C   UNL     1      46.584   2.331   7.060  0.00  0.00    +0.000 A 
ATOM     13  C   UNL     1      46.543   3.721   7.106  0.00  0.00    +0.000 A 
ATOM     14  C   UNL     1      45.958   4.365   8.199  0.00  0.00    +0.000 A 
ENDBRANCH   7   9
ENDBRANCH   1   3
BRANCH   1  15
ATOM     15  C   UNL     1      47.063   6.485  13.131  0.00  0.00    +0.000 C 
BRANCH  15  18
ATOM     16  C   UNL     1      49.208   6.659  16.285  0.00  0.00    +0.000 A 
ATOM     17  C   UNL     1      48.593   7.005  15.081  0.00  0.00    +0.000 A 
ATOM     18  C   UNL     1      47.709   6.115  14.446  0.00  0.00    +0.000 A 
ATOM     19  C   UNL     1      47.412   4.892  15.063  0.00  0.00    +0.000 A 
ATOM     20  C   UNL     1      48.006   4.554  16.287  0.00  0.00    +0.000 A 
ATOM     21  C   UNL     1      48.921   5.428  16.878  0.00  0.00    +0.000 A 
BRANCH  16  23
ATOM     22  C   UNL     1      50.327   7.073  18.343  0.00  0.00    +0.000 C 
ATOM     23  O   UNL     1      50.114   7.408  16.979  0.00  0.00    +0.000 OA
ENDBRANCH  16  23
BRANCH  20  24
ATOM     24  C   UNL     1      47.692   3.239  16.891  0.00  0.00    +0.000 C 
ATOM     25  O   UNL     1      48.445   2.280  16.798  0.00  0.00    +0.000 OA
BRANCH  24  26
ATOM     26  O   UNL     1      46.497   3.174  17.512  0.00  0.00    +0.000 OA
ATOM     27  H   UNL     1      46.315   2.338  17.985  0.00  0.00    +0.000 HD
ENDBRANCH  24  26
ENDBRANCH  20  24
ENDBRANCH  15  18
ENDBRANCH   1  15
TORSDOF 7
ENDMDL
MODEL 6
REMARK VINA RESULT:    -7.019      2.370      3.522
REMARK INTER + INTRA:         -10.643
REMARK INTER:                  -9.862
REMARK INTRA:                  -0.781
REMARK UNBOUND:                -0.957
REMARK  Name = 
REMARK  8 active torsions:
REMARK  status: ('A' for Active; 'I' for Inactive)
REMARK    1  A    between atoms: C_1  and  O_2
REMARK    2  A    between atoms: O_2  and  C_3
REMARK    3  A    between atoms: C_5  and  C_6
REMARK    4  A    between atoms: C_6  and  N_7
REMARK    5  A    between atoms: N_7  and  C_8
REMARK    6  A    between atoms: C_12  and  C_13
REMARK    7  A    between atoms: C_21  and  C_22
REMARK    8  A    between atoms: C_22  and  O_24
REMARK                            x       y       z     vdW  Elec       q    Type
REMARK                         _______ _______ _______ _____ _____    ______ ____
ROOT
ATOM      1  N   UNL     1      44.657   5.806  12.545  0.00  0.00    +0.000 N 
ATOM      2  H   UNL     1      44.227   6.613  12.100  0.00  0.00    +0.000 HD
ENDROOT
BRANCH   1   3
ATOM      3  C   UNL     1      44.407   4.627  11.810  0.00  0.00    +0.000 A 
ATOM      4  C   UNL     1      43.423   3.695  12.149  0.00  0.00    +0.000 A 
ATOM      5  N   UNL     1      43.153   2.564  11.464  0.00  0.00    +0.000 NA
ATOM      6  C   UNL     1      43.889   2.355  10.349  0.00  0.00    +0.000 A 
ATOM      7  C   UNL     1      44.873   3.215   9.857  0.00  0.00    +0.000 A 
ATOM      8  C   UNL     1      45.089   4.389  10.608  0.00  0.00    +0.000 A 
BRANCH   7   9
ATOM      9  C   UNL     1      45.663   2.880   8.652  0.00  0.00    +0.000 A 
ATOM     10  C   UNL     1      46.112   1.573   8.396  0.00  0.00    +0.000 A 
ATOM     11  C   UNL     1      46.825   1.262   7.232  0.00  0.00    +0.000 A 
ATOM     12  C   UNL     1      47.116   2.256   6.303  0.00  0.00    +0.000 A 
ATOM     13  C   UNL     1      46.699   3.562   6.538  0.00  0.00    +0.000 A 
ATOM     14  C   UNL     1      45.980   3.866   7.696  0.00  0.00    +0.000 A 
ENDBRANCH   7   9
ENDBRANCH   1   3
BRANCH   1  15
ATOM     15  C   UNL     1      46.069   6.056  12.848  0.00  0.00    +0.000 C 
BRANCH  15  18
ATOM     16  C   UNL     1      48.147   9.105  11.864  0.00  0.00    +0.000 A 
ATOM     17  C   UNL     1      47.788   7.797  12.190  0.00  0.00    +0.000 A 
ATOM     18  C   UNL     1      46.450   7.470  12.473  0.00  0.00    +0.000 A 
ATOM     19  C   UNL     1      45.468   8.467  12.375  0.00  0.00    +0.000 A 
ATOM     20  C   UNL     1      45.823   9.776  12.020  0.00  0.00    +0.000 A 
ATOM     21  C   UNL     1      47.164  10.093  11.792  0.00  0.00    +0.000 A 
BRANCH  16  23
ATOM     22  C   UNL     1      49.527  10.823  10.968  0.00  0.00    +0.000 C 
ATOM     23  O   UNL     1      49.408   9.562  11.612  0.00  0.00    +0.000 OA
ENDBRANCH  16  23
BRANCH  20  24
ATOM     24  C   UNL     1      44.762  10.808  11.958  0.00  0.00    +0.000 C 
ATOM     25  O   UNL     1      45.013  11.994  11.807  0.00  0.00    +0.000 OA
BRANCH  24  26
ATOM     26  O   UNL     1      43.509  10.340  12.122  0.00  0.00    +0.000 OA
ATOM     27  H   UNL     1      42.794  10.967  11.897  0.00  0.00    +0.000 HD
ENDBRANCH  24  26
ENDBRANCH  20  24
ENDBRANCH  15  18
ENDBRANCH   1  15
TORSDOF 7
ENDMDL
MODEL 7
REMARK VINA RESULT:    -6.964      1.775      3.079
REMARK INTER + INTRA:         -10.567
REMARK INTER:                  -9.938
REMARK INTRA:                  -0.629
REMARK UNBOUND:                -0.957
REMARK  Name = 
REMARK  8 active torsions:
REMARK  status: ('A' for Active; 'I' for Inactive)
REMARK    1  A    between atoms: C_1  and  O_2
REMARK    2  A    between atoms: O_2  and  C_3
REMARK    3  A    between atoms: C_5  and  C_6
REMARK    4  A    between atoms: C_6  and  N_7
REMARK    5  A    between atoms: N_7  and  C_8
REMARK    6  A    between atoms: C_12  and  C_13
REMARK    7  A    between atoms: C_21  and  C_22
REMARK    8  A    between atoms: C_22  and  O_24
REMARK                            x       y       z     vdW  Elec       q    Type
REMARK                         _______ _______ _______ _____ _____    ______ ____
ROOT
ATOM      1  N   UNL     1      44.795   5.928  12.308  0.00  0.00    +0.000 N 
ATOM      2  H   UNL     1      44.179   6.686  12.026  0.00  0.00    +0.000 HD
ENDROOT
BRANCH   1   3
ATOM      3  C   UNL     1      44.497   4.741  11.604  0.00  0.00    +0.000 A 
ATOM      4  C   UNL     1      43.465   3.868  11.957  0.00  0.00    +0.000 A 
ATOM      5  N   UNL     1      43.149   2.731  11.301  0.00  0.00    +0.000 NA
ATOM      6  C   UNL     1      43.888   2.454  10.203  0.00  0.00    +0.000 A 
ATOM      7  C   UNL     1      44.917   3.252   9.700  0.00  0.00    +0.000 A 
ATOM      8  C   UNL     1      45.181   4.436  10.420  0.00  0.00    +0.000 A 
BRANCH   7   9
ATOM      9  C   UNL     1      45.706   2.844   8.515  0.00  0.00    +0.000 A 
ATOM     10  C   UNL     1      46.188   1.533   8.359  0.00  0.00    +0.000 A 
ATOM     11  C   UNL     1      46.898   1.151   7.213  0.00  0.00    +0.000 A 
ATOM     12  C   UNL     1      47.152   2.075   6.206  0.00  0.00    +0.000 A 
ATOM     13  C   UNL     1      46.701   3.384   6.342  0.00  0.00    +0.000 A 
ATOM     14  C   UNL     1      45.984   3.759   7.480  0.00  0.00    +0.000 A 
ENDBRANCH   7   9
ENDBRANCH   1   3
BRANCH   1  15
ATOM     15  C   UNL     1      46.201   6.340  12.257  0.00  0.00    +0.000 C 
BRANCH  15  18
ATOM     16  C   UNL     1      47.184   4.467  15.435  0.00  0.00    +0.000 A 
ATOM     17  C   UNL     1      46.545   4.805  14.242  0.00  0.00    +0.000 A 
ATOM     18  C   UNL     1      46.911   5.965  13.537  0.00  0.00    +0.000 A 
ATOM     19  C   UNL     1      47.964   6.754  14.021  0.00  0.00    +0.000 A 
ATOM     20  C   UNL     1      48.627   6.401  15.205  0.00  0.00    +0.000 A 
ATOM     21  C   UNL     1      48.215   5.273  15.919  0.00  0.00    +0.000 A 
BRANCH  16  23
ATOM     22  C   UNL     1      47.756   3.167  17.344  0.00  0.00    +0.000 C 
ATOM     23  O   UNL     1      46.897   3.399  16.236  0.00  0.00    +0.000 OA
ENDBRANCH  16  23
BRANCH  20  24
ATOM     24  C   UNL     1      49.713   7.278  15.701  0.00  0.00    +0.000 C 
ATOM     25  O   UNL     1      49.645   8.497  15.644  0.00  0.00    +0.000 OA
BRANCH  24  26
ATOM     26  O   UNL     1      50.790   6.626  16.180  0.00  0.00    +0.000 OA
ATOM     27  H   UNL     1      51.341   7.130  16.811  0.00  0.00    +0.000 HD
ENDBRANCH  24  26
ENDBRANCH  20  24
ENDBRANCH  15  18
ENDBRANCH   1  15
TORSDOF 7
ENDMDL
MODEL 8
REMARK VINA RESULT:    -6.897      3.201      7.374
REMARK INTER + INTRA:         -10.475
REMARK INTER:                  -9.624
REMARK INTRA:                  -0.851
REMARK UNBOUND:                -0.957
REMARK  Name = 
REMARK  8 active torsions:
REMARK  status: ('A' for Active; 'I' for Inactive)
REMARK    1  A    between atoms: C_1  and  O_2
REMARK    2  A    between atoms: O_2  and  C_3
REMARK    3  A    between atoms: C_5  and  C_6
REMARK    4  A    between atoms: C_6  and  N_7
REMARK    5  A    between atoms: N_7  and  C_8
REMARK    6  A    between atoms: C_12  and  C_13
REMARK    7  A    between atoms: C_21  and  C_22
REMARK    8  A    between atoms: C_22  and  O_24
REMARK                            x       y       z     vdW  Elec       q    Type
REMARK                         _______ _______ _______ _____ _____    ______ ____
ROOT
ATOM      1  N   UNL     1      47.732   7.039  11.866  0.00  0.00    +0.000 N 
ATOM      2  H   UNL     1      48.263   7.622  11.223  0.00  0.00    +0.000 HD
ENDROOT
BRANCH   1   3
ATOM      3  C   UNL     1      48.183   7.205  13.194  0.00  0.00    +0.000 A 
ATOM      4  C   UNL     1      48.726   8.394  13.686  0.00  0.00    +0.000 A 
ATOM      5  N   UNL     1      49.158   8.587  14.950  0.00  0.00    +0.000 NA
ATOM      6  C   UNL     1      49.016   7.540  15.793  0.00  0.00    +0.000 A 
ATOM      7  C   UNL     1      48.450   6.308  15.462  0.00  0.00    +0.000 A 
ATOM      8  C   UNL     1      48.000   6.180  14.132  0.00  0.00    +0.000 A 
BRANCH   7   9
ATOM      9  C   UNL     1      48.380   5.199  16.441  0.00  0.00    +0.000 A 
ATOM     10  C   UNL     1      47.346   4.247  16.413  0.00  0.00    +0.000 A 
ATOM     11  C   UNL     1      47.314   3.181  17.320  0.00  0.00    +0.000 A 
ATOM     12  C   UNL     1      48.309   3.051  18.284  0.00  0.00    +0.000 A 
ATOM     13  C   UNL     1      49.335   3.988  18.345  0.00  0.00    +0.000 A 
ATOM     14  C   UNL     1      49.369   5.045  17.432  0.00  0.00    +0.000 A 
ENDBRANCH   7   9
ENDBRANCH   1   3
BRANCH   1  15
ATOM     15  C   UNL     1      46.290   7.218  11.677  0.00  0.00    +0.000 C 
BRANCH  15  18
ATOM     16  C   UNL     1      45.280   4.551   9.139  0.00  0.00    +0.000 A 
ATOM     17  C   UNL     1      45.863   5.683   9.708  0.00  0.00    +0.000 A 
ATOM     18  C   UNL     1      45.676   5.978  11.071  0.00  0.00    +0.000 A 
ATOM     19  C   UNL     1      44.936   5.091  11.866  0.00  0.00    +0.000 A 
ATOM     20  C   UNL     1      44.374   3.937  11.302  0.00  0.00    +0.000 A 
ATOM     21  C   UNL     1      44.527   3.687   9.936  0.00  0.00    +0.000 A 
BRANCH  16  23
ATOM     22  C   UNL     1      46.598   3.707   7.347  0.00  0.00    +0.000 C 
ATOM     23  O   UNL     1      45.346   4.175   7.828  0.00  0.00    +0.000 OA
ENDBRANCH  16  23
BRANCH  20  24
ATOM     24  C   UNL     1      43.573   3.041  12.168  0.00  0.00    +0.000 C 
ATOM     25  O   UNL     1      43.537   3.168  13.383  0.00  0.00    +0.000 OA
BRANCH  24  26
ATOM     26  O   UNL     1      42.924   2.057  11.515  0.00  0.00    +0.000 OA
ATOM     27  H   UNL     1      41.955   2.035  11.643  0.00  0.00    +0.000 HD
ENDBRANCH  24  26
ENDBRANCH  20  24
ENDBRANCH  15  18
ENDBRANCH   1  15
TORSDOF 7
ENDMDL
MODEL 9
REMARK VINA RESULT:    -6.890      2.311      3.653
REMARK INTER + INTRA:         -10.464
REMARK INTER:                  -9.639
REMARK INTRA:                  -0.825
REMARK UNBOUND:                -0.957
REMARK  Name = 
REMARK  8 active torsions:
REMARK  status: ('A' for Active; 'I' for Inactive)
REMARK    1  A    between atoms: C_1  and  O_2
REMARK    2  A    between atoms: O_2  and  C_3
REMARK    3  A    between atoms: C_5  and  C_6
REMARK    4  A    between atoms: C_6  and  N_7
REMARK    5  A    between atoms: N_7  and  C_8
REMARK    6  A    between atoms: C_12  and  C_13
REMARK    7  A    between atoms: C_21  and  C_22
REMARK    8  A    between atoms: C_22  and  O_24
REMARK                            x       y       z     vdW  Elec       q    Type
REMARK                         _______ _______ _______ _____ _____    ______ ____
ROOT
ATOM      1  N   UNL     1      44.780   5.586  13.043  0.00  0.00    +0.000 N 
ATOM      2  H   UNL     1      44.245   6.409  12.774  0.00  0.00    +0.000 HD
ENDROOT
BRANCH   1   3
ATOM      3  C   UNL     1      44.465   4.483  12.221  0.00  0.00    +0.000 A 
ATOM      4  C   UNL     1      43.458   3.559  12.514  0.00  0.00    +0.000 A 
ATOM      5  N   UNL     1      43.126   2.500  11.746  0.00  0.00    +0.000 NA
ATOM      6  C   UNL     1      43.819   2.362  10.593  0.00  0.00    +0.000 A 
ATOM      7  C   UNL     1      44.817   3.228  10.142  0.00  0.00    +0.000 A 
ATOM      8  C   UNL     1      45.099   4.325  10.981  0.00  0.00    +0.000 A 
BRANCH   7   9
ATOM      9  C   UNL     1      45.557   2.970   8.886  0.00  0.00    +0.000 A 
ATOM     10  C   UNL     1      45.923   4.008   8.012  0.00  0.00    +0.000 A 
ATOM     11  C   UNL     1      46.658   3.755   6.848  0.00  0.00    +0.000 A 
ATOM     12  C   UNL     1      47.030   2.454   6.524  0.00  0.00    +0.000 A 
ATOM     13  C   UNL     1      46.667   1.405   7.362  0.00  0.00    +0.000 A 
ATOM     14  C   UNL     1      45.943   1.663   8.528  0.00  0.00    +0.000 A 
ENDBRANCH   7   9
ENDBRANCH   1   3
BRANCH   1  15
ATOM     15  C   UNL     1      46.210   5.892  13.144  0.00  0.00    +0.000 C 
BRANCH  15  18
ATOM     16  C   UNL     1      45.674   9.583  12.325  0.00  0.00    +0.000 A 
ATOM     17  C   UNL     1      45.437   8.268  12.725  0.00  0.00    +0.000 A 
ATOM     18  C   UNL     1      46.477   7.321  12.731  0.00  0.00    +0.000 A 
ATOM     19  C   UNL     1      47.772   7.728  12.378  0.00  0.00    +0.000 A 
ATOM     20  C   UNL     1      48.018   9.056  12.003  0.00  0.00    +0.000 A 
ATOM     21  C   UNL     1      46.963   9.969  11.954  0.00  0.00    +0.000 A 
BRANCH  16  23
ATOM     22  C   UNL     1      43.764  10.465  11.215  0.00  0.00    +0.000 C 
ATOM     23  O   UNL     1      44.750  10.583  12.231  0.00  0.00    +0.000 OA
ENDBRANCH  16  23
BRANCH  20  24
ATOM     24  C   UNL     1      49.393   9.439  11.606  0.00  0.00    +0.000 C 
ATOM     25  O   UNL     1      50.381   8.859  12.033  0.00  0.00    +0.000 OA
BRANCH  24  26
ATOM     26  O   UNL     1      49.466  10.496  10.775  0.00  0.00    +0.000 OA
ATOM     27  H   UNL     1      49.112  11.336  11.130  0.00  0.00    +0.000 HD
ENDBRANCH  24  26
ENDBRANCH  20  24
ENDBRANCH  15  18
ENDBRANCH   1  15
TORSDOF 7
ENDMDL
