MODEL 1
REMARK VINA RESULT:    -8.062      0.000      0.000
REMARK INTER + INTRA:         -10.439
REMARK INTER:                  -9.947
REMARK INTRA:                  -0.492
REMARK UNBOUND:                -0.492
REMARK  Name = 
REMARK  4 active torsions:
REMARK  status: ('A' for Active; 'I' for Inactive)
REMARK    1  A    between atoms: C_2  and  C_4
REMARK    2  A    between atoms: C_7  and  S_8
REMARK    3  A    between atoms: S_8  and  C_9
REMARK    4  A    between atoms: C_9  and  C_10
REMARK                            x       y       z     vdW  Elec       q    Type
REMARK                         _______ _______ _______ _____ _____    ______ ____
ROOT
ATOM      1  C   UNL     1      44.550   4.033  12.249  0.00  0.00    +0.000 C 
ENDROOT
BRANCH   1   2
ATOM      2  C   UNL     1      45.774   4.662  12.867  0.00  0.00    +0.000 A 
ATOM      3  C   UNL     1      46.524   5.619  12.190  0.00  0.00    +0.000 A 
ATOM      4  C   UNL     1      47.602   6.187  12.848  0.00  0.00    +0.000 A 
ATOM      5  N   UNL     1      47.975   5.876  14.111  0.00  0.00    +0.000 NA
ATOM      6  C   UNL     1      47.283   4.920  14.765  0.00  0.00    +0.000 A 
ATOM      7  N   UNL     1      47.621   4.596  16.061  0.00  0.00    +0.000 N 
ATOM      8  C   UNL     1      48.330   5.557  16.912  0.00  0.00    +0.000 C 
ATOM      9  C   UNL     1      49.722   5.048  17.311  0.00  0.00    +0.000 C 
ATOM     10  O   UNL     1      49.668   3.717  17.854  0.00  0.00    +0.000 OA
ATOM     11  C   UNL     1      49.129   2.815  16.876  0.00  0.00    +0.000 C 
ATOM     12  C   UNL     1      47.693   3.195  16.487  0.00  0.00    +0.000 C 
ATOM     13  C   UNL     1      46.186   4.301  14.156  0.00  0.00    +0.000 A 
ENDBRANCH   1   2
BRANCH   1  14
ATOM     14  S   UNL     1      44.148   4.785  10.640  0.00  0.00    +0.000 S 
BRANCH  14  18
ATOM     15  C   UNL     1      46.565   2.433   7.493  0.00  0.00    +0.000 A 
ATOM     16  C   UNL     1      45.857   1.717   8.466  0.00  0.00    +0.000 A 
ATOM     17  C   UNL     1      45.106   2.395   9.439  0.00  0.00    +0.000 A 
ATOM     18  C   UNL     1      45.052   3.793   9.456  0.00  0.00    +0.000 A 
ATOM     19  C   UNL     1      45.766   4.498   8.475  0.00  0.00    +0.000 A 
ATOM     20  C   UNL     1      46.521   3.827   7.505  0.00  0.00    +0.000 A 
BRANCH  15  22
ATOM     21  N   UNL     1      48.459   2.468   5.957  0.00  0.00    +0.000 N 
ATOM     22  C   UNL     1      47.402   1.761   6.464  0.00  0.00    +0.000 C 
ATOM     23  O   UNL     1      47.188   0.612   6.104  0.00  0.00    +0.000 OA
ATOM     24  H   UNL     1      49.078   1.957   5.341  0.00  0.00    +0.000 HD
ATOM     25  H   UNL     1      48.829   3.289   6.413  0.00  0.00    +0.000 HD
ENDBRANCH  15  22
ENDBRANCH  14  18
ENDBRANCH   1  14
TORSDOF 4
ENDMDL
MODEL 2
REMARK VINA RESULT:    -7.931      2.482      3.620
REMARK INTER + INTRA:         -10.278
REMARK INTER:                  -9.642
REMARK INTRA:                  -0.636
REMARK UNBOUND:                -0.492
REMARK  Name = 
REMARK  4 active torsions:
REMARK  status: ('A' for Active; 'I' for Inactive)
REMARK    1  A    between atoms: C_2  and  C_4
REMARK    2  A    between atoms: C_7  and  S_8
REMARK    3  A    between atoms: S_8  and  C_9
REMARK    4  A    between atoms: C_9  and  C_10
REMARK                            x       y       z     vdW  Elec       q    Type
REMARK                         _______ _______ _______ _____ _____    ______ ____
ROOT
ATOM      1  C   UNL     1      44.050   5.533  11.063  0.00  0.00    +0.000 C 
ENDROOT
BRANCH   1   2
ATOM      2  C   UNL     1      45.291   5.580  11.918  0.00  0.00    +0.000 A 
ATOM      3  C   UNL     1      45.544   4.618  12.891  0.00  0.00    +0.000 A 
ATOM      4  C   UNL     1      46.733   4.702  13.596  0.00  0.00    +0.000 A 
ATOM      5  N   UNL     1      47.671   5.658  13.401  0.00  0.00    +0.000 NA
ATOM      6  C   UNL     1      47.421   6.620  12.489  0.00  0.00    +0.000 A 
ATOM      7  N   UNL     1      48.365   7.595  12.248  0.00  0.00    +0.000 N 
ATOM      8  C   UNL     1      49.782   7.353  12.541  0.00  0.00    +0.000 C 
ATOM      9  C   UNL     1      50.308   8.297  13.631  0.00  0.00    +0.000 C 
ATOM     10  O   UNL     1      49.998   9.672  13.342  0.00  0.00    +0.000 OA
ATOM     11  C   UNL     1      48.576   9.841  13.256  0.00  0.00    +0.000 C 
ATOM     12  C   UNL     1      47.972   9.002  12.121  0.00  0.00    +0.000 C 
ATOM     13  C   UNL     1      46.236   6.599  11.745  0.00  0.00    +0.000 A 
ENDBRANCH   1   2
BRANCH   1  14
ATOM     14  S   UNL     1      43.599   3.823  10.626  0.00  0.00    +0.000 S 
BRANCH  14  18
ATOM     15  C   UNL     1      46.635   2.406   7.455  0.00  0.00    +0.000 A 
ATOM     16  C   UNL     1      46.357   3.775   7.550  0.00  0.00    +0.000 A 
ATOM     17  C   UNL     1      45.442   4.248   8.505  0.00  0.00    +0.000 A 
ATOM     18  C   UNL     1      44.793   3.363   9.374  0.00  0.00    +0.000 A 
ATOM     19  C   UNL     1      45.082   1.994   9.267  0.00  0.00    +0.000 A 
ATOM     20  C   UNL     1      45.990   1.517   8.315  0.00  0.00    +0.000 A 
BRANCH  15  22
ATOM     21  N   UNL     1      48.723   2.551   6.203  0.00  0.00    +0.000 N 
ATOM     22  C   UNL     1      47.570   1.854   6.439  0.00  0.00    +0.000 C 
ATOM     23  O   UNL     1      47.346   0.800   5.858  0.00  0.00    +0.000 OA
ATOM     24  H   UNL     1      49.393   2.104   5.591  0.00  0.00    +0.000 HD
ATOM     25  H   UNL     1      49.069   3.254   6.840  0.00  0.00    +0.000 HD
ENDBRANCH  15  22
ENDBRANCH  14  18
ENDBRANCH   1  14
TORSDOF 4
ENDMDL
MODEL 3
REMARK VINA RESULT:    -7.697      4.362      5.844
REMARK INTER + INTRA:          -9.988
REMARK INTER:                  -9.556
REMARK INTRA:                  -0.432
REMARK UNBOUND:                -0.492
REMARK  Name = 
REMARK  4 active torsions:
REMARK  status: ('A' for Active; 'I' for Inactive)
REMARK    1  A    between atoms: C_2  and  C_4
REMARK    2  A    between atoms: C_7  and  S_8
REMARK    3  A    between atoms: S_8  and  C_9
REMARK    4  A    between atoms: C_9  and  C_10
REMARK                            x       y       z     vdW  Elec       q    Type
REMARK                         _______ _______ _______ _____ _____    ______ ____
ROOT
ATOM      1  C   UNL     1      44.840   4.935  11.884  0.00  0.00    +0.000 C 
ENDROOT
BRANCH   1   2
ATOM      2  C   UNL     1      45.125   6.404  12.070  0.00  0.00    +0.000 A 
ATOM      3  C   UNL     1      46.128   6.852  12.924  0.00  0.00    +0.000 A 
ATOM      4  C   UNL     1      46.362   8.215  12.996  0.00  0.00    +0.000 A 
ATOM      5  N   UNL     1      45.680   9.145  12.289  0.00  0.00    +0.000 NA
ATOM      6  C   UNL     1      44.676   8.729  11.489  0.00  0.00    +0.000 A 
ATOM      7  N   UNL     1      43.977   9.648  10.736  0.00  0.00    +0.000 N 
ATOM      8  C   UNL     1      44.580  10.936  10.378  0.00  0.00    +0.000 C 
ATOM      9  C   UNL     1      43.815  12.115  10.995  0.00  0.00    +0.000 C 
ATOM     10  O   UNL     1      42.405  12.037  10.725  0.00  0.00    +0.000 OA
ATOM     11  C   UNL     1      41.872  10.824  11.278  0.00  0.00    +0.000 C 
ATOM     12  C   UNL     1      42.515   9.582  10.644  0.00  0.00    +0.000 C 
ATOM     13  C   UNL     1      44.383   7.366  11.373  0.00  0.00    +0.000 A 
ENDBRANCH   1   2
BRANCH   1  14
ATOM     14  S   UNL     1      43.801   4.632  10.420  0.00  0.00    +0.000 S 
BRANCH  14  18
ATOM     15  C   UNL     1      46.600   2.413   7.499  0.00  0.00    +0.000 A 
ATOM     16  C   UNL     1      45.882   1.663   8.439  0.00  0.00    +0.000 A 
ATOM     17  C   UNL     1      45.017   2.300   9.343  0.00  0.00    +0.000 A 
ATOM     18  C   UNL     1      44.857   3.690   9.323  0.00  0.00    +0.000 A 
ATOM     19  C   UNL     1      45.582   4.429   8.376  0.00  0.00    +0.000 A 
ATOM     20  C   UNL     1      46.450   3.800   7.475  0.00  0.00    +0.000 A 
BRANCH  15  22
ATOM     21  N   UNL     1      48.709   2.471   6.278  0.00  0.00    +0.000 N 
ATOM     22  C   UNL     1      47.554   1.789   6.545  0.00  0.00    +0.000 C 
ATOM     23  O   UNL     1      47.343   0.694   6.042  0.00  0.00    +0.000 OA
ATOM     24  H   UNL     1      49.391   1.982   5.713  0.00  0.00    +0.000 HD
ATOM     25  H   UNL     1      49.042   3.222   6.865  0.00  0.00    +0.000 HD
ENDBRANCH  15  22
ENDBRANCH  14  18
ENDBRANCH   1  14
TORSDOF 4
ENDMDL
MODEL 4
REMARK VINA RESULT:    -6.737      3.041      4.039
REMARK INTER + INTRA:          -8.804
REMARK INTER:                  -8.207
REMARK INTRA:                  -0.597
REMARK UNBOUND:                -0.492
REMARK  Name = 
REMARK  4 active torsions:
REMARK  status: ('A' for Active; 'I' for Inactive)
REMARK    1  A    between atoms: C_2  and  C_4
REMARK    2  A    between atoms: C_7  and  S_8
REMARK    3  A    between atoms: S_8  and  C_9
REMARK    4  A    between atoms: C_9  and  C_10
REMARK                            x       y       z     vdW  Elec       q    Type
REMARK                         _______ _______ _______ _____ _____    ______ ____
ROOT
ATOM      1  C   UNL     1      48.049   7.977  12.512  0.00  0.00    +0.000 C 
ENDROOT
BRANCH   1   2
ATOM      2  C   UNL     1      48.819   7.479  13.709  0.00  0.00    +0.000 A 
ATOM      3  C   UNL     1      50.134   7.867  13.945  0.00  0.00    +0.000 A 
ATOM      4  C   UNL     1      50.752   7.409  15.097  0.00  0.00    +0.000 A 
ATOM      5  N   UNL     1      50.160   6.608  16.014  0.00  0.00    +0.000 NA
ATOM      6  C   UNL     1      48.899   6.190  15.778  0.00  0.00    +0.000 A 
ATOM      7  N   UNL     1      48.258   5.394  16.703  0.00  0.00    +0.000 N 
ATOM      8  C   UNL     1      48.669   5.403  18.110  0.00  0.00    +0.000 C 
ATOM      9  C   UNL     1      49.210   4.038  18.556  0.00  0.00    +0.000 C 
ATOM     10  O   UNL     1      48.306   2.970  18.219  0.00  0.00    +0.000 OA
ATOM     11  C   UNL     1      48.113   2.928  16.798  0.00  0.00    +0.000 C 
ATOM     12  C   UNL     1      47.482   4.226  16.274  0.00  0.00    +0.000 C 
ATOM     13  C   UNL     1      48.218   6.611  14.630  0.00  0.00    +0.000 A 
ENDBRANCH   1   2
BRANCH   1  14
ATOM     14  S   UNL     1      46.262   8.062  12.849  0.00  0.00    +0.000 S 
BRANCH  14  18
ATOM     15  C   UNL     1      44.515   4.075  11.322  0.00  0.00    +0.000 A 
ATOM     16  C   UNL     1      45.097   4.949  10.396  0.00  0.00    +0.000 A 
ATOM     17  C   UNL     1      45.644   6.171  10.820  0.00  0.00    +0.000 A 
ATOM     18  C   UNL     1      45.616   6.536  12.171  0.00  0.00    +0.000 A 
ATOM     19  C   UNL     1      45.030   5.650  13.088  0.00  0.00    +0.000 A 
ATOM     20  C   UNL     1      44.480   4.433  12.670  0.00  0.00    +0.000 A 
BRANCH  15  22
ATOM     21  N   UNL     1      44.466   2.116   9.871  0.00  0.00    +0.000 N 
ATOM     22  C   UNL     1      43.893   2.786  10.917  0.00  0.00    +0.000 C 
ATOM     23  O   UNL     1      42.932   2.317  11.511  0.00  0.00    +0.000 OA
ATOM     24  H   UNL     1      44.096   1.193   9.682  0.00  0.00    +0.000 HD
ATOM     25  H   UNL     1      45.398   2.321   9.542  0.00  0.00    +0.000 HD
ENDBRANCH  15  22
ENDBRANCH  14  18
ENDBRANCH   1  14
TORSDOF 4
ENDMDL
MODEL 5
REMARK VINA RESULT:    -6.510      2.432      7.739
REMARK INTER + INTRA:          -8.524
REMARK INTER:                  -7.847
REMARK INTRA:                  -0.677
REMARK UNBOUND:                -0.492
REMARK  Name = 
REMARK  4 active torsions:
REMARK  status: ('A' for Active; 'I' for Inactive)
REMARK    1  A    between atoms: C_2  and  C_4
REMARK    2  A    between atoms: C_7  and  S_8
REMARK    3  A    between atoms: S_8  and  C_9
REMARK    4  A    between atoms: C_9  and  C_10
REMARK                            x       y       z     vdW  Elec       q    Type
REMARK                         _______ _______ _______ _____ _____    ______ ____
ROOT
ATOM      1  C   UNL     1      43.986   2.523  11.586  0.00  0.00    +0.000 C 
ENDROOT
BRANCH   1   2
ATOM      2  C   UNL     1      44.442   2.997  10.228  0.00  0.00    +0.000 A 
ATOM      3  C   UNL     1      43.888   4.121   9.624  0.00  0.00    +0.000 A 
ATOM      4  C   UNL     1      44.400   4.522   8.401  0.00  0.00    +0.000 A 
ATOM      5  N   UNL     1      45.408   3.894   7.752  0.00  0.00    +0.000 NA
ATOM      6  C   UNL     1      45.927   2.778   8.307  0.00  0.00    +0.000 A 
ATOM      7  N   UNL     1      46.971   2.128   7.685  0.00  0.00    +0.000 N 
ATOM      8  C   UNL     1      47.855   2.845   6.760  0.00  0.00    +0.000 C 
ATOM      9  C   UNL     1      47.762   2.287   5.333  0.00  0.00    +0.000 C 
ATOM     10  O   UNL     1      47.926   0.858   5.307  0.00  0.00    +0.000 OA
ATOM     11  C   UNL     1      46.899   0.237   6.095  0.00  0.00    +0.000 C 
ATOM     12  C   UNL     1      46.977   0.666   7.567  0.00  0.00    +0.000 C 
ATOM     13  C   UNL     1      45.452   2.315   9.538  0.00  0.00    +0.000 A 
ENDBRANCH   1   2
BRANCH   1  14
ATOM     14  S   UNL     1      43.462   3.911  12.641  0.00  0.00    +0.000 S 
BRANCH  14  18
ATOM     15  C   UNL     1      47.415   6.185  13.338  0.00  0.00    +0.000 A 
ATOM     16  C   UNL     1      46.366   6.850  12.692  0.00  0.00    +0.000 A 
ATOM     17  C   UNL     1      45.145   6.195  12.465  0.00  0.00    +0.000 A 
ATOM     18  C   UNL     1      44.956   4.870  12.875  0.00  0.00    +0.000 A 
ATOM     19  C   UNL     1      46.016   4.216  13.522  0.00  0.00    +0.000 A 
ATOM     20  C   UNL     1      47.237   4.863  13.747  0.00  0.00    +0.000 A 
BRANCH  15  22
ATOM     21  N   UNL     1      49.569   6.954  12.492  0.00  0.00    +0.000 N 
ATOM     22  C   UNL     1      48.737   6.824  13.571  0.00  0.00    +0.000 C 
ATOM     23  O   UNL     1      49.064   7.254  14.668  0.00  0.00    +0.000 OA
ATOM     24  H   UNL     1      50.415   7.486  12.647  0.00  0.00    +0.000 HD
ATOM     25  H   UNL     1      49.239   6.869  11.541  0.00  0.00    +0.000 HD
ENDBRANCH  15  22
ENDBRANCH  14  18
ENDBRANCH   1  14
TORSDOF 4
ENDMDL
MODEL 6
REMARK VINA RESULT:    -6.362      3.742      8.293
REMARK INTER + INTRA:          -8.341
REMARK INTER:                  -7.993
REMARK INTRA:                  -0.348
REMARK UNBOUND:                -0.492
REMARK  Name = 
REMARK  4 active torsions:
REMARK  status: ('A' for Active; 'I' for Inactive)
REMARK    1  A    between atoms: C_2  and  C_4
REMARK    2  A    between atoms: C_7  and  S_8
REMARK    3  A    between atoms: S_8  and  C_9
REMARK    4  A    between atoms: C_9  and  C_10
REMARK                            x       y       z     vdW  Elec       q    Type
REMARK                         _______ _______ _______ _____ _____    ______ ____
ROOT
ATOM      1  C   UNL     1      48.987   6.805  14.955  0.00  0.00    +0.000 C 
ENDROOT
BRANCH   1   2
ATOM      2  C   UNL     1      47.815   7.009  14.027  0.00  0.00    +0.000 A 
ATOM      3  C   UNL     1      47.318   8.277  13.746  0.00  0.00    +0.000 A 
ATOM      4  C   UNL     1      46.275   8.382  12.841  0.00  0.00    +0.000 A 
ATOM      5  N   UNL     1      45.704   7.331  12.208  0.00  0.00    +0.000 NA
ATOM      6  C   UNL     1      46.149   6.092  12.502  0.00  0.00    +0.000 A 
ATOM      7  N   UNL     1      45.607   5.000  11.857  0.00  0.00    +0.000 N 
ATOM      8  C   UNL     1      44.965   5.149  10.547  0.00  0.00    +0.000 C 
ATOM      9  C   UNL     1      43.471   4.801  10.601  0.00  0.00    +0.000 C 
ATOM     10  O   UNL     1      43.242   3.524  11.222  0.00  0.00    +0.000 OA
ATOM     11  C   UNL     1      43.742   3.541  12.566  0.00  0.00    +0.000 C 
ATOM     12  C   UNL     1      45.258   3.788  12.603  0.00  0.00    +0.000 C 
ATOM     13  C   UNL     1      47.197   5.913  13.412  0.00  0.00    +0.000 A 
ENDBRANCH   1   2
BRANCH   1  14
ATOM     14  S   UNL     1      48.451   6.233  16.598  0.00  0.00    +0.000 S 
BRANCH  14  18
ATOM     15  C   UNL     1      51.313   2.771  17.650  0.00  0.00    +0.000 A 
ATOM     16  C   UNL     1      51.826   4.074  17.605  0.00  0.00    +0.000 A 
ATOM     17  C   UNL     1      50.987   5.156  17.293  0.00  0.00    +0.000 A 
ATOM     18  C   UNL     1      49.629   4.953  17.021  0.00  0.00    +0.000 A 
ATOM     19  C   UNL     1      49.129   3.643  17.070  0.00  0.00    +0.000 A 
ATOM     20  C   UNL     1      49.962   2.560  17.376  0.00  0.00    +0.000 A 
BRANCH  15  22
ATOM     21  N   UNL     1      51.547   0.376  18.037  0.00  0.00    +0.000 N 
ATOM     22  C   UNL     1      52.168   1.590  17.942  0.00  0.00    +0.000 C 
ATOM     23  O   UNL     1      53.383   1.683  18.057  0.00  0.00    +0.000 OA
ATOM     24  H   UNL     1      52.156  -0.428  18.128  0.00  0.00    +0.000 HD
ATOM     25  H   UNL     1      50.614   0.216  17.684  0.00  0.00    +0.000 HD
ENDBRANCH  15  22
ENDBRANCH  14  18
ENDBRANCH   1  14
TORSDOF 4
ENDMDL
MODEL 7
REMARK VINA RESULT:    -6.139      3.925      8.608
REMARK INTER + INTRA:          -8.066
REMARK INTER:                  -7.708
REMARK INTRA:                  -0.358
REMARK UNBOUND:                -0.492
REMARK  Name = 
REMARK  4 active torsions:
REMARK  status: ('A' for Active; 'I' for Inactive)
REMARK    1  A    between atoms: C_2  and  C_4
REMARK    2  A    between atoms: C_7  and  S_8
REMARK    3  A    between atoms: S_8  and  C_9
REMARK    4  A    between atoms: C_9  and  C_10
REMARK                            x       y       z     vdW  Elec       q    Type
REMARK                         _______ _______ _______ _____ _____    ______ ____
ROOT
ATOM      1  C   UNL     1      47.854   4.430  16.654  0.00  0.00    +0.000 C 
ENDROOT
BRANCH   1   2
ATOM      2  C   UNL     1      47.513   5.040  15.318  0.00  0.00    +0.000 A 
ATOM      3  C   UNL     1      48.233   6.111  14.799  0.00  0.00    +0.000 A 
ATOM      4  C   UNL     1      47.892   6.577  13.540  0.00  0.00    +0.000 A 
ATOM      5  N   UNL     1      46.902   6.058  12.776  0.00  0.00    +0.000 NA
ATOM      6  C   UNL     1      46.168   5.046  13.284  0.00  0.00    +0.000 A 
ATOM      7  N   UNL     1      45.169   4.479  12.523  0.00  0.00    +0.000 N 
ATOM      8  C   UNL     1      45.203   4.565  11.059  0.00  0.00    +0.000 C 
ATOM      9  C   UNL     1      44.014   5.364  10.508  0.00  0.00    +0.000 C 
ATOM     10  O   UNL     1      42.762   4.892  11.036  0.00  0.00    +0.000 OA
ATOM     11  C   UNL     1      42.758   5.021  12.465  0.00  0.00    +0.000 C 
ATOM     12  C   UNL     1      43.862   4.173  13.113  0.00  0.00    +0.000 C 
ATOM     13  C   UNL     1      46.456   4.531  14.552  0.00  0.00    +0.000 A 
ENDBRANCH   1   2
BRANCH   1  14
ATOM     14  S   UNL     1      49.387   5.132  17.341  0.00  0.00    +0.000 S 
BRANCH  14  18
ATOM     15  C   UNL     1      52.404   1.665  17.747  0.00  0.00    +0.000 A 
ATOM     16  C   UNL     1      51.114   1.379  17.286  0.00  0.00    +0.000 A 
ATOM     17  C   UNL     1      50.167   2.406  17.144  0.00  0.00    +0.000 A 
ATOM     18  C   UNL     1      50.494   3.729  17.462  0.00  0.00    +0.000 A 
ATOM     19  C   UNL     1      51.791   4.002  17.922  0.00  0.00    +0.000 A 
ATOM     20  C   UNL     1      52.737   2.981  18.070  0.00  0.00    +0.000 A 
BRANCH  15  22
ATOM     21  N   UNL     1      53.014  -0.573  18.498  0.00  0.00    +0.000 N 
ATOM     22  C   UNL     1      53.430   0.608  17.946  0.00  0.00    +0.000 C 
ATOM     23  O   UNL     1      54.593   0.761  17.600  0.00  0.00    +0.000 OA
ATOM     24  H   UNL     1      53.701  -1.315  18.525  0.00  0.00    +0.000 HD
ATOM     25  H   UNL     1      52.040  -0.836  18.540  0.00  0.00    +0.000 HD
ENDBRANCH  15  22
ENDBRANCH  14  18
ENDBRANCH   1  14
TORSDOF 4
ENDMDL
MODEL 8
REMARK VINA RESULT:    -5.860      3.506      4.594
REMARK INTER + INTRA:          -7.722
REMARK INTER:                  -7.226
REMARK INTRA:                  -0.495
REMARK UNBOUND:                -0.492
REMARK  Name = 
REMARK  4 active torsions:
REMARK  status: ('A' for Active; 'I' for Inactive)
REMARK    1  A    between atoms: C_2  and  C_4
REMARK    2  A    between atoms: C_7  and  S_8
REMARK    3  A    between atoms: S_8  and  C_9
REMARK    4  A    between atoms: C_9  and  C_10
REMARK                            x       y       z     vdW  Elec       q    Type
REMARK                         _______ _______ _______ _____ _____    ______ ____
ROOT
ATOM      1  C   UNL     1      49.265   7.252  13.378  0.00  0.00    +0.000 C 
ENDROOT
BRANCH   1   2
ATOM      2  C   UNL     1      49.006   7.606  14.821  0.00  0.00    +0.000 A 
ATOM      3  C   UNL     1      48.861   8.927  15.233  0.00  0.00    +0.000 A 
ATOM      4  C   UNL     1      48.571   9.165  16.567  0.00  0.00    +0.000 A 
ATOM      5  N   UNL     1      48.416   8.197  17.499  0.00  0.00    +0.000 NA
ATOM      6  C   UNL     1      48.594   6.914  17.122  0.00  0.00    +0.000 A 
ATOM      7  N   UNL     1      48.419   5.901  18.041  0.00  0.00    +0.000 N 
ATOM      8  C   UNL     1      47.577   6.102  19.225  0.00  0.00    +0.000 C 
ATOM      9  C   UNL     1      48.388   6.001  20.524  0.00  0.00    +0.000 C 
ATOM     10  O   UNL     1      49.180   4.801  20.568  0.00  0.00    +0.000 OA
ATOM     11  C   UNL     1      50.102   4.787  19.468  0.00  0.00    +0.000 C 
ATOM     12  C   UNL     1      49.371   4.788  18.117  0.00  0.00    +0.000 C 
ATOM     13  C   UNL     1      48.894   6.603  15.791  0.00  0.00    +0.000 A 
ENDBRANCH   1   2
BRANCH   1  14
ATOM     14  S   UNL     1      47.924   7.835  12.292  0.00  0.00    +0.000 S 
BRANCH  14  18
ATOM     15  C   UNL     1      45.035   4.284  11.726  0.00  0.00    +0.000 A 
ATOM     16  C   UNL     1      45.795   4.348  12.901  0.00  0.00    +0.000 A 
ATOM     17  C   UNL     1      46.683   5.415  13.114  0.00  0.00    +0.000 A 
ATOM     18  C   UNL     1      46.826   6.428  12.159  0.00  0.00    +0.000 A 
ATOM     19  C   UNL     1      46.058   6.351  10.987  0.00  0.00    +0.000 A 
ATOM     20  C   UNL     1      45.175   5.288  10.768  0.00  0.00    +0.000 A 
BRANCH  15  22
ATOM     21  N   UNL     1      43.709   2.390  12.500  0.00  0.00    +0.000 N 
ATOM     22  C   UNL     1      44.108   3.157  11.440  0.00  0.00    +0.000 C 
ATOM     23  O   UNL     1      43.683   2.939  10.314  0.00  0.00    +0.000 OA
ATOM     24  H   UNL     1      42.996   1.699  12.303  0.00  0.00    +0.000 HD
ATOM     25  H   UNL     1      43.810   2.695  13.458  0.00  0.00    +0.000 HD
ENDBRANCH  15  22
ENDBRANCH  14  18
ENDBRANCH   1  14
TORSDOF 4
ENDMDL
MODEL 9
REMARK VINA RESULT:    -5.674      6.562      8.783
REMARK INTER + INTRA:          -7.492
REMARK INTER:                  -6.952
REMARK INTRA:                  -0.541
REMARK UNBOUND:                -0.492
REMARK  Name = 
REMARK  4 active torsions:
REMARK  status: ('A' for Active; 'I' for Inactive)
REMARK    1  A    between atoms: C_2  and  C_4
REMARK    2  A    between atoms: C_7  and  S_8
REMARK    3  A    between atoms: S_8  and  C_9
REMARK    4  A    between atoms: C_9  and  C_10
REMARK                            x       y       z     vdW  Elec       q    Type
REMARK                         _______ _______ _______ _____ _____    ______ ____
ROOT
ATOM      1  C   UNL     1      45.222  10.781  11.767  0.00  0.00    +0.000 C 
ENDROOT
BRANCH   1   2
ATOM      2  C   UNL     1      45.762   9.387  11.972  0.00  0.00    +0.000 A 
ATOM      3  C   UNL     1      47.118   9.152  12.170  0.00  0.00    +0.000 A 
ATOM      4  C   UNL     1      47.526   7.849  12.406  0.00  0.00    +0.000 A 
ATOM      5  N   UNL     1      46.691   6.786  12.459  0.00  0.00    +0.000 NA
ATOM      6  C   UNL     1      45.378   6.993  12.227  0.00  0.00    +0.000 A 
ATOM      7  N   UNL     1      44.496   5.936  12.298  0.00  0.00    +0.000 N 
ATOM      8  C   UNL     1      44.819   4.744  13.088  0.00  0.00    +0.000 C 
ATOM      9  C   UNL     1      44.941   3.492  12.208  0.00  0.00    +0.000 C 
ATOM     10  O   UNL     1      43.799   3.330  11.348  0.00  0.00    +0.000 OA
ATOM     11  C   UNL     1      43.677   4.469  10.485  0.00  0.00    +0.000 C 
ATOM     12  C   UNL     1      43.453   5.763  11.281  0.00  0.00    +0.000 C 
ATOM     13  C   UNL     1      44.899   8.284  11.977  0.00  0.00    +0.000 A 
ENDBRANCH   1   2
BRANCH   1  14
ATOM     14  S   UNL     1      44.141  10.874  10.305  0.00  0.00    +0.000 S 
BRANCH  14  18
ATOM     15  C   UNL     1      39.862  11.245  11.989  0.00  0.00    +0.000 A 
ATOM     16  C   UNL     1      40.763  12.293  12.213  0.00  0.00    +0.000 A 
ATOM     17  C   UNL     1      42.073  12.222  11.713  0.00  0.00    +0.000 A 
ATOM     18  C   UNL     1      42.502  11.105  10.987  0.00  0.00    +0.000 A 
ATOM     19  C   UNL     1      41.589  10.062  10.770  0.00  0.00    +0.000 A 
ATOM     20  C   UNL     1      40.283  10.126  11.269  0.00  0.00    +0.000 A 
BRANCH  15  22
ATOM     21  N   UNL     1      37.587  10.370  11.989  0.00  0.00    +0.000 N 
ATOM     22  C   UNL     1      38.476  11.260  12.526  0.00  0.00    +0.000 C 
ATOM     23  O   UNL     1      38.142  12.006  13.437  0.00  0.00    +0.000 OA
ATOM     24  H   UNL     1      36.682  10.320  12.441  0.00  0.00    +0.000 HD
ATOM     25  H   UNL     1      37.882   9.570  11.448  0.00  0.00    +0.000 HD
ENDBRANCH  15  22
ENDBRANCH  14  18
ENDBRANCH   1  14
TORSDOF 4
ENDMDL
