MODEL 1
REMARK VINA RESULT:    -7.323      0.000      0.000
REMARK INTER + INTRA:         -11.014
REMARK INTER:                  -9.463
REMARK INTRA:                  -1.551
REMARK UNBOUND:                -1.551
REMARK  Name = 
REMARK  5 active torsions:
REMARK  status: ('A' for Active; 'I' for Inactive)
REMARK    1  A    between atoms: C_2  and  C_5
REMARK    2  A    between atoms: C_10  and  O_11
REMARK    3  A    between atoms: O_11  and  C_12
REMARK    4  A    between atoms: C_12  and  C_13
REMARK    5  A    between atoms: C_17  and  C_18
REMARK                            x       y       z     vdW  Elec       q    Type
REMARK                         _______ _______ _______ _____ _____    ______ ____
ROOT
ATOM      1  C   UNL     1      45.312   6.234  11.672  0.00  0.00    +0.000 C 
ATOM      2  C   UNL     1      44.657   7.513  11.119  0.00  0.00    +0.000 C 
ATOM      3  C   UNL     1      44.355   7.060  12.500  0.00  0.00    +0.000 C 
ENDROOT
BRANCH   1   4
ATOM      4  C   UNL     1      44.867   4.937  11.017  0.00  0.00    +0.000 A 
ATOM      5  C   UNL     1      43.825   4.164  11.531  0.00  0.00    +0.000 A 
ATOM      6  C   UNL     1      43.538   2.945  10.942  0.00  0.00    +0.000 A 
ATOM      7  N   UNL     1      44.183   2.454   9.864  0.00  0.00    +0.000 NA
ATOM      8  C   UNL     1      45.193   3.198   9.338  0.00  0.00    +0.000 A 
ATOM      9  C   UNL     1      45.547   4.426   9.899  0.00  0.00    +0.000 A 
BRANCH   8  10
ATOM     10  C   UNL     1      45.908   2.630   8.170  0.00  0.00    +0.000 A 
ATOM     11  C   UNL     1      46.136   3.374   7.010  0.00  0.00    +0.000 A 
ATOM     12  C   UNL     1      46.788   2.785   5.929  0.00  0.00    +0.000 A 
ATOM     13  C   UNL     1      47.204   1.466   6.026  0.00  0.00    +0.000 A 
ATOM     14  C   UNL     1      46.957   0.785   7.206  0.00  0.00    +0.000 A 
ATOM     15  N   UNL     1      46.325   1.336   8.271  0.00  0.00    +0.000 NA
ENDBRANCH   8  10
ENDBRANCH   1   4
BRANCH   1  16
ATOM     16  O   UNL     1      46.743   6.376  11.719  0.00  0.00    +0.000 OA
BRANCH  16  22
ATOM     17  C   UNL     1      47.613   5.800  14.001  0.00  0.00    +0.000 A 
ATOM     18  C   UNL     1      48.566   6.205  14.976  0.00  0.00    +0.000 A 
ATOM     19  C   UNL     1      49.485   7.227  14.737  0.00  0.00    +0.000 A 
ATOM     20  C   UNL     1      49.476   7.869  13.511  0.00  0.00    +0.000 A 
ATOM     21  C   UNL     1      48.500   7.537  12.575  0.00  0.00    +0.000 A 
ATOM     22  C   UNL     1      47.536   6.535  12.816  0.00  0.00    +0.000 A 
BRANCH  17  24
ATOM     23  F   UNL     1      45.540   4.678  14.426  0.00  0.00    +0.000 F 
ATOM     24  C   UNL     1      46.889   4.508  14.264  0.00  0.00    +0.000 C 
ATOM     25  F   UNL     1      47.297   3.904  15.415  0.00  0.00    +0.000 F 
ATOM     26  F   UNL     1      46.994   3.580  13.281  0.00  0.00    +0.000 F 
ENDBRANCH  17  24
ENDBRANCH  16  22
ENDBRANCH   1  16
TORSDOF 5
ENDMDL
MODEL 2
REMARK VINA RESULT:    -7.045      2.251      2.997
REMARK INTER + INTRA:         -10.655
REMARK INTER:                  -9.204
REMARK INTRA:                  -1.452
REMARK UNBOUND:                -1.551
REMARK  Name = 
REMARK  5 active torsions:
REMARK  status: ('A' for Active; 'I' for Inactive)
REMARK    1  A    between atoms: C_2  and  C_5
REMARK    2  A    between atoms: C_10  and  O_11
REMARK    3  A    between atoms: O_11  and  C_12
REMARK    4  A    between atoms: C_12  and  C_13
REMARK    5  A    between atoms: C_17  and  C_18
REMARK                            x       y       z     vdW  Elec       q    Type
REMARK                         _______ _______ _______ _____ _____    ______ ____
ROOT
ATOM      1  C   UNL     1      46.200   7.219  12.461  0.00  0.00    +0.000 C 
ATOM      2  C   UNL     1      46.521   8.616  11.897  0.00  0.00    +0.000 C 
ATOM      3  C   UNL     1      45.685   8.481  13.116  0.00  0.00    +0.000 C 
ENDROOT
BRANCH   1   4
ATOM      4  C   UNL     1      45.295   6.358  11.596  0.00  0.00    +0.000 A 
ATOM      5  C   UNL     1      43.912   6.322  11.773  0.00  0.00    +0.000 A 
ATOM      6  C   UNL     1      43.159   5.441  11.016  0.00  0.00    +0.000 A 
ATOM      7  N   UNL     1      43.672   4.620  10.077  0.00  0.00    +0.000 NA
ATOM      8  C   UNL     1      45.017   4.648   9.877  0.00  0.00    +0.000 A 
ATOM      9  C   UNL     1      45.834   5.499  10.624  0.00  0.00    +0.000 A 
BRANCH   8  10
ATOM     10  C   UNL     1      45.565   3.721   8.860  0.00  0.00    +0.000 A 
ATOM     11  C   UNL     1      45.555   2.336   9.041  0.00  0.00    +0.000 A 
ATOM     12  C   UNL     1      46.109   1.509   8.067  0.00  0.00    +0.000 A 
ATOM     13  C   UNL     1      46.660   2.077   6.928  0.00  0.00    +0.000 A 
ATOM     14  C   UNL     1      46.631   3.456   6.804  0.00  0.00    +0.000 A 
ATOM     15  N   UNL     1      46.097   4.282   7.737  0.00  0.00    +0.000 NA
ENDBRANCH   8  10
ENDBRANCH   1   4
BRANCH   1  16
ATOM     16  O   UNL     1      47.405   6.542  12.858  0.00  0.00    +0.000 OA
BRANCH  16  22
ATOM     17  C   UNL     1      48.493   6.738  15.111  0.00  0.00    +0.000 A 
ATOM     18  C   UNL     1      48.688   6.032  16.330  0.00  0.00    +0.000 A 
ATOM     19  C   UNL     1      48.080   4.803  16.583  0.00  0.00    +0.000 A 
ATOM     20  C   UNL     1      47.255   4.247  15.619  0.00  0.00    +0.000 A 
ATOM     21  C   UNL     1      47.115   4.888  14.391  0.00  0.00    +0.000 A 
ATOM     22  C   UNL     1      47.757   6.111  14.102  0.00  0.00    +0.000 A 
BRANCH  17  24
ATOM     23  F   UNL     1      49.983   8.416  15.950  0.00  0.00    +0.000 F 
ATOM     24  C   UNL     1      48.954   8.169  15.080  0.00  0.00    +0.000 C 
ATOM     25  F   UNL     1      47.977   9.042  15.453  0.00  0.00    +0.000 F 
ATOM     26  F   UNL     1      49.420   8.598  13.881  0.00  0.00    +0.000 F 
ENDBRANCH  17  24
ENDBRANCH  16  22
ENDBRANCH   1  16
TORSDOF 5
ENDMDL
MODEL 3
REMARK VINA RESULT:    -6.850      3.278      4.652
REMARK INTER + INTRA:         -10.403
REMARK INTER:                  -9.173
REMARK INTRA:                  -1.230
REMARK UNBOUND:                -1.551
REMARK  Name = 
REMARK  5 active torsions:
REMARK  status: ('A' for Active; 'I' for Inactive)
REMARK    1  A    between atoms: C_2  and  C_5
REMARK    2  A    between atoms: C_10  and  O_11
REMARK    3  A    between atoms: O_11  and  C_12
REMARK    4  A    between atoms: C_12  and  C_13
REMARK    5  A    between atoms: C_17  and  C_18
REMARK                            x       y       z     vdW  Elec       q    Type
REMARK                         _______ _______ _______ _____ _____    ______ ____
ROOT
ATOM      1  C   UNL     1      46.087   7.411  12.087  0.00  0.00    +0.000 C 
ATOM      2  C   UNL     1      46.861   6.867  13.302  0.00  0.00    +0.000 C 
ATOM      3  C   UNL     1      47.595   7.310  12.091  0.00  0.00    +0.000 C 
ENDROOT
BRANCH   1   4
ATOM      4  C   UNL     1      45.234   6.393  11.347  0.00  0.00    +0.000 A 
ATOM      5  C   UNL     1      43.890   6.186  11.656  0.00  0.00    +0.000 A 
ATOM      6  C   UNL     1      43.199   5.174  11.011  0.00  0.00    +0.000 A 
ATOM      7  N   UNL     1      43.733   4.380  10.060  0.00  0.00    +0.000 NA
ATOM      8  C   UNL     1      45.039   4.574   9.733  0.00  0.00    +0.000 A 
ATOM      9  C   UNL     1      45.797   5.563  10.363  0.00  0.00    +0.000 A 
BRANCH   8  10
ATOM     10  C   UNL     1      45.616   3.675   8.706  0.00  0.00    +0.000 A 
ATOM     11  C   UNL     1      45.673   2.291   8.884  0.00  0.00    +0.000 A 
ATOM     12  C   UNL     1      46.251   1.492   7.900  0.00  0.00    +0.000 A 
ATOM     13  C   UNL     1      46.759   2.087   6.755  0.00  0.00    +0.000 A 
ATOM     14  C   UNL     1      46.664   3.463   6.635  0.00  0.00    +0.000 A 
ATOM     15  N   UNL     1      46.105   4.262   7.577  0.00  0.00    +0.000 NA
ENDBRANCH   8  10
ENDBRANCH   1   4
BRANCH   1  16
ATOM     16  O   UNL     1      45.360   8.600  12.439  0.00  0.00    +0.000 OA
BRANCH  16  22
ATOM     17  C   UNL     1      46.042  10.824  11.496  0.00  0.00    +0.000 A 
ATOM     18  C   UNL     1      45.591  11.870  10.645  0.00  0.00    +0.000 A 
ATOM     19  C   UNL     1      44.396  11.785   9.931  0.00  0.00    +0.000 A 
ATOM     20  C   UNL     1      43.620  10.644  10.049  0.00  0.00    +0.000 A 
ATOM     21  C   UNL     1      44.009   9.645  10.938  0.00  0.00    +0.000 A 
ATOM     22  C   UNL     1      45.193   9.733  11.699  0.00  0.00    +0.000 A 
BRANCH  17  24
ATOM     23  F   UNL     1      47.917  12.195  12.081  0.00  0.00    +0.000 F 
ATOM     24  C   UNL     1      47.468  10.907  11.968  0.00  0.00    +0.000 C 
ATOM     25  F   UNL     1      48.340  10.316  11.104  0.00  0.00    +0.000 F 
ATOM     26  F   UNL     1      47.703  10.363  13.188  0.00  0.00    +0.000 F 
ENDBRANCH  17  24
ENDBRANCH  16  22
ENDBRANCH   1  16
TORSDOF 5
ENDMDL
MODEL 4
REMARK VINA RESULT:    -6.661      3.389      4.647
REMARK INTER + INTRA:         -10.159
REMARK INTER:                  -9.287
REMARK INTRA:                  -0.871
REMARK UNBOUND:                -1.551
REMARK  Name = 
REMARK  5 active torsions:
REMARK  status: ('A' for Active; 'I' for Inactive)
REMARK    1  A    between atoms: C_2  and  C_5
REMARK    2  A    between atoms: C_10  and  O_11
REMARK    3  A    between atoms: O_11  and  C_12
REMARK    4  A    between atoms: C_12  and  C_13
REMARK    5  A    between atoms: C_17  and  C_18
REMARK                            x       y       z     vdW  Elec       q    Type
REMARK                         _______ _______ _______ _____ _____    ______ ____
ROOT
ATOM      1  C   UNL     1      45.896   7.504  11.967  0.00  0.00    +0.000 C 
ATOM      2  C   UNL     1      46.607   7.083  13.266  0.00  0.00    +0.000 C 
ATOM      3  C   UNL     1      47.402   7.437  12.064  0.00  0.00    +0.000 C 
ENDROOT
BRANCH   1   4
ATOM      4  C   UNL     1      45.104   6.408  11.272  0.00  0.00    +0.000 A 
ATOM      5  C   UNL     1      43.771   6.141  11.585  0.00  0.00    +0.000 A 
ATOM      6  C   UNL     1      43.141   5.065  10.984  0.00  0.00    +0.000 A 
ATOM      7  N   UNL     1      43.724   4.257  10.074  0.00  0.00    +0.000 NA
ATOM      8  C   UNL     1      45.019   4.508   9.743  0.00  0.00    +0.000 A 
ATOM      9  C   UNL     1      45.717   5.565  10.330  0.00  0.00    +0.000 A 
BRANCH   8  10
ATOM     10  C   UNL     1      45.651   3.595   8.761  0.00  0.00    +0.000 A 
ATOM     11  C   UNL     1      46.269   4.070   7.603  0.00  0.00    +0.000 A 
ATOM     12  C   UNL     1      46.823   3.169   6.697  0.00  0.00    +0.000 A 
ATOM     13  C   UNL     1      46.754   1.809   6.965  0.00  0.00    +0.000 A 
ATOM     14  C   UNL     1      46.136   1.403   8.135  0.00  0.00    +0.000 A 
ATOM     15  N   UNL     1      45.590   2.260   9.032  0.00  0.00    +0.000 NA
ENDBRANCH   8  10
ENDBRANCH   1   4
BRANCH   1  16
ATOM     16  O   UNL     1      45.129   8.703  12.172  0.00  0.00    +0.000 OA
BRANCH  16  22
ATOM     17  C   UNL     1      44.216  10.505  10.683  0.00  0.00    +0.000 A 
ATOM     18  C   UNL     1      44.566  11.737  10.066  0.00  0.00    +0.000 A 
ATOM     19  C   UNL     1      45.785  12.370  10.307  0.00  0.00    +0.000 A 
ATOM     20  C   UNL     1      46.688  11.785  11.178  0.00  0.00    +0.000 A 
ATOM     21  C   UNL     1      46.393  10.541  11.730  0.00  0.00    +0.000 A 
ATOM     22  C   UNL     1      45.183   9.866  11.464  0.00  0.00    +0.000 A 
BRANCH  17  24
ATOM     23  F   UNL     1      42.009  10.544  11.613  0.00  0.00    +0.000 F 
ATOM     24  C   UNL     1      42.776  10.083  10.576  0.00  0.00    +0.000 C 
ATOM     25  F   UNL     1      42.623   8.730  10.614  0.00  0.00    +0.000 F 
ATOM     26  F   UNL     1      42.131  10.515   9.465  0.00  0.00    +0.000 F 
ENDBRANCH  17  24
ENDBRANCH  16  22
ENDBRANCH   1  16
TORSDOF 5
ENDMDL
MODEL 5
REMARK VINA RESULT:    -6.405      2.777      4.821
REMARK INTER + INTRA:          -9.827
REMARK INTER:                  -8.581
REMARK INTRA:                  -1.246
REMARK UNBOUND:                -1.551
REMARK  Name = 
REMARK  5 active torsions:
REMARK  status: ('A' for Active; 'I' for Inactive)
REMARK    1  A    between atoms: C_2  and  C_5
REMARK    2  A    between atoms: C_10  and  O_11
REMARK    3  A    between atoms: O_11  and  C_12
REMARK    4  A    between atoms: C_12  and  C_13
REMARK    5  A    between atoms: C_17  and  C_18
REMARK                            x       y       z     vdW  Elec       q    Type
REMARK                         _______ _______ _______ _____ _____    ______ ____
ROOT
ATOM      1  C   UNL     1      48.899   7.324  14.393  0.00  0.00    +0.000 C 
ATOM      2  C   UNL     1      50.152   7.423  13.504  0.00  0.00    +0.000 C 
ATOM      3  C   UNL     1      49.827   8.515  14.455  0.00  0.00    +0.000 C 
ENDROOT
BRANCH   1   4
ATOM      4  C   UNL     1      47.570   7.400  13.659  0.00  0.00    +0.000 A 
ATOM      5  C   UNL     1      46.876   8.600  13.501  0.00  0.00    +0.000 A 
ATOM      6  C   UNL     1      45.625   8.581  12.909  0.00  0.00    +0.000 A 
ATOM      7  N   UNL     1      45.029   7.468  12.434  0.00  0.00    +0.000 NA
ATOM      8  C   UNL     1      45.694   6.289  12.564  0.00  0.00    +0.000 A 
ATOM      9  C   UNL     1      46.950   6.238  13.172  0.00  0.00    +0.000 A 
BRANCH   8  10
ATOM     10  C   UNL     1      45.012   5.074  12.060  0.00  0.00    +0.000 A 
ATOM     11  C   UNL     1      45.099   4.679  10.723  0.00  0.00    +0.000 A 
ATOM     12  C   UNL     1      44.416   3.544  10.293  0.00  0.00    +0.000 A 
ATOM     13  C   UNL     1      43.662   2.820  11.205  0.00  0.00    +0.000 A 
ATOM     14  C   UNL     1      43.624   3.258  12.518  0.00  0.00    +0.000 A 
ATOM     15  N   UNL     1      44.280   4.359  12.961  0.00  0.00    +0.000 NA
ENDBRANCH   8  10
ENDBRANCH   1   4
BRANCH   1  16
ATOM     16  O   UNL     1      48.988   6.189  15.272  0.00  0.00    +0.000 OA
BRANCH  16  22
ATOM     17  C   UNL     1      47.878   4.957  17.156  0.00  0.00    +0.000 A 
ATOM     18  C   UNL     1      47.437   5.116  18.498  0.00  0.00    +0.000 A 
ATOM     19  C   UNL     1      47.679   6.281  19.226  0.00  0.00    +0.000 A 
ATOM     20  C   UNL     1      48.373   7.318  18.628  0.00  0.00    +0.000 A 
ATOM     21  C   UNL     1      48.744   7.208  17.290  0.00  0.00    +0.000 A 
ATOM     22  C   UNL     1      48.470   6.054  16.526  0.00  0.00    +0.000 A 
BRANCH  17  24
ATOM     23  F   UNL     1      46.979   2.740  17.288  0.00  0.00    +0.000 F 
ATOM     24  C   UNL     1      47.820   3.564  16.589  0.00  0.00    +0.000 C 
ATOM     25  F   UNL     1      49.026   2.933  16.627  0.00  0.00    +0.000 F 
ATOM     26  F   UNL     1      47.380   3.483  15.309  0.00  0.00    +0.000 F 
ENDBRANCH  17  24
ENDBRANCH  16  22
ENDBRANCH   1  16
TORSDOF 5
ENDMDL
MODEL 6
REMARK VINA RESULT:    -6.001      3.699      7.177
REMARK INTER + INTRA:          -9.306
REMARK INTER:                  -7.672
REMARK INTRA:                  -1.634
REMARK UNBOUND:                -1.551
REMARK  Name = 
REMARK  5 active torsions:
REMARK  status: ('A' for Active; 'I' for Inactive)
REMARK    1  A    between atoms: C_2  and  C_5
REMARK    2  A    between atoms: C_10  and  O_11
REMARK    3  A    between atoms: O_11  and  C_12
REMARK    4  A    between atoms: C_12  and  C_13
REMARK    5  A    between atoms: C_17  and  C_18
REMARK                            x       y       z     vdW  Elec       q    Type
REMARK                         _______ _______ _______ _____ _____    ______ ____
ROOT
ATOM      1  C   UNL     1      45.736   7.948  12.389  0.00  0.00    +0.000 C 
ATOM      2  C   UNL     1      45.085   9.326  12.609  0.00  0.00    +0.000 C 
ATOM      3  C   UNL     1      45.249   8.791  11.234  0.00  0.00    +0.000 C 
ENDROOT
BRANCH   1   4
ATOM      4  C   UNL     1      47.216   7.863  12.730  0.00  0.00    +0.000 A 
ATOM      5  C   UNL     1      48.206   7.870  11.748  0.00  0.00    +0.000 A 
ATOM      6  C   UNL     1      49.527   7.689  12.123  0.00  0.00    +0.000 A 
ATOM      7  N   UNL     1      49.938   7.538  13.399  0.00  0.00    +0.000 NA
ATOM      8  C   UNL     1      48.990   7.543  14.374  0.00  0.00    +0.000 A 
ATOM      9  C   UNL     1      47.638   7.698  14.059  0.00  0.00    +0.000 A 
BRANCH   8  10
ATOM     10  C   UNL     1      49.457   7.349  15.767  0.00  0.00    +0.000 A 
ATOM     11  C   UNL     1      49.386   8.368  16.719  0.00  0.00    +0.000 A 
ATOM     12  C   UNL     1      49.865   8.144  18.007  0.00  0.00    +0.000 A 
ATOM     13  C   UNL     1      50.404   6.906  18.324  0.00  0.00    +0.000 A 
ATOM     14  C   UNL     1      50.437   5.934  17.339  0.00  0.00    +0.000 A 
ATOM     15  N   UNL     1      49.977   6.127  16.079  0.00  0.00    +0.000 NA
ENDBRANCH   8  10
ENDBRANCH   1   4
BRANCH   1  16
ATOM     16  O   UNL     1      44.958   6.913  13.014  0.00  0.00    +0.000 OA
BRANCH  16  22
ATOM     17  C   UNL     1      45.339   4.459  12.648  0.00  0.00    +0.000 A 
ATOM     18  C   UNL     1      44.768   3.313  12.031  0.00  0.00    +0.000 A 
ATOM     19  C   UNL     1      43.516   3.345  11.417  0.00  0.00    +0.000 A 
ATOM     20  C   UNL     1      42.800   4.530  11.408  0.00  0.00    +0.000 A 
ATOM     21  C   UNL     1      43.378   5.680  11.939  0.00  0.00    +0.000 A 
ATOM     22  C   UNL     1      44.661   5.675  12.527  0.00  0.00    +0.000 A 
BRANCH  17  24
ATOM     23  F   UNL     1      46.837   2.897  13.675  0.00  0.00    +0.000 F 
ATOM     24  C   UNL     1      46.540   4.225  13.523  0.00  0.00    +0.000 C 
ATOM     25  F   UNL     1      46.358   4.682  14.794  0.00  0.00    +0.000 F 
ATOM     26  F   UNL     1      47.695   4.777  13.075  0.00  0.00    +0.000 F 
ENDBRANCH  17  24
ENDBRANCH  16  22
ENDBRANCH   1  16
TORSDOF 5
ENDMDL
MODEL 7
REMARK VINA RESULT:    -5.997      3.031      7.245
REMARK INTER + INTRA:          -9.300
REMARK INTER:                  -9.040
REMARK INTRA:                  -0.260
REMARK UNBOUND:                -1.551
REMARK  Name = 
REMARK  5 active torsions:
REMARK  status: ('A' for Active; 'I' for Inactive)
REMARK    1  A    between atoms: C_2  and  C_5
REMARK    2  A    between atoms: C_10  and  O_11
REMARK    3  A    between atoms: O_11  and  C_12
REMARK    4  A    between atoms: C_12  and  C_13
REMARK    5  A    between atoms: C_17  and  C_18
REMARK                            x       y       z     vdW  Elec       q    Type
REMARK                         _______ _______ _______ _____ _____    ______ ____
ROOT
ATOM      1  C   UNL     1      47.020   6.724  12.158  0.00  0.00    +0.000 C 
ATOM      2  C   UNL     1      47.271   8.187  12.570  0.00  0.00    +0.000 C 
ATOM      3  C   UNL     1      48.187   7.517  11.614  0.00  0.00    +0.000 C 
ENDROOT
BRANCH   1   4
ATOM      4  C   UNL     1      47.215   5.693  13.257  0.00  0.00    +0.000 A 
ATOM      5  C   UNL     1      46.821   4.363  13.107  0.00  0.00    +0.000 A 
ATOM      6  C   UNL     1      46.938   3.501  14.184  0.00  0.00    +0.000 A 
ATOM      7  N   UNL     1      47.446   3.852  15.384  0.00  0.00    +0.000 NA
ATOM      8  C   UNL     1      47.850   5.141  15.547  0.00  0.00    +0.000 A 
ATOM      9  C   UNL     1      47.738   6.065  14.507  0.00  0.00    +0.000 A 
BRANCH   8  10
ATOM     10  C   UNL     1      48.381   5.514  16.879  0.00  0.00    +0.000 A 
ATOM     11  C   UNL     1      49.537   6.286  17.024  0.00  0.00    +0.000 A 
ATOM     12  C   UNL     1      50.011   6.586  18.299  0.00  0.00    +0.000 A 
ATOM     13  C   UNL     1      49.322   6.115  19.407  0.00  0.00    +0.000 A 
ATOM     14  C   UNL     1      48.179   5.363  19.196  0.00  0.00    +0.000 A 
ATOM     15  N   UNL     1      47.697   5.058  17.967  0.00  0.00    +0.000 NA
ENDBRANCH   8  10
ENDBRANCH   1   4
BRANCH   1  16
ATOM     16  O   UNL     1      45.754   6.596  11.488  0.00  0.00    +0.000 OA
BRANCH  16  22
ATOM     17  C   UNL     1      44.224   4.631  11.173  0.00  0.00    +0.000 A 
ATOM     18  C   UNL     1      43.918   3.579  10.268  0.00  0.00    +0.000 A 
ATOM     19  C   UNL     1      44.532   3.469   9.020  0.00  0.00    +0.000 A 
ATOM     20  C   UNL     1      45.471   4.415   8.645  0.00  0.00    +0.000 A 
ATOM     21  C   UNL     1      45.838   5.407   9.551  0.00  0.00    +0.000 A 
ATOM     22  C   UNL     1      45.257   5.508  10.833  0.00  0.00    +0.000 A 
BRANCH  17  24
ATOM     23  F   UNL     1      43.748   5.721  13.253  0.00  0.00    +0.000 F 
ATOM     24  C   UNL     1      43.292   4.808  12.341  0.00  0.00    +0.000 C 
ATOM     25  F   UNL     1      43.130   3.661  13.058  0.00  0.00    +0.000 F 
ATOM     26  F   UNL     1      42.048   5.245  12.023  0.00  0.00    +0.000 F 
ENDBRANCH  17  24
ENDBRANCH  16  22
ENDBRANCH   1  16
TORSDOF 5
ENDMDL
MODEL 8
REMARK VINA RESULT:    -5.789      3.780      6.003
REMARK INTER + INTRA:          -9.031
REMARK INTER:                  -7.705
REMARK INTRA:                  -1.326
REMARK UNBOUND:                -1.551
REMARK  Name = 
REMARK  5 active torsions:
REMARK  status: ('A' for Active; 'I' for Inactive)
REMARK    1  A    between atoms: C_2  and  C_5
REMARK    2  A    between atoms: C_10  and  O_11
REMARK    3  A    between atoms: O_11  and  C_12
REMARK    4  A    between atoms: C_12  and  C_13
REMARK    5  A    between atoms: C_17  and  C_18
REMARK                            x       y       z     vdW  Elec       q    Type
REMARK                         _______ _______ _______ _____ _____    ______ ____
ROOT
ATOM      1  C   UNL     1      49.337   7.339  15.938  0.00  0.00    +0.000 C 
ATOM      2  C   UNL     1      50.740   7.254  15.308  0.00  0.00    +0.000 C 
ATOM      3  C   UNL     1      49.750   8.230  14.789  0.00  0.00    +0.000 C 
ENDROOT
BRANCH   1   4
ATOM      4  C   UNL     1      48.446   6.129  15.712  0.00  0.00    +0.000 A 
ATOM      5  C   UNL     1      48.382   5.073  16.621  0.00  0.00    +0.000 A 
ATOM      6  C   UNL     1      47.625   3.957  16.305  0.00  0.00    +0.000 A 
ATOM      7  N   UNL     1      46.903   3.828  15.173  0.00  0.00    +0.000 NA
ATOM      8  C   UNL     1      46.940   4.852  14.279  0.00  0.00    +0.000 A 
ATOM      9  C   UNL     1      47.701   5.995  14.528  0.00  0.00    +0.000 A 
BRANCH   8  10
ATOM     10  C   UNL     1      46.162   4.681  13.029  0.00  0.00    +0.000 A 
ATOM     11  C   UNL     1      46.091   5.684  12.060  0.00  0.00    +0.000 A 
ATOM     12  C   UNL     1      45.322   5.485  10.915  0.00  0.00    +0.000 A 
ATOM     13  C   UNL     1      44.641   4.287  10.756  0.00  0.00    +0.000 A 
ATOM     14  C   UNL     1      44.759   3.329  11.748  0.00  0.00    +0.000 A 
ATOM     15  N   UNL     1      45.501   3.499  12.870  0.00  0.00    +0.000 NA
ENDBRANCH   8  10
ENDBRANCH   1   4
BRANCH   1  16
ATOM     16  O   UNL     1      49.424   7.719  17.322  0.00  0.00    +0.000 OA
BRANCH  16  22
ATOM     17  C   UNL     1      47.686   8.239  19.056  0.00  0.00    +0.000 A 
ATOM     18  C   UNL     1      46.941   9.314  19.614  0.00  0.00    +0.000 A 
ATOM     19  C   UNL     1      47.161  10.641  19.244  0.00  0.00    +0.000 A 
ATOM     20  C   UNL     1      48.137  10.927  18.306  0.00  0.00    +0.000 A 
ATOM     21  C   UNL     1      48.822   9.880  17.694  0.00  0.00    +0.000 A 
ATOM     22  C   UNL     1      48.583   8.529  18.025  0.00  0.00    +0.000 A 
BRANCH  17  24
ATOM     23  F   UNL     1      46.654   6.079  19.147  0.00  0.00    +0.000 F 
ATOM     24  C   UNL     1      47.565   6.907  19.745  0.00  0.00    +0.000 C 
ATOM     25  F   UNL     1      47.130   7.021  21.031  0.00  0.00    +0.000 F 
ATOM     26  F   UNL     1      48.706   6.175  19.786  0.00  0.00    +0.000 F 
ENDBRANCH  17  24
ENDBRANCH  16  22
ENDBRANCH   1  16
TORSDOF 5
ENDMDL
MODEL 9
REMARK VINA RESULT:    -5.735      3.846      6.250
REMARK INTER + INTRA:          -8.962
REMARK INTER:                  -7.423
REMARK INTRA:                  -1.540
REMARK UNBOUND:                -1.551
REMARK  Name = 
REMARK  5 active torsions:
REMARK  status: ('A' for Active; 'I' for Inactive)
REMARK    1  A    between atoms: C_2  and  C_5
REMARK    2  A    between atoms: C_10  and  O_11
REMARK    3  A    between atoms: O_11  and  C_12
REMARK    4  A    between atoms: C_12  and  C_13
REMARK    5  A    between atoms: C_17  and  C_18
REMARK                            x       y       z     vdW  Elec       q    Type
REMARK                         _______ _______ _______ _____ _____    ______ ____
ROOT
ATOM      1  C   UNL     1      45.729   8.066  12.460  0.00  0.00    +0.000 C 
ATOM      2  C   UNL     1      44.968   9.400  12.583  0.00  0.00    +0.000 C 
ATOM      3  C   UNL     1      45.238   8.818  11.245  0.00  0.00    +0.000 C 
ENDROOT
BRANCH   1   4
ATOM      4  C   UNL     1      47.191   8.109  12.873  0.00  0.00    +0.000 A 
ATOM      5  C   UNL     1      47.586   8.115  14.211  0.00  0.00    +0.000 A 
ATOM      6  C   UNL     1      48.929   8.255  14.516  0.00  0.00    +0.000 A 
ATOM      7  N   UNL     1      49.909   8.354  13.593  0.00  0.00    +0.000 NA
ATOM      8  C   UNL     1      49.547   8.336  12.282  0.00  0.00    +0.000 A 
ATOM      9  C   UNL     1      48.207   8.220  11.909  0.00  0.00    +0.000 A 
BRANCH   8  10
ATOM     10  C   UNL     1      50.634   8.473  11.284  0.00  0.00    +0.000 A 
ATOM     11  C   UNL     1      51.215   7.363  10.668  0.00  0.00    +0.000 A 
ATOM     12  C   UNL     1      52.254   7.543   9.757  0.00  0.00    +0.000 A 
ATOM     13  C   UNL     1      52.690   8.829   9.473  0.00  0.00    +0.000 A 
ATOM     14  C   UNL     1      52.066   9.888  10.110  0.00  0.00    +0.000 A 
ATOM     15  N   UNL     1      51.054   9.738  10.999  0.00  0.00    +0.000 NA
ENDBRANCH   8  10
ENDBRANCH   1   4
BRANCH   1  16
ATOM     16  O   UNL     1      44.998   7.004  13.098  0.00  0.00    +0.000 OA
BRANCH  16  22
ATOM     17  C   UNL     1      45.489   4.568  12.753  0.00  0.00    +0.000 A 
ATOM     18  C   UNL     1      44.968   3.390  12.151  0.00  0.00    +0.000 A 
ATOM     19  C   UNL     1      43.712   3.359  11.544  0.00  0.00    +0.000 A 
ATOM     20  C   UNL     1      42.942   4.510  11.528  0.00  0.00    +0.000 A 
ATOM     21  C   UNL     1      43.470   5.690  12.045  0.00  0.00    +0.000 A 
ATOM     22  C   UNL     1      44.756   5.749  12.624  0.00  0.00    +0.000 A 
BRANCH  17  24
ATOM     23  F   UNL     1      47.809   5.035  13.125  0.00  0.00    +0.000 F 
ATOM     24  C   UNL     1      46.705   4.397  13.623  0.00  0.00    +0.000 C 
ATOM     25  F   UNL     1      47.087   3.094  13.739  0.00  0.00    +0.000 F 
ATOM     26  F   UNL     1      46.581   4.878  14.884  0.00  0.00    +0.000 F 
ENDBRANCH  17  24
ENDBRANCH  16  22
ENDBRANCH   1  16
TORSDOF 5
ENDMDL
