MODEL 1
REMARK VINA RESULT:    -8.457      0.000      0.000
REMARK INTER + INTRA:         -13.422
REMARK INTER:                 -12.165
REMARK INTRA:                  -1.257
REMARK UNBOUND:                -1.257
REMARK  Name = 
REMARK  8 active torsions:
REMARK  status: ('A' for Active; 'I' for Inactive)
REMARK    1  A    between atoms: N_1  and  C_2
REMARK    2  A    between atoms: C_2  and  C_3
REMARK    3  A    between atoms: C_2  and  C_24
REMARK    4  A    between atoms: C_3  and  C_4
REMARK    5  A    between atoms: C_8  and  C_9
REMARK    6  A    between atoms: C_9  and  N_10
REMARK    7  A    between atoms: C_11  and  C_13
REMARK    8  A    between atoms: C_24  and  C_26
REMARK                            x       y       z     vdW  Elec       q    Type
REMARK                         _______ _______ _______ _____ _____    ______ ____
ROOT
ATOM      1  C   UNL     1      45.122   6.799  12.170  0.00  0.00    +0.000 A 
ATOM      2  C   UNL     1      44.362   7.724  11.441  0.00  0.00    +0.000 A 
ATOM      3  C   UNL     1      44.739   9.061  11.386  0.00  0.00    +0.000 A 
ATOM      4  C   UNL     1      45.863   9.497  12.089  0.00  0.00    +0.000 A 
ATOM      5  C   UNL     1      46.598   8.603  12.885  0.00  0.00    +0.000 A 
ATOM      6  C   UNL     1      46.246   7.245  12.879  0.00  0.00    +0.000 A 
ENDROOT
BRANCH   1   7
ATOM      7  C   UNL     1      44.692   5.350  12.216  0.00  0.00    +0.000 C 
BRANCH   7   8
ATOM      8  C   UNL     1      43.627   4.943  11.175  0.00  0.00    +0.000 C 
BRANCH   8   9
ATOM      9  N   UNL     1      42.253   5.039  11.717  0.00  0.00    +0.000 NA
ATOM     10  H   UNL     1      41.581   4.808  10.989  0.00  0.00    +0.000 HD
ATOM     11  H   UNL     1      42.093   6.027  11.945  0.00  0.00    +0.000 HD
ENDBRANCH   8   9
BRANCH   8  12
ATOM     12  C   UNL     1      43.855   3.521  10.614  0.00  0.00    +0.000 C 
ATOM     13  O   UNL     1      43.267   2.540  11.079  0.00  0.00    +0.000 OA
BRANCH  12  14
ATOM     14  C   UNL     1      44.824   3.306   9.490  0.00  0.00    +0.000 A 
ATOM     15  C   UNL     1      45.366   4.354   8.735  0.00  0.00    +0.000 A 
ATOM     16  C   UNL     1      46.233   4.085   7.670  0.00  0.00    +0.000 A 
ATOM     17  C   UNL     1      46.601   2.775   7.375  0.00  0.00    +0.000 A 
ATOM     18  C   UNL     1      46.095   1.727   8.138  0.00  0.00    +0.000 A 
ATOM     19  C   UNL     1      45.200   1.988   9.179  0.00  0.00    +0.000 A 
ENDBRANCH  12  14
ENDBRANCH   8  12
ENDBRANCH   7   8
ENDBRANCH   1   7
BRANCH   5  20
ATOM     20  C   UNL     1      47.744   9.095  13.736  0.00  0.00    +0.000 C 
BRANCH  20  21
ATOM     21  N   UNL     1      47.931   8.258  14.884  0.00  0.00    +0.000 N 
ATOM     22  C   UNL     1      48.865   7.257  14.930  0.00  0.00    +0.000 C 
ATOM     23  O   UNL     1      49.634   7.018  14.004  0.00  0.00    +0.000 OA
ATOM     24  H   UNL     1      47.133   8.192  15.502  0.00  0.00    +0.000 HD
BRANCH  22  25
ATOM     25  C   UNL     1      48.937   6.537  16.206  0.00  0.00    +0.000 A 
ATOM     26  C   UNL     1      49.603   7.091  17.293  0.00  0.00    +0.000 A 
ATOM     27  S   UNL     1      49.487   6.147  18.710  0.00  0.00    +0.000 S 
ATOM     28  C   UNL     1      48.593   4.942  17.907  0.00  0.00    +0.000 A 
ATOM     29  N   UNL     1      48.177   3.822  18.560  0.00  0.00    +0.000 NA
ATOM     30  C   UNL     1      47.531   2.984  17.820  0.00  0.00    +0.000 A 
ATOM     31  N   UNL     1      47.260   3.161  16.492  0.00  0.00    +0.000 N 
ATOM     32  C   UNL     1      47.633   4.281  15.796  0.00  0.00    +0.000 A 
ATOM     33  O   UNL     1      47.343   4.427  14.619  0.00  0.00    +0.000 OA
ATOM     34  C   UNL     1      48.376   5.261  16.580  0.00  0.00    +0.000 A 
ATOM     35  H   UNL     1      46.731   2.475  15.966  0.00  0.00    +0.000 HD
ENDBRANCH  22  25
ENDBRANCH  20  21
ENDBRANCH   5  20
TORSDOF 8
ENDMDL
MODEL 2
REMARK VINA RESULT:    -7.923      2.413      3.458
REMARK INTER + INTRA:         -12.654
REMARK INTER:                 -11.576
REMARK INTRA:                  -1.078
REMARK UNBOUND:                -1.257
REMARK  Name = 
REMARK  8 active torsions:
REMARK  status: ('A' for Active; 'I' for Inactive)
REMARK    1  A    between atoms: N_1  and  C_2
REMARK    2  A    between atoms: C_2  and  C_3
REMARK    3  A    between atoms: C_2  and  C_24
REMARK    4  A    between atoms: C_3  and  C_4
REMARK    5  A    between atoms: C_8  and  C_9
REMARK    6  A    between atoms: C_9  and  N_10
REMARK    7  A    between atoms: C_11  and  C_13
REMARK    8  A    between atoms: C_24  and  C_26
REMARK                            x       y       z     vdW  Elec       q    Type
REMARK                         _______ _______ _______ _____ _____    ______ ____
ROOT
ATOM      1  C   UNL     1      45.583   4.668  12.097  0.00  0.00    +0.000 A 
ATOM      2  C   UNL     1      46.060   5.908  11.650  0.00  0.00    +0.000 A 
ATOM      3  C   UNL     1      46.991   6.620  12.400  0.00  0.00    +0.000 A 
ATOM      4  C   UNL     1      47.430   6.116  13.623  0.00  0.00    +0.000 A 
ATOM      5  C   UNL     1      46.914   4.911  14.126  0.00  0.00    +0.000 A 
ATOM      6  C   UNL     1      46.026   4.171  13.331  0.00  0.00    +0.000 A 
ENDROOT
BRANCH   1   7
ATOM      7  C   UNL     1      44.571   3.913  11.265  0.00  0.00    +0.000 C 
BRANCH   7   8
ATOM      8  C   UNL     1      44.775   3.998   9.737  0.00  0.00    +0.000 C 
BRANCH   8   9
ATOM      9  N   UNL     1      43.669   4.719   9.068  0.00  0.00    +0.000 NA
ATOM     10  H   UNL     1      42.777   4.359   9.400  0.00  0.00    +0.000 HD
ATOM     11  H   UNL     1      43.717   4.476   8.072  0.00  0.00    +0.000 HD
ENDBRANCH   8   9
BRANCH   8  12
ATOM     12  C   UNL     1      44.950   2.609   9.082  0.00  0.00    +0.000 C 
ATOM     13  O   UNL     1      44.324   1.622   9.480  0.00  0.00    +0.000 OA
BRANCH  12  14
ATOM     14  C   UNL     1      45.912   2.433   7.945  0.00  0.00    +0.000 A 
ATOM     15  C   UNL     1      46.137   3.417   6.974  0.00  0.00    +0.000 A 
ATOM     16  C   UNL     1      47.017   3.176   5.912  0.00  0.00    +0.000 A 
ATOM     17  C   UNL     1      47.711   1.971   5.832  0.00  0.00    +0.000 A 
ATOM     18  C   UNL     1      47.520   0.998   6.809  0.00  0.00    +0.000 A 
ATOM     19  C   UNL     1      46.615   1.220   7.851  0.00  0.00    +0.000 A 
ENDBRANCH  12  14
ENDBRANCH   8  12
ENDBRANCH   7   8
ENDBRANCH   1   7
BRANCH   5  20
ATOM     20  C   UNL     1      47.302   4.421  15.501  0.00  0.00    +0.000 C 
BRANCH  20  21
ATOM     21  N   UNL     1      47.863   5.480  16.288  0.00  0.00    +0.000 N 
ATOM     22  C   UNL     1      49.066   5.367  16.932  0.00  0.00    +0.000 C 
ATOM     23  O   UNL     1      49.771   4.364  16.863  0.00  0.00    +0.000 OA
ATOM     24  H   UNL     1      47.196   6.154  16.639  0.00  0.00    +0.000 HD
BRANCH  22  25
ATOM     25  C   UNL     1      49.495   6.571  17.653  0.00  0.00    +0.000 A 
ATOM     26  C   UNL     1      50.643   7.253  17.267  0.00  0.00    +0.000 A 
ATOM     27  S   UNL     1      50.915   8.680  18.163  0.00  0.00    +0.000 S 
ATOM     28  C   UNL     1      49.543   8.405  19.132  0.00  0.00    +0.000 A 
ATOM     29  N   UNL     1      49.203   9.267  20.131  0.00  0.00    +0.000 NA
ATOM     30  C   UNL     1      48.154   8.919  20.798  0.00  0.00    +0.000 A 
ATOM     31  N   UNL     1      47.414   7.795  20.561  0.00  0.00    +0.000 N 
ATOM     32  C   UNL     1      47.698   6.911  19.553  0.00  0.00    +0.000 A 
ATOM     33  O   UNL     1      46.995   5.935  19.343  0.00  0.00    +0.000 OA
ATOM     34  C   UNL     1      48.880   7.249  18.769  0.00  0.00    +0.000 A 
ATOM     35  H   UNL     1      46.587   7.583  21.108  0.00  0.00    +0.000 HD
ENDBRANCH  22  25
ENDBRANCH  20  21
ENDBRANCH   5  20
TORSDOF 8
ENDMDL
MODEL 3
REMARK VINA RESULT:    -7.922      2.503      2.867
REMARK INTER + INTRA:         -12.653
REMARK INTER:                 -11.288
REMARK INTRA:                  -1.365
REMARK UNBOUND:                -1.257
REMARK  Name = 
REMARK  8 active torsions:
REMARK  status: ('A' for Active; 'I' for Inactive)
REMARK    1  A    between atoms: N_1  and  C_2
REMARK    2  A    between atoms: C_2  and  C_3
REMARK    3  A    between atoms: C_2  and  C_24
REMARK    4  A    between atoms: C_3  and  C_4
REMARK    5  A    between atoms: C_8  and  C_9
REMARK    6  A    between atoms: C_9  and  N_10
REMARK    7  A    between atoms: C_11  and  C_13
REMARK    8  A    between atoms: C_24  and  C_26
REMARK                            x       y       z     vdW  Elec       q    Type
REMARK                         _______ _______ _______ _____ _____    ______ ____
ROOT
ATOM      1  C   UNL     1      46.755   5.588  13.012  0.00  0.00    +0.000 A 
ATOM      2  C   UNL     1      47.118   6.294  11.856  0.00  0.00    +0.000 A 
ATOM      3  C   UNL     1      48.077   7.300  11.915  0.00  0.00    +0.000 A 
ATOM      4  C   UNL     1      48.658   7.637  13.137  0.00  0.00    +0.000 A 
ATOM      5  C   UNL     1      48.258   6.993  14.319  0.00  0.00    +0.000 A 
ATOM      6  C   UNL     1      47.340   5.936  14.237  0.00  0.00    +0.000 A 
ENDROOT
BRANCH   1   7
ATOM      7  C   UNL     1      45.709   4.499  12.924  0.00  0.00    +0.000 C 
BRANCH   7   8
ATOM      8  C   UNL     1      44.396   4.898  12.217  0.00  0.00    +0.000 C 
BRANCH   8   9
ATOM      9  N   UNL     1      43.303   5.159  13.181  0.00  0.00    +0.000 NA
ATOM     10  H   UNL     1      42.409   4.928  12.753  0.00  0.00    +0.000 HD
ATOM     11  H   UNL     1      43.285   6.173  13.341  0.00  0.00    +0.000 HD
ENDBRANCH   8   9
BRANCH   8  12
ATOM     12  C   UNL     1      43.929   3.843  11.189  0.00  0.00    +0.000 C 
ATOM     13  O   UNL     1      42.899   3.184  11.360  0.00  0.00    +0.000 OA
BRANCH  12  14
ATOM     14  C   UNL     1      44.743   3.588   9.955  0.00  0.00    +0.000 A 
ATOM     15  C   UNL     1      45.289   4.613   9.172  0.00  0.00    +0.000 A 
ATOM     16  C   UNL     1      46.004   4.311   8.008  0.00  0.00    +0.000 A 
ATOM     17  C   UNL     1      46.218   2.986   7.637  0.00  0.00    +0.000 A 
ATOM     18  C   UNL     1      45.708   1.957   8.424  0.00  0.00    +0.000 A 
ATOM     19  C   UNL     1      44.962   2.255   9.568  0.00  0.00    +0.000 A 
ENDBRANCH  12  14
ENDBRANCH   8  12
ENDBRANCH   7   8
ENDBRANCH   1   7
BRANCH   5  20
ATOM     20  C   UNL     1      48.803   7.434  15.657  0.00  0.00    +0.000 C 
BRANCH  20  21
ATOM     21  N   UNL     1      49.869   6.578  16.088  0.00  0.00    +0.000 N 
ATOM     22  C   UNL     1      49.855   5.924  17.291  0.00  0.00    +0.000 C 
ATOM     23  O   UNL     1      48.918   5.995  18.080  0.00  0.00    +0.000 OA
ATOM     24  H   UNL     1      50.765   6.756  15.653  0.00  0.00    +0.000 HD
BRANCH  22  25
ATOM     25  C   UNL     1      51.016   5.060  17.537  0.00  0.00    +0.000 A 
ATOM     26  C   UNL     1      52.235   5.607  17.917  0.00  0.00    +0.000 A 
ATOM     27  S   UNL     1      53.428   4.434  18.252  0.00  0.00    +0.000 S 
ATOM     28  C   UNL     1      52.375   3.160  17.846  0.00  0.00    +0.000 A 
ATOM     29  N   UNL     1      52.785   1.862  17.904  0.00  0.00    +0.000 NA
ATOM     30  C   UNL     1      51.888   1.005  17.545  0.00  0.00    +0.000 A 
ATOM     31  N   UNL     1      50.624   1.322  17.137  0.00  0.00    +0.000 N 
ATOM     32  C   UNL     1      50.154   2.609  17.086  0.00  0.00    +0.000 A 
ATOM     33  O   UNL     1      49.006   2.856  16.753  0.00  0.00    +0.000 OA
ATOM     34  C   UNL     1      51.128   3.622  17.473  0.00  0.00    +0.000 A 
ATOM     35  H   UNL     1      49.955   0.603  16.884  0.00  0.00    +0.000 HD
ENDBRANCH  22  25
ENDBRANCH  20  21
ENDBRANCH   5  20
TORSDOF 8
ENDMDL
MODEL 4
REMARK VINA RESULT:    -7.888      3.666      5.371
REMARK INTER + INTRA:         -12.603
REMARK INTER:                 -11.712
REMARK INTRA:                  -0.891
REMARK UNBOUND:                -1.257
REMARK  Name = 
REMARK  8 active torsions:
REMARK  status: ('A' for Active; 'I' for Inactive)
REMARK    1  A    between atoms: N_1  and  C_2
REMARK    2  A    between atoms: C_2  and  C_3
REMARK    3  A    between atoms: C_2  and  C_24
REMARK    4  A    between atoms: C_3  and  C_4
REMARK    5  A    between atoms: C_8  and  C_9
REMARK    6  A    between atoms: C_9  and  N_10
REMARK    7  A    between atoms: C_11  and  C_13
REMARK    8  A    between atoms: C_24  and  C_26
REMARK                            x       y       z     vdW  Elec       q    Type
REMARK                         _______ _______ _______ _____ _____    ______ ____
ROOT
ATOM      1  C   UNL     1      45.717   3.320   7.889  0.00  0.00    +0.000 A 
ATOM      2  C   UNL     1      45.220   2.233   8.622  0.00  0.00    +0.000 A 
ATOM      3  C   UNL     1      44.718   2.418   9.906  0.00  0.00    +0.000 A 
ATOM      4  C   UNL     1      44.738   3.686  10.486  0.00  0.00    +0.000 A 
ATOM      5  C   UNL     1      45.296   4.776   9.799  0.00  0.00    +0.000 A 
ATOM      6  C   UNL     1      45.739   4.590   8.481  0.00  0.00    +0.000 A 
ENDROOT
BRANCH   1   7
ATOM      7  C   UNL     1      46.258   3.095   6.495  0.00  0.00    +0.000 C 
BRANCH   7   8
ATOM      8  C   UNL     1      46.856   1.695   6.236  0.00  0.00    +0.000 C 
BRANCH   8   9
ATOM      9  N   UNL     1      47.954   1.377   7.176  0.00  0.00    +0.000 NA
ATOM     10  H   UNL     1      48.728   0.956   6.667  0.00  0.00    +0.000 HD
ATOM     11  H   UNL     1      47.602   0.648   7.807  0.00  0.00    +0.000 HD
ENDBRANCH   8   9
BRANCH   8  12
ATOM     12  C   UNL     1      47.361   1.523   4.785  0.00  0.00    +0.000 C 
ATOM     13  O   UNL     1      48.294   2.197   4.340  0.00  0.00    +0.000 OA
BRANCH  12  14
ATOM     14  C   UNL     1      46.702   0.528   3.876  0.00  0.00    +0.000 A 
ATOM     15  C   UNL     1      46.950  -0.849   3.940  0.00  0.00    +0.000 A 
ATOM     16  C   UNL     1      46.336  -1.722   3.035  0.00  0.00    +0.000 A 
ATOM     17  C   UNL     1      45.438  -1.237   2.088  0.00  0.00    +0.000 A 
ATOM     18  C   UNL     1      45.158   0.126   2.035  0.00  0.00    +0.000 A 
ATOM     19  C   UNL     1      45.797   1.006   2.913  0.00  0.00    +0.000 A 
ENDBRANCH  12  14
ENDBRANCH   8  12
ENDBRANCH   7   8
ENDBRANCH   1   7
BRANCH   5  20
ATOM     20  C   UNL     1      45.424   6.124  10.467  0.00  0.00    +0.000 C 
BRANCH  20  21
ATOM     21  N   UNL     1      46.342   6.071  11.566  0.00  0.00    +0.000 N 
ATOM     22  C   UNL     1      46.352   7.004  12.570  0.00  0.00    +0.000 C 
ATOM     23  O   UNL     1      45.558   7.938  12.623  0.00  0.00    +0.000 OA
ATOM     24  H   UNL     1      47.191   5.550  11.392  0.00  0.00    +0.000 HD
BRANCH  22  25
ATOM     25  C   UNL     1      47.336   6.758  13.630  0.00  0.00    +0.000 A 
ATOM     26  C   UNL     1      48.342   7.681  13.888  0.00  0.00    +0.000 A 
ATOM     27  S   UNL     1      49.321   7.260  15.221  0.00  0.00    +0.000 S 
ATOM     28  C   UNL     1      48.471   5.806  15.463  0.00  0.00    +0.000 A 
ATOM     29  N   UNL     1      48.819   4.946  16.461  0.00  0.00    +0.000 NA
ATOM     30  C   UNL     1      48.103   3.872  16.510  0.00  0.00    +0.000 A 
ATOM     31  N   UNL     1      47.074   3.579  15.660  0.00  0.00    +0.000 N 
ATOM     32  C   UNL     1      46.669   4.422  14.658  0.00  0.00    +0.000 A 
ATOM     33  O   UNL     1      45.721   4.148  13.938  0.00  0.00    +0.000 OA
ATOM     34  C   UNL     1      47.448   5.649  14.548  0.00  0.00    +0.000 A 
ATOM     35  H   UNL     1      46.534   2.727  15.759  0.00  0.00    +0.000 HD
ENDBRANCH  22  25
ENDBRANCH  20  21
ENDBRANCH   5  20
TORSDOF 8
ENDMDL
MODEL 5
REMARK VINA RESULT:    -7.841      1.688      2.093
REMARK INTER + INTRA:         -12.535
REMARK INTER:                 -11.804
REMARK INTRA:                  -0.731
REMARK UNBOUND:                -1.257
REMARK  Name = 
REMARK  8 active torsions:
REMARK  status: ('A' for Active; 'I' for Inactive)
REMARK    1  A    between atoms: N_1  and  C_2
REMARK    2  A    between atoms: C_2  and  C_3
REMARK    3  A    between atoms: C_2  and  C_24
REMARK    4  A    between atoms: C_3  and  C_4
REMARK    5  A    between atoms: C_8  and  C_9
REMARK    6  A    between atoms: C_9  and  N_10
REMARK    7  A    between atoms: C_11  and  C_13
REMARK    8  A    between atoms: C_24  and  C_26
REMARK                            x       y       z     vdW  Elec       q    Type
REMARK                         _______ _______ _______ _____ _____    ______ ____
ROOT
ATOM      1  C   UNL     1      45.506   5.710  11.664  0.00  0.00    +0.000 A 
ATOM      2  C   UNL     1      44.687   6.842  11.546  0.00  0.00    +0.000 A 
ATOM      3  C   UNL     1      45.131   8.085  11.987  0.00  0.00    +0.000 A 
ATOM      4  C   UNL     1      46.387   8.204  12.581  0.00  0.00    +0.000 A 
ATOM      5  C   UNL     1      47.196   7.072  12.775  0.00  0.00    +0.000 A 
ATOM      6  C   UNL     1      46.764   5.838  12.268  0.00  0.00    +0.000 A 
ENDROOT
BRANCH   1   7
ATOM      7  C   UNL     1      45.000   4.370  11.179  0.00  0.00    +0.000 C 
BRANCH   7   8
ATOM      8  C   UNL     1      44.867   4.228   9.647  0.00  0.00    +0.000 C 
BRANCH   8   9
ATOM      9  N   UNL     1      43.568   4.740   9.153  0.00  0.00    +0.000 NA
ATOM     10  H   UNL     1      42.895   3.979   9.112  0.00  0.00    +0.000 HD
ATOM     11  H   UNL     1      43.718   5.038   8.182  0.00  0.00    +0.000 HD
ENDBRANCH   8   9
BRANCH   8  12
ATOM     12  C   UNL     1      45.058   2.772   9.166  0.00  0.00    +0.000 C 
ATOM     13  O   UNL     1      44.516   1.824   9.741  0.00  0.00    +0.000 OA
BRANCH  12  14
ATOM     14  C   UNL     1      45.933   2.484   7.982  0.00  0.00    +0.000 A 
ATOM     15  C   UNL     1      46.168   3.412   6.960  0.00  0.00    +0.000 A 
ATOM     16  C   UNL     1      46.960   3.068   5.859  0.00  0.00    +0.000 A 
ATOM     17  C   UNL     1      47.559   1.812   5.788  0.00  0.00    +0.000 A 
ATOM     18  C   UNL     1      47.358   0.892   6.813  0.00  0.00    +0.000 A 
ATOM     19  C   UNL     1      46.538   1.219   7.896  0.00  0.00    +0.000 A 
ENDBRANCH  12  14
ENDBRANCH   8  12
ENDBRANCH   7   8
ENDBRANCH   1   7
BRANCH   5  20
ATOM     20  C   UNL     1      48.504   7.179  13.520  0.00  0.00    +0.000 C 
BRANCH  20  21
ATOM     21  N   UNL     1      48.298   7.126  14.938  0.00  0.00    +0.000 N 
ATOM     22  C   UNL     1      49.312   6.886  15.827  0.00  0.00    +0.000 C 
ATOM     23  O   UNL     1      50.479   6.727  15.482  0.00  0.00    +0.000 OA
ATOM     24  H   UNL     1      47.352   6.915  15.227  0.00  0.00    +0.000 HD
BRANCH  22  25
ATOM     25  C   UNL     1      48.914   6.912  17.239  0.00  0.00    +0.000 A 
ATOM     26  C   UNL     1      48.445   8.085  17.818  0.00  0.00    +0.000 A 
ATOM     27  S   UNL     1      47.940   7.885  19.436  0.00  0.00    +0.000 S 
ATOM     28  C   UNL     1      48.383   6.242  19.435  0.00  0.00    +0.000 A 
ATOM     29  N   UNL     1      48.222   5.469  20.545  0.00  0.00    +0.000 NA
ATOM     30  C   UNL     1      48.623   4.250  20.406  0.00  0.00    +0.000 A 
ATOM     31  N   UNL     1      49.167   3.731  19.265  0.00  0.00    +0.000 N 
ATOM     32  C   UNL     1      49.326   4.458  18.114  0.00  0.00    +0.000 A 
ATOM     33  O   UNL     1      49.780   3.955  17.099  0.00  0.00    +0.000 OA
ATOM     34  C   UNL     1      48.897   5.848  18.215  0.00  0.00    +0.000 A 
ATOM     35  H   UNL     1      49.447   2.758  19.209  0.00  0.00    +0.000 HD
ENDBRANCH  22  25
ENDBRANCH  20  21
ENDBRANCH   5  20
TORSDOF 8
ENDMDL
MODEL 6
REMARK VINA RESULT:    -7.725      3.228      5.764
REMARK INTER + INTRA:         -12.369
REMARK INTER:                 -10.453
REMARK INTRA:                  -1.917
REMARK UNBOUND:                -1.257
REMARK  Name = 
REMARK  8 active torsions:
REMARK  status: ('A' for Active; 'I' for Inactive)
REMARK    1  A    between atoms: N_1  and  C_2
REMARK    2  A    between atoms: C_2  and  C_3
REMARK    3  A    between atoms: C_2  and  C_24
REMARK    4  A    between atoms: C_3  and  C_4
REMARK    5  A    between atoms: C_8  and  C_9
REMARK    6  A    between atoms: C_9  and  N_10
REMARK    7  A    between atoms: C_11  and  C_13
REMARK    8  A    between atoms: C_24  and  C_26
REMARK                            x       y       z     vdW  Elec       q    Type
REMARK                         _______ _______ _______ _____ _____    ______ ____
ROOT
ATOM      1  C   UNL     1      46.629   5.040  13.673  0.00  0.00    +0.000 A 
ATOM      2  C   UNL     1      47.017   4.650  14.962  0.00  0.00    +0.000 A 
ATOM      3  C   UNL     1      48.002   5.353  15.647  0.00  0.00    +0.000 A 
ATOM      4  C   UNL     1      48.636   6.435  15.037  0.00  0.00    +0.000 A 
ATOM      5  C   UNL     1      48.315   6.800  13.720  0.00  0.00    +0.000 A 
ATOM      6  C   UNL     1      47.275   6.125  13.064  0.00  0.00    +0.000 A 
ENDROOT
BRANCH   1   7
ATOM      7  C   UNL     1      45.557   4.259  12.947  0.00  0.00    +0.000 C 
BRANCH   7   8
ATOM      8  C   UNL     1      44.738   5.063  11.914  0.00  0.00    +0.000 C 
BRANCH   8   9
ATOM      9  N   UNL     1      43.723   5.926  12.561  0.00  0.00    +0.000 NA
ATOM     10  H   UNL     1      44.098   6.301  13.429  0.00  0.00    +0.000 HD
ATOM     11  H   UNL     1      42.943   5.316  12.831  0.00  0.00    +0.000 HD
ENDBRANCH   8   9
BRANCH   8  12
ATOM     12  C   UNL     1      44.047   4.159  10.869  0.00  0.00    +0.000 C 
ATOM     13  O   UNL     1      42.855   3.851  10.966  0.00  0.00    +0.000 OA
BRANCH  12  14
ATOM     14  C   UNL     1      44.832   3.620   9.710  0.00  0.00    +0.000 A 
ATOM     15  C   UNL     1      45.017   2.250   9.482  0.00  0.00    +0.000 A 
ATOM     16  C   UNL     1      45.796   1.811   8.406  0.00  0.00    +0.000 A 
ATOM     17  C   UNL     1      46.361   2.729   7.524  0.00  0.00    +0.000 A 
ATOM     18  C   UNL     1      46.158   4.091   7.721  0.00  0.00    +0.000 A 
ATOM     19  C   UNL     1      45.411   4.536   8.815  0.00  0.00    +0.000 A 
ENDBRANCH  12  14
ENDBRANCH   8  12
ENDBRANCH   7   8
ENDBRANCH   1   7
BRANCH   5  20
ATOM     20  C   UNL     1      49.079   7.898  13.017  0.00  0.00    +0.000 C 
BRANCH  20  21
ATOM     21  N   UNL     1      48.192   8.773  12.309  0.00  0.00    +0.000 N 
ATOM     22  C   UNL     1      48.029  10.092  12.642  0.00  0.00    +0.000 C 
ATOM     23  O   UNL     1      48.650  10.633  13.552  0.00  0.00    +0.000 OA
ATOM     24  H   UNL     1      47.445   8.313  11.807  0.00  0.00    +0.000 HD
BRANCH  22  25
ATOM     25  C   UNL     1      47.111  10.838  11.774  0.00  0.00    +0.000 A 
ATOM     26  C   UNL     1      47.549  11.960  11.082  0.00  0.00    +0.000 A 
ATOM     27  S   UNL     1      46.362  12.625  10.051  0.00  0.00    +0.000 S 
ATOM     28  C   UNL     1      45.208  11.474  10.538  0.00  0.00    +0.000 A 
ATOM     29  N   UNL     1      43.943  11.489  10.033  0.00  0.00    +0.000 NA
ATOM     30  C   UNL     1      43.169  10.572  10.511  0.00  0.00    +0.000 A 
ATOM     31  N   UNL     1      43.540   9.643  11.441  0.00  0.00    +0.000 N 
ATOM     32  C   UNL     1      44.806   9.569  11.961  0.00  0.00    +0.000 A 
ATOM     33  O   UNL     1      45.117   8.702  12.763  0.00  0.00    +0.000 OA
ATOM     34  C   UNL     1      45.724  10.587  11.463  0.00  0.00    +0.000 A 
ATOM     35  H   UNL     1      42.892   8.934  11.766  0.00  0.00    +0.000 HD
ENDBRANCH  22  25
ENDBRANCH  20  21
ENDBRANCH   5  20
TORSDOF 8
ENDMDL
MODEL 7
REMARK VINA RESULT:    -7.709      3.357      8.186
REMARK INTER + INTRA:         -12.346
REMARK INTER:                 -10.406
REMARK INTRA:                  -1.940
REMARK UNBOUND:                -1.257
REMARK  Name = 
REMARK  8 active torsions:
REMARK  status: ('A' for Active; 'I' for Inactive)
REMARK    1  A    between atoms: N_1  and  C_2
REMARK    2  A    between atoms: C_2  and  C_3
REMARK    3  A    between atoms: C_2  and  C_24
REMARK    4  A    between atoms: C_3  and  C_4
REMARK    5  A    between atoms: C_8  and  C_9
REMARK    6  A    between atoms: C_9  and  N_10
REMARK    7  A    between atoms: C_11  and  C_13
REMARK    8  A    between atoms: C_24  and  C_26
REMARK                            x       y       z     vdW  Elec       q    Type
REMARK                         _______ _______ _______ _____ _____    ______ ____
ROOT
ATOM      1  C   UNL     1      48.925   4.669  18.200  0.00  0.00    +0.000 A 
ATOM      2  C   UNL     1      48.925   5.260  19.471  0.00  0.00    +0.000 A 
ATOM      3  C   UNL     1      48.824   6.641  19.608  0.00  0.00    +0.000 A 
ATOM      4  C   UNL     1      48.756   7.450  18.474  0.00  0.00    +0.000 A 
ATOM      5  C   UNL     1      48.827   6.886  17.190  0.00  0.00    +0.000 A 
ATOM      6  C   UNL     1      48.863   5.489  17.065  0.00  0.00    +0.000 A 
ENDROOT
BRANCH   1   7
ATOM      7  C   UNL     1      49.037   3.166  18.076  0.00  0.00    +0.000 C 
BRANCH   7   8
ATOM      8  C   UNL     1      49.932   2.662  16.924  0.00  0.00    +0.000 C 
BRANCH   8   9
ATOM      9  N   UNL     1      49.237   1.673  16.071  0.00  0.00    +0.000 NA
ATOM     10  H   UNL     1      48.976   0.864  16.630  0.00  0.00    +0.000 HD
ATOM     11  H   UNL     1      49.925   1.333  15.389  0.00  0.00    +0.000 HD
ENDBRANCH   8   9
BRANCH   8  12
ATOM     12  C   UNL     1      51.263   2.058  17.425  0.00  0.00    +0.000 C 
ATOM     13  O   UNL     1      51.462   0.839  17.424  0.00  0.00    +0.000 OA
BRANCH  12  14
ATOM     14  C   UNL     1      52.346   2.957  17.944  0.00  0.00    +0.000 A 
ATOM     15  C   UNL     1      52.416   4.324  17.643  0.00  0.00    +0.000 A 
ATOM     16  C   UNL     1      53.475   5.101  18.123  0.00  0.00    +0.000 A 
ATOM     17  C   UNL     1      54.450   4.535  18.942  0.00  0.00    +0.000 A 
ATOM     18  C   UNL     1      54.374   3.186  19.274  0.00  0.00    +0.000 A 
ATOM     19  C   UNL     1      53.338   2.397  18.766  0.00  0.00    +0.000 A 
ENDBRANCH  12  14
ENDBRANCH   8  12
ENDBRANCH   7   8
ENDBRANCH   1   7
BRANCH   5  20
ATOM     20  C   UNL     1      48.870   7.766  15.964  0.00  0.00    +0.000 C 
BRANCH  20  21
ATOM     21  N   UNL     1      47.836   7.412  15.037  0.00  0.00    +0.000 N 
ATOM     22  C   UNL     1      48.094   6.831  13.824  0.00  0.00    +0.000 C 
ATOM     23  O   UNL     1      49.226   6.541  13.449  0.00  0.00    +0.000 OA
ATOM     24  H   UNL     1      46.968   7.921  15.146  0.00  0.00    +0.000 HD
BRANCH  22  25
ATOM     25  C   UNL     1      46.903   6.502  13.031  0.00  0.00    +0.000 A 
ATOM     26  C   UNL     1      46.210   7.497  12.354  0.00  0.00    +0.000 A 
ATOM     27  S   UNL     1      44.918   6.900  11.411  0.00  0.00    +0.000 S 
ATOM     28  C   UNL     1      45.206   5.302  11.922  0.00  0.00    +0.000 A 
ATOM     29  N   UNL     1      44.426   4.273  11.486  0.00  0.00    +0.000 NA
ATOM     30  C   UNL     1      44.745   3.121  11.974  0.00  0.00    +0.000 A 
ATOM     31  N   UNL     1      45.769   2.901  12.852  0.00  0.00    +0.000 N 
ATOM     32  C   UNL     1      46.598   3.896  13.300  0.00  0.00    +0.000 A 
ATOM     33  O   UNL     1      47.528   3.661  14.055  0.00  0.00    +0.000 OA
ATOM     34  C   UNL     1      46.279   5.223  12.788  0.00  0.00    +0.000 A 
ATOM     35  H   UNL     1      45.984   1.969  13.188  0.00  0.00    +0.000 HD
ENDBRANCH  22  25
ENDBRANCH  20  21
ENDBRANCH   5  20
TORSDOF 8
ENDMDL
MODEL 8
REMARK VINA RESULT:    -7.694      1.777      2.303
REMARK INTER + INTRA:         -12.324
REMARK INTER:                 -11.012
REMARK INTRA:                  -1.312
REMARK UNBOUND:                -1.257
REMARK  Name = 
REMARK  8 active torsions:
REMARK  status: ('A' for Active; 'I' for Inactive)
REMARK    1  A    between atoms: N_1  and  C_2
REMARK    2  A    between atoms: C_2  and  C_3
REMARK    3  A    between atoms: C_2  and  C_24
REMARK    4  A    between atoms: C_3  and  C_4
REMARK    5  A    between atoms: C_8  and  C_9
REMARK    6  A    between atoms: C_9  and  N_10
REMARK    7  A    between atoms: C_11  and  C_13
REMARK    8  A    between atoms: C_24  and  C_26
REMARK                            x       y       z     vdW  Elec       q    Type
REMARK                         _______ _______ _______ _____ _____    ______ ____
ROOT
ATOM      1  C   UNL     1      45.316   6.833  12.588  0.00  0.00    +0.000 A 
ATOM      2  C   UNL     1      44.948   7.928  11.794  0.00  0.00    +0.000 A 
ATOM      3  C   UNL     1      45.751   9.063  11.740  0.00  0.00    +0.000 A 
ATOM      4  C   UNL     1      46.914   9.130  12.506  0.00  0.00    +0.000 A 
ATOM      5  C   UNL     1      47.266   8.075  13.363  0.00  0.00    +0.000 A 
ATOM      6  C   UNL     1      46.484   6.910  13.359  0.00  0.00    +0.000 A 
ENDROOT
BRANCH   1   7
ATOM      7  C   UNL     1      44.427   5.610  12.632  0.00  0.00    +0.000 C 
BRANCH   7   8
ATOM      8  C   UNL     1      43.533   5.398  11.391  0.00  0.00    +0.000 C 
BRANCH   8   9
ATOM      9  N   UNL     1      42.123   5.766  11.652  0.00  0.00    +0.000 NA
ATOM     10  H   UNL     1      41.530   4.948  11.532  0.00  0.00    +0.000 HD
ATOM     11  H   UNL     1      41.848   6.425  10.915  0.00  0.00    +0.000 HD
ENDBRANCH   8   9
BRANCH   8  12
ATOM     12  C   UNL     1      43.592   3.949  10.856  0.00  0.00    +0.000 C 
ATOM     13  O   UNL     1      42.881   3.056  11.326  0.00  0.00    +0.000 OA
BRANCH  12  14
ATOM     14  C   UNL     1      44.543   3.597   9.751  0.00  0.00    +0.000 A 
ATOM     15  C   UNL     1      45.184   4.557   8.957  0.00  0.00    +0.000 A 
ATOM     16  C   UNL     1      46.028   4.164   7.913  0.00  0.00    +0.000 A 
ATOM     17  C   UNL     1      46.274   2.813   7.677  0.00  0.00    +0.000 A 
ATOM     18  C   UNL     1      45.668   1.850   8.479  0.00  0.00    +0.000 A 
ATOM     19  C   UNL     1      44.796   2.238   9.499  0.00  0.00    +0.000 A 
ENDBRANCH  12  14
ENDBRANCH   8  12
ENDBRANCH   7   8
ENDBRANCH   1   7
BRANCH   5  20
ATOM     20  C   UNL     1      48.462   8.192  14.278  0.00  0.00    +0.000 C 
BRANCH  20  21
ATOM     21  N   UNL     1      48.277   7.421  15.473  0.00  0.00    +0.000 N 
ATOM     22  C   UNL     1      49.272   6.659  16.025  0.00  0.00    +0.000 C 
ATOM     23  O   UNL     1      50.405   6.599  15.560  0.00  0.00    +0.000 OA
ATOM     24  H   UNL     1      47.318   7.177  15.682  0.00  0.00    +0.000 HD
BRANCH  22  25
ATOM     25  C   UNL     1      48.905   5.976  17.272  0.00  0.00    +0.000 A 
ATOM     26  C   UNL     1      49.053   4.600  17.392  0.00  0.00    +0.000 A 
ATOM     27  S   UNL     1      48.668   4.012  18.948  0.00  0.00    +0.000 S 
ATOM     28  C   UNL     1      48.237   5.565  19.494  0.00  0.00    +0.000 A 
ATOM     29  N   UNL     1      47.794   5.765  20.766  0.00  0.00    +0.000 NA
ATOM     30  C   UNL     1      47.480   6.990  21.033  0.00  0.00    +0.000 A 
ATOM     31  N   UNL     1      47.571   8.029  20.151  0.00  0.00    +0.000 N 
ATOM     32  C   UNL     1      48.035   7.886  18.870  0.00  0.00    +0.000 A 
ATOM     33  O   UNL     1      48.140   8.842  18.118  0.00  0.00    +0.000 OA
ATOM     34  C   UNL     1      48.397   6.520  18.508  0.00  0.00    +0.000 A 
ATOM     35  H   UNL     1      47.328   8.975  20.425  0.00  0.00    +0.000 HD
ENDBRANCH  22  25
ENDBRANCH  20  21
ENDBRANCH   5  20
TORSDOF 8
ENDMDL
MODEL 9
REMARK VINA RESULT:    -7.453      3.366      9.200
REMARK INTER + INTRA:         -11.977
REMARK INTER:                  -9.742
REMARK INTRA:                  -2.236
REMARK UNBOUND:                -1.257
REMARK  Name = 
REMARK  8 active torsions:
REMARK  status: ('A' for Active; 'I' for Inactive)
REMARK    1  A    between atoms: N_1  and  C_2
REMARK    2  A    between atoms: C_2  and  C_3
REMARK    3  A    between atoms: C_2  and  C_24
REMARK    4  A    between atoms: C_3  and  C_4
REMARK    5  A    between atoms: C_8  and  C_9
REMARK    6  A    between atoms: C_9  and  N_10
REMARK    7  A    between atoms: C_11  and  C_13
REMARK    8  A    between atoms: C_24  and  C_26
REMARK                            x       y       z     vdW  Elec       q    Type
REMARK                         _______ _______ _______ _____ _____    ______ ____
ROOT
ATOM      1  C   UNL     1      50.504   4.099  17.918  0.00  0.00    +0.000 A 
ATOM      2  C   UNL     1      49.431   3.228  18.156  0.00  0.00    +0.000 A 
ATOM      3  C   UNL     1      48.196   3.447  17.555  0.00  0.00    +0.000 A 
ATOM      4  C   UNL     1      48.009   4.560  16.735  0.00  0.00    +0.000 A 
ATOM      5  C   UNL     1      49.046   5.485  16.539  0.00  0.00    +0.000 A 
ATOM      6  C   UNL     1      50.305   5.218  17.097  0.00  0.00    +0.000 A 
ENDROOT
BRANCH   1   7
ATOM      7  C   UNL     1      51.837   3.842  18.583  0.00  0.00    +0.000 C 
BRANCH   7   8
ATOM      8  C   UNL     1      52.300   4.927  19.579  0.00  0.00    +0.000 C 
BRANCH   8   9
ATOM      9  N   UNL     1      53.731   4.785  19.930  0.00  0.00    +0.000 NA
ATOM     10  H   UNL     1      54.300   4.898  19.093  0.00  0.00    +0.000 HD
ATOM     11  H   UNL     1      53.867   3.815  20.234  0.00  0.00    +0.000 HD
ENDBRANCH   8   9
BRANCH   8  12
ATOM     12  C   UNL     1      51.457   4.944  20.874  0.00  0.00    +0.000 C 
ATOM     13  O   UNL     1      51.882   4.465  21.930  0.00  0.00    +0.000 OA
BRANCH  12  14
ATOM     14  C   UNL     1      50.080   5.538  20.864  0.00  0.00    +0.000 A 
ATOM     15  C   UNL     1      48.960   4.885  21.394  0.00  0.00    +0.000 A 
ATOM     16  C   UNL     1      47.693   5.474  21.316  0.00  0.00    +0.000 A 
ATOM     17  C   UNL     1      47.537   6.736  20.747  0.00  0.00    +0.000 A 
ATOM     18  C   UNL     1      48.647   7.409  20.245  0.00  0.00    +0.000 A 
ATOM     19  C   UNL     1      49.908   6.809  20.288  0.00  0.00    +0.000 A 
ENDBRANCH  12  14
ENDBRANCH   8  12
ENDBRANCH   7   8
ENDBRANCH   1   7
BRANCH   5  20
ATOM     20  C   UNL     1      48.812   6.748  15.745  0.00  0.00    +0.000 C 
BRANCH  20  21
ATOM     21  N   UNL     1      47.675   6.612  14.882  0.00  0.00    +0.000 N 
ATOM     22  C   UNL     1      47.786   6.312  13.550  0.00  0.00    +0.000 C 
ATOM     23  O   UNL     1      48.863   6.106  12.999  0.00  0.00    +0.000 OA
ATOM     24  H   UNL     1      46.839   7.089  15.195  0.00  0.00    +0.000 HD
BRANCH  22  25
ATOM     25  C   UNL     1      46.509   6.173  12.841  0.00  0.00    +0.000 A 
ATOM     26  C   UNL     1      45.884   7.284  12.287  0.00  0.00    +0.000 A 
ATOM     27  S   UNL     1      44.465   6.899  11.420  0.00  0.00    +0.000 S 
ATOM     28  C   UNL     1      44.606   5.247  11.803  0.00  0.00    +0.000 A 
ATOM     29  N   UNL     1      43.683   4.344  11.370  0.00  0.00    +0.000 NA
ATOM     30  C   UNL     1      43.905   3.131  11.757  0.00  0.00    +0.000 A 
ATOM     31  N   UNL     1      44.961   2.739  12.530  0.00  0.00    +0.000 N 
ATOM     32  C   UNL     1      45.929   3.603  12.969  0.00  0.00    +0.000 A 
ATOM     33  O   UNL     1      46.881   3.214  13.628  0.00  0.00    +0.000 OA
ATOM     34  C   UNL     1      45.726   4.991  12.570  0.00  0.00    +0.000 A 
ATOM     35  H   UNL     1      45.093   1.767  12.787  0.00  0.00    +0.000 HD
ENDBRANCH  22  25
ENDBRANCH  20  21
ENDBRANCH   5  20
TORSDOF 8
ENDMDL
