MODEL 1
REMARK VINA RESULT:    -7.894      0.000      0.000
REMARK INTER + INTRA:         -11.431
REMARK INTER:                 -10.202
REMARK INTRA:                  -1.229
REMARK UNBOUND:                -1.229
REMARK  Name = 
REMARK  6 active torsions:
REMARK  status: ('A' for Active; 'I' for Inactive)
REMARK    1  A    between atoms: C_1  and  O_2
REMARK    2  A    between atoms: O_2  and  C_3
REMARK    3  A    between atoms: C_9  and  C_10
REMARK    4  A    between atoms: C_10  and  O_11
REMARK    5  A    between atoms: O_11  and  C_12
REMARK    6  A    between atoms: C_16  and  C_17
REMARK                            x       y       z     vdW  Elec       q    Type
REMARK                         _______ _______ _______ _____ _____    ______ ____
ROOT
ATOM      1  C   UNL     1      43.957   5.072  10.943  0.00  0.00    +0.000 A 
ATOM      2  C   UNL     1      43.245   4.148  11.693  0.00  0.00    +0.000 A 
ATOM      3  C   UNL     1      43.322   2.818  11.325  0.00  0.00    +0.000 A 
ATOM      4  N   UNL     1      44.043   2.366  10.274  0.00  0.00    +0.000 NA
ATOM      5  C   UNL     1      44.703   3.281   9.522  0.00  0.00    +0.000 A 
ATOM      6  C   UNL     1      44.664   4.639   9.827  0.00  0.00    +0.000 A 
ENDROOT
BRANCH   5   7
ATOM      7  C   UNL     1      45.526   2.770   8.408  0.00  0.00    +0.000 A 
ATOM      8  C   UNL     1      45.894   3.590   7.321  0.00  0.00    +0.000 A 
ATOM      9  C   UNL     1      46.746   3.130   6.316  0.00  0.00    +0.000 A 
ATOM     10  C   UNL     1      47.237   1.830   6.365  0.00  0.00    +0.000 A 
ATOM     11  C   UNL     1      46.869   0.989   7.413  0.00  0.00    +0.000 A 
ATOM     12  C   UNL     1      46.020   1.455   8.421  0.00  0.00    +0.000 A 
ENDBRANCH   5   7
BRANCH   1  13
ATOM     13  O   UNL     1      43.917   6.369  11.375  0.00  0.00    +0.000 OA
BRANCH  13  14
ATOM     14  C   UNL     1      44.489   6.591  12.673  0.00  0.00    +0.000 C 
BRANCH  14  21
ATOM     15  C   UNL     1      46.820   5.803  13.194  0.00  0.00    +0.000 A 
ATOM     16  N   UNL     1      48.166   5.880  13.196  0.00  0.00    +0.000 NA
ATOM     17  C   UNL     1      48.702   6.966  12.611  0.00  0.00    +0.000 A 
ATOM     18  F   UNL     1      50.040   7.074  12.616  0.00  0.00    +0.000 F 
ATOM     19  C   UNL     1      47.967   7.985  12.033  0.00  0.00    +0.000 A 
ATOM     20  C   UNL     1      46.585   7.870  12.021  0.00  0.00    +0.000 A 
ATOM     21  C   UNL     1      45.982   6.742  12.590  0.00  0.00    +0.000 A 
BRANCH  15  23
ATOM     22  C   UNL     1      46.569   3.485  13.281  0.00  0.00    +0.000 C 
ATOM     23  O   UNL     1      46.215   4.745  13.847  0.00  0.00    +0.000 OA
ENDBRANCH  15  23
ENDBRANCH  14  21
ENDBRANCH  13  14
ENDBRANCH   1  13
TORSDOF 5
ENDMDL
MODEL 2
REMARK VINA RESULT:    -7.186      1.626      2.521
REMARK INTER + INTRA:         -10.516
REMARK INTER:                  -9.624
REMARK INTRA:                  -0.891
REMARK UNBOUND:                -1.229
REMARK  Name = 
REMARK  6 active torsions:
REMARK  status: ('A' for Active; 'I' for Inactive)
REMARK    1  A    between atoms: C_1  and  O_2
REMARK    2  A    between atoms: O_2  and  C_3
REMARK    3  A    between atoms: C_9  and  C_10
REMARK    4  A    between atoms: C_10  and  O_11
REMARK    5  A    between atoms: O_11  and  C_12
REMARK    6  A    between atoms: C_16  and  C_17
REMARK                            x       y       z     vdW  Elec       q    Type
REMARK                         _______ _______ _______ _____ _____    ______ ____
ROOT
ATOM      1  C   UNL     1      44.434   5.107  10.644  0.00  0.00    +0.000 A 
ATOM      2  C   UNL     1      43.666   4.211  11.373  0.00  0.00    +0.000 A 
ATOM      3  C   UNL     1      43.682   2.883  10.989  0.00  0.00    +0.000 A 
ATOM      4  N   UNL     1      44.395   2.409   9.943  0.00  0.00    +0.000 NA
ATOM      5  C   UNL     1      45.110   3.298   9.211  0.00  0.00    +0.000 A 
ATOM      6  C   UNL     1      45.135   4.652   9.532  0.00  0.00    +0.000 A 
ENDROOT
BRANCH   5   7
ATOM      7  C   UNL     1      45.922   2.760   8.102  0.00  0.00    +0.000 A 
ATOM      8  C   UNL     1      46.395   1.431   8.106  0.00  0.00    +0.000 A 
ATOM      9  C   UNL     1      47.085   0.899   7.016  0.00  0.00    +0.000 A 
ATOM     10  C   UNL     1      47.333   1.691   5.899  0.00  0.00    +0.000 A 
ATOM     11  C   UNL     1      46.901   3.014   5.879  0.00  0.00    +0.000 A 
ATOM     12  C   UNL     1      46.205   3.542   6.971  0.00  0.00    +0.000 A 
ENDBRANCH   5   7
BRANCH   1  13
ATOM     13  O   UNL     1      44.453   6.399  11.092  0.00  0.00    +0.000 OA
BRANCH  13  14
ATOM     14  C   UNL     1      45.084   6.586  12.368  0.00  0.00    +0.000 C 
BRANCH  14  21
ATOM     15  C   UNL     1      46.268   8.804  12.407  0.00  0.00    +0.000 A 
ATOM     16  N   UNL     1      47.328   9.629  12.279  0.00  0.00    +0.000 NA
ATOM     17  C   UNL     1      48.491   9.053  11.924  0.00  0.00    +0.000 A 
ATOM     18  F   UNL     1      49.557   9.856  11.773  0.00  0.00    +0.000 F 
ATOM     19  C   UNL     1      48.652   7.702  11.680  0.00  0.00    +0.000 A 
ATOM     20  C   UNL     1      47.553   6.872  11.843  0.00  0.00    +0.000 A 
ATOM     21  C   UNL     1      46.328   7.419  12.242  0.00  0.00    +0.000 A 
BRANCH  15  23
ATOM     22  C   UNL     1      44.621  10.308  11.721  0.00  0.00    +0.000 C 
ATOM     23  O   UNL     1      45.033   9.353  12.697  0.00  0.00    +0.000 OA
ENDBRANCH  15  23
ENDBRANCH  14  21
ENDBRANCH  13  14
ENDBRANCH   1  13
TORSDOF 5
ENDMDL
MODEL 3
REMARK VINA RESULT:    -6.932      1.443      1.679
REMARK INTER + INTRA:         -10.188
REMARK INTER:                  -9.407
REMARK INTRA:                  -0.781
REMARK UNBOUND:                -1.229
REMARK  Name = 
REMARK  6 active torsions:
REMARK  status: ('A' for Active; 'I' for Inactive)
REMARK    1  A    between atoms: C_1  and  O_2
REMARK    2  A    between atoms: O_2  and  C_3
REMARK    3  A    between atoms: C_9  and  C_10
REMARK    4  A    between atoms: C_10  and  O_11
REMARK    5  A    between atoms: O_11  and  C_12
REMARK    6  A    between atoms: C_16  and  C_17
REMARK                            x       y       z     vdW  Elec       q    Type
REMARK                         _______ _______ _______ _____ _____    ______ ____
ROOT
ATOM      1  C   UNL     1      44.707   4.448  11.960  0.00  0.00    +0.000 A 
ATOM      2  C   UNL     1      43.643   3.649  12.350  0.00  0.00    +0.000 A 
ATOM      3  C   UNL     1      43.266   2.616  11.513  0.00  0.00    +0.000 A 
ATOM      4  N   UNL     1      43.868   2.345  10.333  0.00  0.00    +0.000 NA
ATOM      5  C   UNL     1      44.881   3.155   9.939  0.00  0.00    +0.000 A 
ATOM      6  C   UNL     1      45.308   4.221  10.727  0.00  0.00    +0.000 A 
ENDROOT
BRANCH   5   7
ATOM      7  C   UNL     1      45.561   2.818   8.674  0.00  0.00    +0.000 A 
ATOM      8  C   UNL     1      45.795   3.788   7.676  0.00  0.00    +0.000 A 
ATOM      9  C   UNL     1      46.518   3.486   6.521  0.00  0.00    +0.000 A 
ATOM     10  C   UNL     1      47.010   2.200   6.327  0.00  0.00    +0.000 A 
ATOM     11  C   UNL     1      46.771   1.216   7.283  0.00  0.00    +0.000 A 
ATOM     12  C   UNL     1      46.051   1.523   8.442  0.00  0.00    +0.000 A 
ENDBRANCH   5   7
BRANCH   1  13
ATOM     13  O   UNL     1      45.100   5.415  12.843  0.00  0.00    +0.000 OA
BRANCH  13  14
ATOM     14  C   UNL     1      46.191   5.044  13.699  0.00  0.00    +0.000 C 
BRANCH  14  21
ATOM     15  C   UNL     1      48.342   6.094  14.469  0.00  0.00    +0.000 A 
ATOM     16  N   UNL     1      49.428   6.887  14.355  0.00  0.00    +0.000 NA
ATOM     17  C   UNL     1      49.543   7.577  13.206  0.00  0.00    +0.000 A 
ATOM     18  F   UNL     1      50.605   8.387  13.076  0.00  0.00    +0.000 F 
ATOM     19  C   UNL     1      48.629   7.527  12.169  0.00  0.00    +0.000 A 
ATOM     20  C   UNL     1      47.536   6.684  12.301  0.00  0.00    +0.000 A 
ATOM     21  C   UNL     1      47.389   5.921  13.465  0.00  0.00    +0.000 A 
BRANCH  15  23
ATOM     22  C   UNL     1      49.062   5.811  16.671  0.00  0.00    +0.000 C 
ATOM     23  O   UNL     1      48.136   5.420  15.659  0.00  0.00    +0.000 OA
ENDBRANCH  15  23
ENDBRANCH  14  21
ENDBRANCH  13  14
ENDBRANCH   1  13
TORSDOF 5
ENDMDL
MODEL 4
REMARK VINA RESULT:    -6.768      1.624      2.535
REMARK INTER + INTRA:          -9.976
REMARK INTER:                  -9.472
REMARK INTRA:                  -0.504
REMARK UNBOUND:                -1.229
REMARK  Name = 
REMARK  6 active torsions:
REMARK  status: ('A' for Active; 'I' for Inactive)
REMARK    1  A    between atoms: C_1  and  O_2
REMARK    2  A    between atoms: O_2  and  C_3
REMARK    3  A    between atoms: C_9  and  C_10
REMARK    4  A    between atoms: C_10  and  O_11
REMARK    5  A    between atoms: O_11  and  C_12
REMARK    6  A    between atoms: C_16  and  C_17
REMARK                            x       y       z     vdW  Elec       q    Type
REMARK                         _______ _______ _______ _____ _____    ______ ____
ROOT
ATOM      1  C   UNL     1      44.753   5.003  10.796  0.00  0.00    +0.000 A 
ATOM      2  C   UNL     1      43.796   4.186  11.378  0.00  0.00    +0.000 A 
ATOM      3  C   UNL     1      43.609   2.925  10.844  0.00  0.00    +0.000 A 
ATOM      4  N   UNL     1      44.298   2.445   9.783  0.00  0.00    +0.000 NA
ATOM      5  C   UNL     1      45.203   3.265   9.195  0.00  0.00    +0.000 A 
ATOM      6  C   UNL     1      45.438   4.552   9.673  0.00  0.00    +0.000 A 
ENDROOT
BRANCH   5   7
ATOM      7  C   UNL     1      45.983   2.712   8.071  0.00  0.00    +0.000 A 
ATOM      8  C   UNL     1      46.429   1.375   8.065  0.00  0.00    +0.000 A 
ATOM      9  C   UNL     1      47.088   0.830   6.961  0.00  0.00    +0.000 A 
ATOM     10  C   UNL     1      47.331   1.618   5.841  0.00  0.00    +0.000 A 
ATOM     11  C   UNL     1      46.925   2.950   5.830  0.00  0.00    +0.000 A 
ATOM     12  C   UNL     1      46.260   3.490   6.935  0.00  0.00    +0.000 A 
ENDBRANCH   5   7
BRANCH   1  13
ATOM     13  O   UNL     1      44.964   6.216  11.392  0.00  0.00    +0.000 OA
BRANCH  13  14
ATOM     14  C   UNL     1      46.344   6.576  11.556  0.00  0.00    +0.000 C 
BRANCH  14  21
ATOM     15  C   UNL     1      47.964   6.769  13.470  0.00  0.00    +0.000 A 
ATOM     16  N   UNL     1      48.518   6.410  14.646  0.00  0.00    +0.000 NA
ATOM     17  C   UNL     1      47.986   5.332  15.250  0.00  0.00    +0.000 A 
ATOM     18  F   UNL     1      48.532   4.945  16.414  0.00  0.00    +0.000 F 
ATOM     19  C   UNL     1      46.940   4.587  14.740  0.00  0.00    +0.000 A 
ATOM     20  C   UNL     1      46.372   4.992  13.542  0.00  0.00    +0.000 A 
ATOM     21  C   UNL     1      46.868   6.127  12.891  0.00  0.00    +0.000 A 
BRANCH  15  23
ATOM     22  C   UNL     1      49.945   7.820  12.824  0.00  0.00    +0.000 C 
ATOM     23  O   UNL     1      48.519   7.825  12.770  0.00  0.00    +0.000 OA
ENDBRANCH  15  23
ENDBRANCH  14  21
ENDBRANCH  13  14
ENDBRANCH   1  13
TORSDOF 5
ENDMDL
MODEL 5
REMARK VINA RESULT:    -6.687      1.993      2.515
REMARK INTER + INTRA:          -9.871
REMARK INTER:                  -9.026
REMARK INTRA:                  -0.845
REMARK UNBOUND:                -1.229
REMARK  Name = 
REMARK  6 active torsions:
REMARK  status: ('A' for Active; 'I' for Inactive)
REMARK    1  A    between atoms: C_1  and  O_2
REMARK    2  A    between atoms: O_2  and  C_3
REMARK    3  A    between atoms: C_9  and  C_10
REMARK    4  A    between atoms: C_10  and  O_11
REMARK    5  A    between atoms: O_11  and  C_12
REMARK    6  A    between atoms: C_16  and  C_17
REMARK                            x       y       z     vdW  Elec       q    Type
REMARK                         _______ _______ _______ _____ _____    ______ ____
ROOT
ATOM      1  C   UNL     1      44.580   4.704  12.247  0.00  0.00    +0.000 A 
ATOM      2  C   UNL     1      43.556   3.861  12.653  0.00  0.00    +0.000 A 
ATOM      3  C   UNL     1      43.221   2.804  11.828  0.00  0.00    +0.000 A 
ATOM      4  N   UNL     1      43.827   2.548  10.646  0.00  0.00    +0.000 NA
ATOM      5  C   UNL     1      44.799   3.400  10.237  0.00  0.00    +0.000 A 
ATOM      6  C   UNL     1      45.183   4.492  11.012  0.00  0.00    +0.000 A 
ENDROOT
BRANCH   5   7
ATOM      7  C   UNL     1      45.485   3.082   8.970  0.00  0.00    +0.000 A 
ATOM      8  C   UNL     1      45.854   4.088   8.054  0.00  0.00    +0.000 A 
ATOM      9  C   UNL     1      46.582   3.793   6.900  0.00  0.00    +0.000 A 
ATOM     10  C   UNL     1      46.945   2.478   6.627  0.00  0.00    +0.000 A 
ATOM     11  C   UNL     1      46.572   1.461   7.501  0.00  0.00    +0.000 A 
ATOM     12  C   UNL     1      45.847   1.761   8.659  0.00  0.00    +0.000 A 
ENDBRANCH   5   7
BRANCH   1  13
ATOM     13  O   UNL     1      44.935   5.696  13.119  0.00  0.00    +0.000 OA
BRANCH  13  14
ATOM     14  C   UNL     1      46.289   6.156  12.991  0.00  0.00    +0.000 C 
BRANCH  14  21
ATOM     15  C   UNL     1      47.556   8.280  12.533  0.00  0.00    +0.000 A 
ATOM     16  N   UNL     1      47.685   9.587  12.224  0.00  0.00    +0.000 NA
ATOM     17  C   UNL     1      46.542  10.265  12.018  0.00  0.00    +0.000 A 
ATOM     18  F   UNL     1      46.644  11.571  11.726  0.00  0.00    +0.000 F 
ATOM     19  C   UNL     1      45.278   9.714  12.115  0.00  0.00    +0.000 A 
ATOM     20  C   UNL     1      45.173   8.363  12.409  0.00  0.00    +0.000 A 
ATOM     21  C   UNL     1      46.335   7.607  12.600  0.00  0.00    +0.000 A 
BRANCH  15  23
ATOM     22  C   UNL     1      49.683   7.655  11.804  0.00  0.00    +0.000 C 
ATOM     23  O   UNL     1      48.695   7.553  12.827  0.00  0.00    +0.000 OA
ENDBRANCH  15  23
ENDBRANCH  14  21
ENDBRANCH  13  14
ENDBRANCH   1  13
TORSDOF 5
ENDMDL
MODEL 6
REMARK VINA RESULT:    -6.588      2.428      2.790
REMARK INTER + INTRA:          -9.744
REMARK INTER:                  -9.071
REMARK INTRA:                  -0.672
REMARK UNBOUND:                -1.229
REMARK  Name = 
REMARK  6 active torsions:
REMARK  status: ('A' for Active; 'I' for Inactive)
REMARK    1  A    between atoms: C_1  and  O_2
REMARK    2  A    between atoms: O_2  and  C_3
REMARK    3  A    between atoms: C_9  and  C_10
REMARK    4  A    between atoms: C_10  and  O_11
REMARK    5  A    between atoms: O_11  and  C_12
REMARK    6  A    between atoms: C_16  and  C_17
REMARK                            x       y       z     vdW  Elec       q    Type
REMARK                         _______ _______ _______ _____ _____    ______ ____
ROOT
ATOM      1  C   UNL     1      44.821   5.184  12.462  0.00  0.00    +0.000 A 
ATOM      2  C   UNL     1      43.454   5.413  12.412  0.00  0.00    +0.000 A 
ATOM      3  C   UNL     1      42.769   5.006  11.282  0.00  0.00    +0.000 A 
ATOM      4  N   UNL     1      43.354   4.406  10.221  0.00  0.00    +0.000 NA
ATOM      5  C   UNL     1      44.697   4.223  10.260  0.00  0.00    +0.000 A 
ATOM      6  C   UNL     1      45.453   4.615  11.362  0.00  0.00    +0.000 A 
ENDROOT
BRANCH   5   7
ATOM      7  C   UNL     1      45.315   3.523   9.117  0.00  0.00    +0.000 A 
ATOM      8  C   UNL     1      45.864   4.227   8.026  0.00  0.00    +0.000 A 
ATOM      9  C   UNL     1      46.527   3.566   6.990  0.00  0.00    +0.000 A 
ATOM     10  C   UNL     1      46.643   2.180   7.015  0.00  0.00    +0.000 A 
ATOM     11  C   UNL     1      46.088   1.458   8.068  0.00  0.00    +0.000 A 
ATOM     12  C   UNL     1      45.429   2.123   9.105  0.00  0.00    +0.000 A 
ENDBRANCH   5   7
BRANCH   1  13
ATOM     13  O   UNL     1      45.456   5.532  13.622  0.00  0.00    +0.000 OA
BRANCH  13  14
ATOM     14  C   UNL     1      46.314   4.519  14.168  0.00  0.00    +0.000 C 
BRANCH  14  21
ATOM     15  C   UNL     1      47.697   4.623  16.265  0.00  0.00    +0.000 A 
ATOM     16  N   UNL     1      48.642   5.128  17.086  0.00  0.00    +0.000 NA
ATOM     17  C   UNL     1      49.300   6.213  16.639  0.00  0.00    +0.000 A 
ATOM     18  F   UNL     1      50.233   6.744  17.446  0.00  0.00    +0.000 F 
ATOM     19  C   UNL     1      49.060   6.828  15.425  0.00  0.00    +0.000 A 
ATOM     20  C   UNL     1      48.102   6.274  14.589  0.00  0.00    +0.000 A 
ATOM     21  C   UNL     1      47.412   5.126  14.995  0.00  0.00    +0.000 A 
BRANCH  15  23
ATOM     22  C   UNL     1      47.593   2.815  17.736  0.00  0.00    +0.000 C 
ATOM     23  O   UNL     1      46.940   3.554  16.706  0.00  0.00    +0.000 OA
ENDBRANCH  15  23
ENDBRANCH  14  21
ENDBRANCH  13  14
ENDBRANCH   1  13
TORSDOF 5
ENDMDL
MODEL 7
REMARK VINA RESULT:    -6.264      3.109      7.100
REMARK INTER + INTRA:          -9.324
REMARK INTER:                  -8.485
REMARK INTRA:                  -0.840
REMARK UNBOUND:                -1.229
REMARK  Name = 
REMARK  6 active torsions:
REMARK  status: ('A' for Active; 'I' for Inactive)
REMARK    1  A    between atoms: C_1  and  O_2
REMARK    2  A    between atoms: O_2  and  C_3
REMARK    3  A    between atoms: C_9  and  C_10
REMARK    4  A    between atoms: C_10  and  O_11
REMARK    5  A    between atoms: O_11  and  C_12
REMARK    6  A    between atoms: C_16  and  C_17
REMARK                            x       y       z     vdW  Elec       q    Type
REMARK                         _______ _______ _______ _____ _____    ______ ____
ROOT
ATOM      1  C   UNL     1      47.714   6.811  12.498  0.00  0.00    +0.000 A 
ATOM      2  C   UNL     1      48.838   7.620  12.426  0.00  0.00    +0.000 A 
ATOM      3  C   UNL     1      49.698   7.633  13.508  0.00  0.00    +0.000 A 
ATOM      4  N   UNL     1      49.503   6.911  14.635  0.00  0.00    +0.000 NA
ATOM      5  C   UNL     1      48.381   6.155  14.714  0.00  0.00    +0.000 A 
ATOM      6  C   UNL     1      47.465   6.100  13.667  0.00  0.00    +0.000 A 
ENDROOT
BRANCH   5   7
ATOM      7  C   UNL     1      48.205   5.335  15.928  0.00  0.00    +0.000 A 
ATOM      8  C   UNL     1      47.295   4.258  15.970  0.00  0.00    +0.000 A 
ATOM      9  C   UNL     1      47.197   3.429  17.089  0.00  0.00    +0.000 A 
ATOM     10  C   UNL     1      47.997   3.669  18.202  0.00  0.00    +0.000 A 
ATOM     11  C   UNL     1      48.884   4.741  18.198  0.00  0.00    +0.000 A 
ATOM     12  C   UNL     1      48.984   5.566  17.074  0.00  0.00    +0.000 A 
ENDBRANCH   5   7
BRANCH   1  13
ATOM     13  O   UNL     1      46.923   6.765  11.384  0.00  0.00    +0.000 OA
BRANCH  13  14
ATOM     14  C   UNL     1      45.566   6.363  11.623  0.00  0.00    +0.000 C 
BRANCH  14  21
ATOM     15  C   UNL     1      44.756   3.985  11.504  0.00  0.00    +0.000 A 
ATOM     16  N   UNL     1      44.456   2.823  10.888  0.00  0.00    +0.000 NA
ATOM     17  C   UNL     1      44.675   2.779   9.561  0.00  0.00    +0.000 A 
ATOM     18  F   UNL     1      44.400   1.627   8.929  0.00  0.00    +0.000 F 
ATOM     19  C   UNL     1      45.186   3.826   8.818  0.00  0.00    +0.000 A 
ATOM     20  C   UNL     1      45.463   5.017   9.470  0.00  0.00    +0.000 A 
ATOM     21  C   UNL     1      45.222   5.124  10.845  0.00  0.00    +0.000 A 
BRANCH  15  23
ATOM     22  C   UNL     1      43.267   4.268  13.278  0.00  0.00    +0.000 C 
ATOM     23  O   UNL     1      44.620   4.061  12.877  0.00  0.00    +0.000 OA
ENDBRANCH  15  23
ENDBRANCH  14  21
ENDBRANCH  13  14
ENDBRANCH   1  13
TORSDOF 5
ENDMDL
MODEL 8
REMARK VINA RESULT:    -6.040      4.840      7.946
REMARK INTER + INTRA:          -9.035
REMARK INTER:                  -8.230
REMARK INTRA:                  -0.805
REMARK UNBOUND:                -1.229
REMARK  Name = 
REMARK  6 active torsions:
REMARK  status: ('A' for Active; 'I' for Inactive)
REMARK    1  A    between atoms: C_1  and  O_2
REMARK    2  A    between atoms: O_2  and  C_3
REMARK    3  A    between atoms: C_9  and  C_10
REMARK    4  A    between atoms: C_10  and  O_11
REMARK    5  A    between atoms: O_11  and  C_12
REMARK    6  A    between atoms: C_16  and  C_17
REMARK                            x       y       z     vdW  Elec       q    Type
REMARK                         _______ _______ _______ _____ _____    ______ ____
ROOT
ATOM      1  C   UNL     1      47.557   3.961  16.666  0.00  0.00    +0.000 A 
ATOM      2  C   UNL     1      47.301   4.936  17.618  0.00  0.00    +0.000 A 
ATOM      3  C   UNL     1      48.285   5.203  18.552  0.00  0.00    +0.000 A 
ATOM      4  N   UNL     1      49.476   4.565  18.596  0.00  0.00    +0.000 NA
ATOM      5  C   UNL     1      49.702   3.585  17.687  0.00  0.00    +0.000 A 
ATOM      6  C   UNL     1      48.753   3.255  16.723  0.00  0.00    +0.000 A 
ENDROOT
BRANCH   5   7
ATOM      7  C   UNL     1      51.024   2.931  17.716  0.00  0.00    +0.000 A 
ATOM      8  C   UNL     1      52.170   3.596  18.199  0.00  0.00    +0.000 A 
ATOM      9  C   UNL     1      53.400   2.945  18.308  0.00  0.00    +0.000 A 
ATOM     10  C   UNL     1      53.517   1.614  17.920  0.00  0.00    +0.000 A 
ATOM     11  C   UNL     1      52.408   0.940  17.415  0.00  0.00    +0.000 A 
ATOM     12  C   UNL     1      51.176   1.594  17.312  0.00  0.00    +0.000 A 
ENDBRANCH   5   7
BRANCH   1  13
ATOM     13  O   UNL     1      46.594   3.770  15.714  0.00  0.00    +0.000 OA
BRANCH  13  14
ATOM     14  C   UNL     1      47.088   3.638  14.373  0.00  0.00    +0.000 C 
BRANCH  14  21
ATOM     15  C   UNL     1      45.521   4.413  12.564  0.00  0.00    +0.000 A 
ATOM     16  N   UNL     1      44.989   5.306  11.705  0.00  0.00    +0.000 NA
ATOM     17  C   UNL     1      45.520   6.542  11.726  0.00  0.00    +0.000 A 
ATOM     18  F   UNL     1      45.018   7.444  10.868  0.00  0.00    +0.000 F 
ATOM     19  C   UNL     1      46.559   6.932  12.550  0.00  0.00    +0.000 A 
ATOM     20  C   UNL     1      47.072   6.002  13.442  0.00  0.00    +0.000 A 
ATOM     21  C   UNL     1      46.531   4.712  13.480  0.00  0.00    +0.000 A 
BRANCH  15  23
ATOM     22  C   UNL     1      43.641   3.035  12.474  0.00  0.00    +0.000 C 
ATOM     23  O   UNL     1      45.064   3.108  12.533  0.00  0.00    +0.000 OA
ENDBRANCH  15  23
ENDBRANCH  14  21
ENDBRANCH  13  14
ENDBRANCH   1  13
TORSDOF 5
ENDMDL
MODEL 9
REMARK VINA RESULT:    -5.855      3.757      6.443
REMARK INTER + INTRA:          -8.796
REMARK INTER:                  -7.991
REMARK INTRA:                  -0.804
REMARK UNBOUND:                -1.229
REMARK  Name = 
REMARK  6 active torsions:
REMARK  status: ('A' for Active; 'I' for Inactive)
REMARK    1  A    between atoms: C_1  and  O_2
REMARK    2  A    between atoms: O_2  and  C_3
REMARK    3  A    between atoms: C_9  and  C_10
REMARK    4  A    between atoms: C_10  and  O_11
REMARK    5  A    between atoms: O_11  and  C_12
REMARK    6  A    between atoms: C_16  and  C_17
REMARK                            x       y       z     vdW  Elec       q    Type
REMARK                         _______ _______ _______ _____ _____    ______ ____
ROOT
ATOM      1  C   UNL     1      46.852   4.045  13.741  0.00  0.00    +0.000 A 
ATOM      2  C   UNL     1      45.837   3.584  12.916  0.00  0.00    +0.000 A 
ATOM      3  C   UNL     1      45.362   4.435  11.936  0.00  0.00    +0.000 A 
ATOM      4  N   UNL     1      45.823   5.691  11.739  0.00  0.00    +0.000 NA
ATOM      5  C   UNL     1      46.786   6.149  12.576  0.00  0.00    +0.000 A 
ATOM      6  C   UNL     1      47.306   5.351  13.592  0.00  0.00    +0.000 A 
ENDROOT
BRANCH   5   7
ATOM      7  C   UNL     1      47.314   7.503  12.320  0.00  0.00    +0.000 A 
ATOM      8  C   UNL     1      48.641   7.712  11.893  0.00  0.00    +0.000 A 
ATOM      9  C   UNL     1      49.110   8.986  11.565  0.00  0.00    +0.000 A 
ATOM     10  C   UNL     1      48.264  10.085  11.674  0.00  0.00    +0.000 A 
ATOM     11  C   UNL     1      46.956   9.910  12.118  0.00  0.00    +0.000 A 
ATOM     12  C   UNL     1      46.489   8.633  12.440  0.00  0.00    +0.000 A 
ENDBRANCH   5   7
BRANCH   1  13
ATOM     13  O   UNL     1      47.349   3.155  14.652  0.00  0.00    +0.000 OA
BRANCH  13  14
ATOM     14  C   UNL     1      47.346   3.617  16.011  0.00  0.00    +0.000 C 
BRANCH  14  21
ATOM     15  C   UNL     1      49.390   4.439  17.223  0.00  0.00    +0.000 A 
ATOM     16  N   UNL     1      50.602   4.317  17.803  0.00  0.00    +0.000 NA
ATOM     17  C   UNL     1      51.148   3.088  17.788  0.00  0.00    +0.000 A 
ATOM     18  F   UNL     1      52.362   2.944  18.343  0.00  0.00    +0.000 F 
ATOM     19  C   UNL     1      50.555   1.976  17.218  0.00  0.00    +0.000 A 
ATOM     20  C   UNL     1      49.299   2.123  16.651  0.00  0.00    +0.000 A 
ATOM     21  C   UNL     1      48.675   3.376  16.670  0.00  0.00    +0.000 A 
BRANCH  15  23
ATOM     22  C   UNL     1      48.471   6.214  18.427  0.00  0.00    +0.000 C 
ATOM     23  O   UNL     1      48.817   5.695  17.145  0.00  0.00    +0.000 OA
ENDBRANCH  15  23
ENDBRANCH  14  21
ENDBRANCH  13  14
ENDBRANCH   1  13
TORSDOF 5
ENDMDL
