MODEL 1
REMARK VINA RESULT:    -6.366      0.000      0.000
REMARK INTER + INTRA:          -9.688
REMARK INTER:                  -8.599
REMARK INTRA:                  -1.089
REMARK UNBOUND:                -1.089
REMARK  Name = 
REMARK  8 active torsions:
REMARK  status: ('A' for Active; 'I' for Inactive)
REMARK    1  A    between atoms: C_1  and  O_2
REMARK    2  A    between atoms: O_2  and  C_3
REMARK    3  A    between atoms: C_6  and  C_7
REMARK    4  A    between atoms: C_8  and  C_9
REMARK    5  A    between atoms: C_13  and  C_14
REMARK    6  A    between atoms: C_14  and  C_15
REMARK    7  A    between atoms: N_17  and  C_18
REMARK    8  A    between atoms: C_22  and  C_23
REMARK                            x       y       z     vdW  Elec       q    Type
REMARK                         _______ _______ _______ _____ _____    ______ ____
ROOT
ATOM      1  C   UNL     1      47.066   6.724  11.652  0.00  0.00    +0.000 C 
ATOM      2  C   UNL     1      45.752   6.698  11.929  0.00  0.00    +0.000 C 
ENDROOT
BRANCH   1   6
ATOM      3  C   UNL     1      49.590  10.164  12.135  0.00  0.00    +0.000 A 
ATOM      4  C   UNL     1      50.142   8.889  11.960  0.00  0.00    +0.000 A 
ATOM      5  C   UNL     1      49.327   7.763  11.828  0.00  0.00    +0.000 A 
ATOM      6  C   UNL     1      47.936   7.882  11.877  0.00  0.00    +0.000 A 
ATOM      7  C   UNL     1      47.376   9.154  12.020  0.00  0.00    +0.000 A 
ATOM      8  C   UNL     1      48.186  10.301  12.143  0.00  0.00    +0.000 A 
BRANCH   8   9
ATOM      9  C   UNL     1      47.459  11.608  12.244  0.00  0.00    +0.000 C 
ATOM     10  N   UNL     1      47.767  12.443  13.278  0.00  0.00    +0.000 N 
ATOM     11  O   UNL     1      46.618  11.945  11.418  0.00  0.00    +0.000 OA
ATOM     12  H   UNL     1      48.467  12.193  13.965  0.00  0.00    +0.000 HD
ATOM     13  H   UNL     1      47.301  13.337  13.336  0.00  0.00    +0.000 HD
ENDBRANCH   8   9
BRANCH   3  15
ATOM     14  C   UNL     1      51.265  11.614  11.232  0.00  0.00    +0.000 C 
ATOM     15  O   UNL     1      50.359  11.293  12.282  0.00  0.00    +0.000 OA
ENDBRANCH   3  15
ENDBRANCH   1   6
BRANCH   2  16
ATOM     16  C   UNL     1      45.037   5.429  11.868  0.00  0.00    +0.000 A 
ATOM     17  C   UNL     1      44.248   4.982  12.927  0.00  0.00    +0.000 A 
ATOM     18  C   UNL     1      43.516   3.803  12.792  0.00  0.00    +0.000 A 
ATOM     19  C   UNL     1      43.563   3.076  11.597  0.00  0.00    +0.000 A 
ATOM     20  C   UNL     1      44.361   3.509  10.530  0.00  0.00    +0.000 A 
ATOM     21  C   UNL     1      45.100   4.686  10.682  0.00  0.00    +0.000 A 
BRANCH  20  22
ATOM     22  C   UNL     1      44.419   2.744   9.231  0.00  0.00    +0.000 C 
BRANCH  22  23
ATOM     23  C   UNL     1      45.842   2.701   8.685  0.00  0.00    +0.000 C 
ATOM     24  C   UNL     1      45.999   3.353   7.295  0.00  0.00    +0.000 C 
ATOM     25  N   UNL     1      46.660   2.143   6.786  0.00  0.00    +0.000 NA
ATOM     26  C   UNL     1      48.104   2.354   6.671  0.00  0.00    +0.000 C 
ATOM     27  C   UNL     1      46.337   1.401   8.014  0.00  0.00    +0.000 C 
ENDBRANCH  22  23
ENDBRANCH  20  22
ENDBRANCH   2  16
TORSDOF 6
ENDMDL
MODEL 2
REMARK VINA RESULT:    -6.313      1.661      2.377
REMARK INTER + INTRA:          -9.617
REMARK INTER:                  -8.601
REMARK INTRA:                  -1.016
REMARK UNBOUND:                -1.089
REMARK  Name = 
REMARK  8 active torsions:
REMARK  status: ('A' for Active; 'I' for Inactive)
REMARK    1  A    between atoms: C_1  and  O_2
REMARK    2  A    between atoms: O_2  and  C_3
REMARK    3  A    between atoms: C_6  and  C_7
REMARK    4  A    between atoms: C_8  and  C_9
REMARK    5  A    between atoms: C_13  and  C_14
REMARK    6  A    between atoms: C_14  and  C_15
REMARK    7  A    between atoms: N_17  and  C_18
REMARK    8  A    between atoms: C_22  and  C_23
REMARK                            x       y       z     vdW  Elec       q    Type
REMARK                         _______ _______ _______ _____ _____    ______ ____
ROOT
ATOM      1  C   UNL     1      47.090   6.667  11.678  0.00  0.00    +0.000 C 
ATOM      2  C   UNL     1      45.752   6.762  11.739  0.00  0.00    +0.000 C 
ENDROOT
BRANCH   1   6
ATOM      3  C   UNL     1      49.848   9.878  12.403  0.00  0.00    +0.000 A 
ATOM      4  C   UNL     1      48.496  10.004  12.746  0.00  0.00    +0.000 A 
ATOM      5  C   UNL     1      47.589   8.973  12.490  0.00  0.00    +0.000 A 
ATOM      6  C   UNL     1      48.010   7.792  11.874  0.00  0.00    +0.000 A 
ATOM      7  C   UNL     1      49.363   7.646  11.557  0.00  0.00    +0.000 A 
ATOM      8  C   UNL     1      50.292   8.672  11.820  0.00  0.00    +0.000 A 
BRANCH   8   9
ATOM      9  C   UNL     1      51.718   8.370  11.472  0.00  0.00    +0.000 C 
ATOM     10  N   UNL     1      52.605   8.167  12.488  0.00  0.00    +0.000 N 
ATOM     11  O   UNL     1      52.095   8.285  10.308  0.00  0.00    +0.000 OA
ATOM     12  H   UNL     1      52.316   8.219  13.457  0.00  0.00    +0.000 HD
ATOM     13  H   UNL     1      53.561   7.936  12.260  0.00  0.00    +0.000 HD
ENDBRANCH   8   9
BRANCH   3  15
ATOM     14  C   UNL     1      50.777  11.974  11.721  0.00  0.00    +0.000 C 
ATOM     15  O   UNL     1      50.766  10.874  12.626  0.00  0.00    +0.000 OA
ENDBRANCH   3  15
ENDBRANCH   1   6
BRANCH   2  16
ATOM     16  C   UNL     1      44.951   5.544  11.743  0.00  0.00    +0.000 A 
ATOM     17  C   UNL     1      44.044   5.269  12.765  0.00  0.00    +0.000 A 
ATOM     18  C   UNL     1      43.239   4.133  12.685  0.00  0.00    +0.000 A 
ATOM     19  C   UNL     1      43.333   3.278  11.581  0.00  0.00    +0.000 A 
ATOM     20  C   UNL     1      44.250   3.537  10.554  0.00  0.00    +0.000 A 
ATOM     21  C   UNL     1      45.059   4.673  10.651  0.00  0.00    +0.000 A 
BRANCH  20  22
ATOM     22  C   UNL     1      44.360   2.632   9.353  0.00  0.00    +0.000 C 
BRANCH  22  23
ATOM     23  C   UNL     1      45.772   2.659   8.776  0.00  0.00    +0.000 C 
ATOM     24  C   UNL     1      45.870   3.333   7.391  0.00  0.00    +0.000 C 
ATOM     25  N   UNL     1      46.574   2.159   6.854  0.00  0.00    +0.000 NA
ATOM     26  C   UNL     1      48.003   2.436   6.712  0.00  0.00    +0.000 C 
ATOM     27  C   UNL     1      46.310   1.390   8.080  0.00  0.00    +0.000 C 
ENDBRANCH  22  23
ENDBRANCH  20  22
ENDBRANCH   2  16
TORSDOF 6
ENDMDL
MODEL 3
REMARK VINA RESULT:    -6.236      2.335      2.827
REMARK INTER + INTRA:          -9.513
REMARK INTER:                  -8.371
REMARK INTRA:                  -1.141
REMARK UNBOUND:                -1.089
REMARK  Name = 
REMARK  8 active torsions:
REMARK  status: ('A' for Active; 'I' for Inactive)
REMARK    1  A    between atoms: C_1  and  O_2
REMARK    2  A    between atoms: O_2  and  C_3
REMARK    3  A    between atoms: C_6  and  C_7
REMARK    4  A    between atoms: C_8  and  C_9
REMARK    5  A    between atoms: C_13  and  C_14
REMARK    6  A    between atoms: C_14  and  C_15
REMARK    7  A    between atoms: N_17  and  C_18
REMARK    8  A    between atoms: C_22  and  C_23
REMARK                            x       y       z     vdW  Elec       q    Type
REMARK                         _______ _______ _______ _____ _____    ______ ____
ROOT
ATOM      1  C   UNL     1      47.492   6.820  11.845  0.00  0.00    +0.000 C 
ATOM      2  C   UNL     1      46.486   6.478  12.666  0.00  0.00    +0.000 C 
ENDROOT
BRANCH   1   6
ATOM      3  C   UNL     1      51.094   8.701  13.232  0.00  0.00    +0.000 A 
ATOM      4  C   UNL     1      50.624   8.925  11.933  0.00  0.00    +0.000 A 
ATOM      5  C   UNL     1      49.467   8.297  11.468  0.00  0.00    +0.000 A 
ATOM      6  C   UNL     1      48.755   7.419  12.288  0.00  0.00    +0.000 A 
ATOM      7  C   UNL     1      49.200   7.213  13.597  0.00  0.00    +0.000 A 
ATOM      8  C   UNL     1      50.359   7.849  14.084  0.00  0.00    +0.000 A 
BRANCH   8   9
ATOM      9  C   UNL     1      50.701   7.578  15.517  0.00  0.00    +0.000 C 
ATOM     10  N   UNL     1      50.694   8.621  16.396  0.00  0.00    +0.000 N 
ATOM     11  O   UNL     1      50.967   6.448  15.916  0.00  0.00    +0.000 OA
ATOM     12  H   UNL     1      50.465   9.560  16.095  0.00  0.00    +0.000 HD
ATOM     13  H   UNL     1      50.896   8.440  17.368  0.00  0.00    +0.000 HD
ENDBRANCH   8   9
BRANCH   3  15
ATOM     14  C   UNL     1      52.359  10.701  13.583  0.00  0.00    +0.000 C 
ATOM     15  O   UNL     1      52.235   9.289  13.722  0.00  0.00    +0.000 OA
ENDBRANCH   3  15
ENDBRANCH   1   6
BRANCH   2  16
ATOM     16  C   UNL     1      45.373   5.696  12.142  0.00  0.00    +0.000 A 
ATOM     17  C   UNL     1      44.239   5.433  12.909  0.00  0.00    +0.000 A 
ATOM     18  C   UNL     1      43.164   4.752  12.340  0.00  0.00    +0.000 A 
ATOM     19  C   UNL     1      43.217   4.342  11.002  0.00  0.00    +0.000 A 
ATOM     20  C   UNL     1      44.356   4.590  10.225  0.00  0.00    +0.000 A 
ATOM     21  C   UNL     1      45.432   5.264  10.811  0.00  0.00    +0.000 A 
BRANCH  20  22
ATOM     22  C   UNL     1      44.429   4.165   8.780  0.00  0.00    +0.000 C 
BRANCH  22  23
ATOM     23  C   UNL     1      45.776   3.521   8.467  0.00  0.00    +0.000 C 
ATOM     24  C   UNL     1      46.096   3.438   6.960  0.00  0.00    +0.000 C 
ATOM     25  N   UNL     1      46.382   2.002   7.084  0.00  0.00    +0.000 NA
ATOM     26  C   UNL     1      47.824   1.760   7.056  0.00  0.00    +0.000 C 
ATOM     27  C   UNL     1      45.875   1.979   8.464  0.00  0.00    +0.000 C 
ENDBRANCH  22  23
ENDBRANCH  20  22
ENDBRANCH   2  16
TORSDOF 6
ENDMDL
MODEL 4
REMARK VINA RESULT:    -6.192      5.527      8.843
REMARK INTER + INTRA:          -9.454
REMARK INTER:                  -8.319
REMARK INTRA:                  -1.135
REMARK UNBOUND:                -1.089
REMARK  Name = 
REMARK  8 active torsions:
REMARK  status: ('A' for Active; 'I' for Inactive)
REMARK    1  A    between atoms: C_1  and  O_2
REMARK    2  A    between atoms: O_2  and  C_3
REMARK    3  A    between atoms: C_6  and  C_7
REMARK    4  A    between atoms: C_8  and  C_9
REMARK    5  A    between atoms: C_13  and  C_14
REMARK    6  A    between atoms: C_14  and  C_15
REMARK    7  A    between atoms: N_17  and  C_18
REMARK    8  A    between atoms: C_22  and  C_23
REMARK                            x       y       z     vdW  Elec       q    Type
REMARK                         _______ _______ _______ _____ _____    ______ ____
ROOT
ATOM      1  C   UNL     1      46.956   4.688  14.749  0.00  0.00    +0.000 C 
ATOM      2  C   UNL     1      47.349   3.603  15.435  0.00  0.00    +0.000 C 
ENDROOT
BRANCH   1   6
ATOM      3  C   UNL     1      44.566   4.574  11.183  0.00  0.00    +0.000 A 
ATOM      4  C   UNL     1      45.107   3.400  11.721  0.00  0.00    +0.000 A 
ATOM      5  C   UNL     1      45.905   3.433  12.867  0.00  0.00    +0.000 A 
ATOM      6  C   UNL     1      46.193   4.645  13.498  0.00  0.00    +0.000 A 
ATOM      7  C   UNL     1      45.633   5.819  12.985  0.00  0.00    +0.000 A 
ATOM      8  C   UNL     1      44.815   5.799  11.838  0.00  0.00    +0.000 A 
BRANCH   8   9
ATOM      9  C   UNL     1      44.242   7.119  11.420  0.00  0.00    +0.000 C 
ATOM     10  N   UNL     1      42.929   7.171  11.057  0.00  0.00    +0.000 N 
ATOM     11  O   UNL     1      44.917   8.144  11.415  0.00  0.00    +0.000 OA
ATOM     12  H   UNL     1      42.347   6.342  11.065  0.00  0.00    +0.000 HD
ATOM     13  H   UNL     1      42.529   8.063  10.801  0.00  0.00    +0.000 HD
ENDBRANCH   8   9
BRANCH   3  15
ATOM     14  C   UNL     1      44.362   4.067   8.855  0.00  0.00    +0.000 C 
ATOM     15  O   UNL     1      43.788   4.584  10.051  0.00  0.00    +0.000 OA
ENDBRANCH   3  15
ENDBRANCH   1   6
BRANCH   2  16
ATOM     16  C   UNL     1      47.911   3.769  16.770  0.00  0.00    +0.000 A 
ATOM     17  C   UNL     1      48.968   2.980  17.221  0.00  0.00    +0.000 A 
ATOM     18  C   UNL     1      49.529   3.230  18.474  0.00  0.00    +0.000 A 
ATOM     19  C   UNL     1      49.041   4.272  19.270  0.00  0.00    +0.000 A 
ATOM     20  C   UNL     1      47.972   5.063  18.832  0.00  0.00    +0.000 A 
ATOM     21  C   UNL     1      47.410   4.796  17.580  0.00  0.00    +0.000 A 
BRANCH  20  22
ATOM     22  C   UNL     1      47.437   6.197  19.672  0.00  0.00    +0.000 C 
BRANCH  22  23
ATOM     23  C   UNL     1      47.560   7.527  18.937  0.00  0.00    +0.000 C 
ATOM     24  C   UNL     1      49.016   7.975  18.691  0.00  0.00    +0.000 C 
ATOM     25  N   UNL     1      48.729   9.287  19.289  0.00  0.00    +0.000 NA
ATOM     26  C   UNL     1      48.599  10.309  18.250  0.00  0.00    +0.000 C 
ATOM     27  C   UNL     1      47.406   8.835  19.746  0.00  0.00    +0.000 C 
ENDBRANCH  22  23
ENDBRANCH  20  22
ENDBRANCH   2  16
TORSDOF 6
ENDMDL
MODEL 5
REMARK VINA RESULT:    -6.136      4.538      5.352
REMARK INTER + INTRA:          -9.378
REMARK INTER:                  -8.377
REMARK INTRA:                  -1.001
REMARK UNBOUND:                -1.089
REMARK  Name = 
REMARK  8 active torsions:
REMARK  status: ('A' for Active; 'I' for Inactive)
REMARK    1  A    between atoms: C_1  and  O_2
REMARK    2  A    between atoms: O_2  and  C_3
REMARK    3  A    between atoms: C_6  and  C_7
REMARK    4  A    between atoms: C_8  and  C_9
REMARK    5  A    between atoms: C_13  and  C_14
REMARK    6  A    between atoms: C_14  and  C_15
REMARK    7  A    between atoms: N_17  and  C_18
REMARK    8  A    between atoms: C_22  and  C_23
REMARK                            x       y       z     vdW  Elec       q    Type
REMARK                         _______ _______ _______ _____ _____    ______ ____
ROOT
ATOM      1  C   UNL     1      46.525   4.262  14.995  0.00  0.00    +0.000 C 
ATOM      2  C   UNL     1      46.708   4.092  13.676  0.00  0.00    +0.000 C 
ENDROOT
BRANCH   1   6
ATOM      3  C   UNL     1      49.809   4.254  17.763  0.00  0.00    +0.000 A 
ATOM      4  C   UNL     1      49.028   3.107  17.574  0.00  0.00    +0.000 A 
ATOM      5  C   UNL     1      47.944   3.110  16.693  0.00  0.00    +0.000 A 
ATOM      6  C   UNL     1      47.605   4.266  15.986  0.00  0.00    +0.000 A 
ATOM      7  C   UNL     1      48.397   5.407  16.146  0.00  0.00    +0.000 A 
ATOM      8  C   UNL     1      49.502   5.415  17.021  0.00  0.00    +0.000 A 
BRANCH   8   9
ATOM      9  C   UNL     1      50.293   6.686  17.066  0.00  0.00    +0.000 C 
ATOM     10  N   UNL     1      51.517   6.711  16.464  0.00  0.00    +0.000 N 
ATOM     11  O   UNL     1      49.860   7.698  17.608  0.00  0.00    +0.000 OA
ATOM     12  H   UNL     1      51.890   5.894  15.998  0.00  0.00    +0.000 HD
ATOM     13  H   UNL     1      52.042   7.573  16.466  0.00  0.00    +0.000 HD
ENDBRANCH   8   9
BRANCH   3  15
ATOM     14  C   UNL     1      52.048   3.576  18.261  0.00  0.00    +0.000 C 
ATOM     15  O   UNL     1      50.874   4.294  18.629  0.00  0.00    +0.000 OA
ENDBRANCH   3  15
ENDBRANCH   1   6
BRANCH   2  16
ATOM     16  C   UNL     1      45.591   4.321  12.767  0.00  0.00    +0.000 A 
ATOM     17  C   UNL     1      44.663   5.337  12.992  0.00  0.00    +0.000 A 
ATOM     18  C   UNL     1      43.659   5.573  12.053  0.00  0.00    +0.000 A 
ATOM     19  C   UNL     1      43.589   4.803  10.886  0.00  0.00    +0.000 A 
ATOM     20  C   UNL     1      44.508   3.772  10.656  0.00  0.00    +0.000 A 
ATOM     21  C   UNL     1      45.503   3.537  11.610  0.00  0.00    +0.000 A 
BRANCH  20  22
ATOM     22  C   UNL     1      44.454   2.937   9.401  0.00  0.00    +0.000 C 
BRANCH  22  23
ATOM     23  C   UNL     1      45.844   2.765   8.798  0.00  0.00    +0.000 C 
ATOM     24  C   UNL     1      46.002   3.396   7.398  0.00  0.00    +0.000 C 
ATOM     25  N   UNL     1      46.531   2.131   6.871  0.00  0.00    +0.000 NA
ATOM     26  C   UNL     1      47.981   2.211   6.697  0.00  0.00    +0.000 C 
ATOM     27  C   UNL     1      46.192   1.424   8.116  0.00  0.00    +0.000 C 
ENDBRANCH  22  23
ENDBRANCH  20  22
ENDBRANCH   2  16
TORSDOF 6
ENDMDL
MODEL 6
REMARK VINA RESULT:    -6.067      4.315      7.863
REMARK INTER + INTRA:          -9.284
REMARK INTER:                  -8.149
REMARK INTRA:                  -1.135
REMARK UNBOUND:                -1.089
REMARK  Name = 
REMARK  8 active torsions:
REMARK  status: ('A' for Active; 'I' for Inactive)
REMARK    1  A    between atoms: C_1  and  O_2
REMARK    2  A    between atoms: O_2  and  C_3
REMARK    3  A    between atoms: C_6  and  C_7
REMARK    4  A    between atoms: C_8  and  C_9
REMARK    5  A    between atoms: C_13  and  C_14
REMARK    6  A    between atoms: C_14  and  C_15
REMARK    7  A    between atoms: N_17  and  C_18
REMARK    8  A    between atoms: C_22  and  C_23
REMARK                            x       y       z     vdW  Elec       q    Type
REMARK                         _______ _______ _______ _____ _____    ______ ____
ROOT
ATOM      1  C   UNL     1      48.751   7.656  12.096  0.00  0.00    +0.000 C 
ATOM      2  C   UNL     1      48.926   8.938  11.739  0.00  0.00    +0.000 C 
ENDROOT
BRANCH   1   6
ATOM      3  C   UNL     1      44.956   5.860  12.997  0.00  0.00    +0.000 A 
ATOM      4  C   UNL     1      45.047   7.220  12.680  0.00  0.00    +0.000 A 
ATOM      5  C   UNL     1      46.281   7.816  12.410  0.00  0.00    +0.000 A 
ATOM      6  C   UNL     1      47.459   7.067  12.461  0.00  0.00    +0.000 A 
ATOM      7  C   UNL     1      47.374   5.701  12.747  0.00  0.00    +0.000 A 
ATOM      8  C   UNL     1      46.135   5.084  13.010  0.00  0.00    +0.000 A 
BRANCH   8   9
ATOM      9  C   UNL     1      46.179   3.607  13.257  0.00  0.00    +0.000 C 
ATOM     10  N   UNL     1      45.293   2.810  12.593  0.00  0.00    +0.000 N 
ATOM     11  O   UNL     1      46.996   3.104  14.021  0.00  0.00    +0.000 OA
ATOM     12  H   UNL     1      44.617   3.199  11.948  0.00  0.00    +0.000 HD
ATOM     13  H   UNL     1      45.336   1.812  12.735  0.00  0.00    +0.000 HD
ENDBRANCH   8   9
BRANCH   3  15
ATOM     14  C   UNL     1      42.712   5.368  12.330  0.00  0.00    +0.000 C 
ATOM     15  O   UNL     1      43.763   5.241  13.282  0.00  0.00    +0.000 OA
ENDBRANCH   3  15
ENDBRANCH   1   6
BRANCH   2  16
ATOM     16  C   UNL     1      50.210   9.356  11.191  0.00  0.00    +0.000 A 
ATOM     17  C   UNL     1      50.481  10.692  10.899  0.00  0.00    +0.000 A 
ATOM     18  C   UNL     1      51.751  11.058  10.455  0.00  0.00    +0.000 A 
ATOM     19  C   UNL     1      52.753  10.091  10.311  0.00  0.00    +0.000 A 
ATOM     20  C   UNL     1      52.490   8.744  10.589  0.00  0.00    +0.000 A 
ATOM     21  C   UNL     1      51.209   8.389  11.022  0.00  0.00    +0.000 A 
BRANCH  20  22
ATOM     22  C   UNL     1      53.558   7.689  10.447  0.00  0.00    +0.000 C 
BRANCH  22  23
ATOM     23  C   UNL     1      53.132   6.607   9.460  0.00  0.00    +0.000 C 
ATOM     24  C   UNL     1      54.278   5.671   9.022  0.00  0.00    +0.000 C 
ATOM     25  N   UNL     1      53.957   5.913   7.609  0.00  0.00    +0.000 NA
ATOM     26  C   UNL     1      53.256   4.764   7.036  0.00  0.00    +0.000 C 
ATOM     27  C   UNL     1      53.007   6.979   7.966  0.00  0.00    +0.000 C 
ENDBRANCH  22  23
ENDBRANCH  20  22
ENDBRANCH   2  16
TORSDOF 6
ENDMDL
MODEL 7
REMARK VINA RESULT:    -6.054      5.901      8.363
REMARK INTER + INTRA:          -9.267
REMARK INTER:                  -8.201
REMARK INTRA:                  -1.066
REMARK UNBOUND:                -1.089
REMARK  Name = 
REMARK  8 active torsions:
REMARK  status: ('A' for Active; 'I' for Inactive)
REMARK    1  A    between atoms: C_1  and  O_2
REMARK    2  A    between atoms: O_2  and  C_3
REMARK    3  A    between atoms: C_6  and  C_7
REMARK    4  A    between atoms: C_8  and  C_9
REMARK    5  A    between atoms: C_13  and  C_14
REMARK    6  A    between atoms: C_14  and  C_15
REMARK    7  A    between atoms: N_17  and  C_18
REMARK    8  A    between atoms: C_22  and  C_23
REMARK                            x       y       z     vdW  Elec       q    Type
REMARK                         _______ _______ _______ _____ _____    ______ ____
ROOT
ATOM      1  C   UNL     1      44.867   8.815  11.705  0.00  0.00    +0.000 C 
ATOM      2  C   UNL     1      43.684   8.743  11.075  0.00  0.00    +0.000 C 
ENDROOT
BRANCH   1   6
ATOM      3  C   UNL     1      46.837   5.458  13.519  0.00  0.00    +0.000 A 
ATOM      4  C   UNL     1      47.444   6.719  13.499  0.00  0.00    +0.000 A 
ATOM      5  C   UNL     1      46.819   7.810  12.889  0.00  0.00    +0.000 A 
ATOM      6  C   UNL     1      45.575   7.664  12.272  0.00  0.00    +0.000 A 
ATOM      7  C   UNL     1      44.948   6.415  12.314  0.00  0.00    +0.000 A 
ATOM      8  C   UNL     1      45.560   5.308  12.937  0.00  0.00    +0.000 A 
BRANCH   8   9
ATOM      9  C   UNL     1      44.762   4.041  12.950  0.00  0.00    +0.000 C 
ATOM     10  N   UNL     1      45.359   2.893  12.519  0.00  0.00    +0.000 N 
ATOM     11  O   UNL     1      43.603   4.011  13.352  0.00  0.00    +0.000 OA
ATOM     12  H   UNL     1      46.318   2.888  12.195  0.00  0.00    +0.000 HD
ATOM     13  H   UNL     1      44.836   2.030  12.552  0.00  0.00    +0.000 HD
ENDBRANCH   8   9
BRANCH   3  15
ATOM     14  C   UNL     1      47.359   4.247  15.514  0.00  0.00    +0.000 C 
ATOM     15  O   UNL     1      47.425   4.359  14.096  0.00  0.00    +0.000 OA
ENDBRANCH   3  15
ENDBRANCH   1   6
BRANCH   2  16
ATOM     16  C   UNL     1      43.182   9.913  10.366  0.00  0.00    +0.000 A 
ATOM     17  C   UNL     1      43.974  10.613   9.457  0.00  0.00    +0.000 A 
ATOM     18  C   UNL     1      43.427  11.676   8.740  0.00  0.00    +0.000 A 
ATOM     19  C   UNL     1      42.086  12.034   8.923  0.00  0.00    +0.000 A 
ATOM     20  C   UNL     1      41.284  11.347   9.843  0.00  0.00    +0.000 A 
ATOM     21  C   UNL     1      41.848  10.291  10.564  0.00  0.00    +0.000 A 
BRANCH  20  22
ATOM     22  C   UNL     1      39.835  11.713  10.049  0.00  0.00    +0.000 C 
BRANCH  22  23
ATOM     23  C   UNL     1      39.050  10.537  10.621  0.00  0.00    +0.000 C 
ATOM     24  C   UNL     1      37.618  10.407  10.059  0.00  0.00    +0.000 C 
ATOM     25  N   UNL     1      37.072  10.354  11.422  0.00  0.00    +0.000 NA
ATOM     26  C   UNL     1      36.694   8.985  11.773  0.00  0.00    +0.000 C 
ATOM     27  C   UNL     1      38.379  10.699  12.002  0.00  0.00    +0.000 C 
ENDBRANCH  22  23
ENDBRANCH  20  22
ENDBRANCH   2  16
TORSDOF 6
ENDMDL
MODEL 8
REMARK VINA RESULT:    -5.857      6.267      9.662
REMARK INTER + INTRA:          -9.001
REMARK INTER:                  -7.983
REMARK INTRA:                  -1.019
REMARK UNBOUND:                -1.089
REMARK  Name = 
REMARK  8 active torsions:
REMARK  status: ('A' for Active; 'I' for Inactive)
REMARK    1  A    between atoms: C_1  and  O_2
REMARK    2  A    between atoms: O_2  and  C_3
REMARK    3  A    between atoms: C_6  and  C_7
REMARK    4  A    between atoms: C_8  and  C_9
REMARK    5  A    between atoms: C_13  and  C_14
REMARK    6  A    between atoms: C_14  and  C_15
REMARK    7  A    between atoms: N_17  and  C_18
REMARK    8  A    between atoms: C_22  and  C_23
REMARK                            x       y       z     vdW  Elec       q    Type
REMARK                         _______ _______ _______ _____ _____    ______ ____
ROOT
ATOM      1  C   UNL     1      47.742   5.393  15.172  0.00  0.00    +0.000 C 
ATOM      2  C   UNL     1      47.700   4.356  16.024  0.00  0.00    +0.000 C 
ENDROOT
BRANCH   1   6
ATOM      3  C   UNL     1      45.724   5.423  11.382  0.00  0.00    +0.000 A 
ATOM      4  C   UNL     1      46.697   6.384  11.683  0.00  0.00    +0.000 A 
ATOM      5  C   UNL     1      47.339   6.394  12.923  0.00  0.00    +0.000 A 
ATOM      6  C   UNL     1      47.017   5.449  13.900  0.00  0.00    +0.000 A 
ATOM      7  C   UNL     1      46.068   4.468  13.597  0.00  0.00    +0.000 A 
ATOM      8  C   UNL     1      45.421   4.437  12.345  0.00  0.00    +0.000 A 
BRANCH   8   9
ATOM      9  C   UNL     1      44.460   3.308  12.133  0.00  0.00    +0.000 C 
ATOM     10  N   UNL     1      44.619   2.516  11.034  0.00  0.00    +0.000 N 
ATOM     11  O   UNL     1      43.555   3.071  12.928  0.00  0.00    +0.000 OA
ATOM     12  H   UNL     1      45.366   2.682  10.371  0.00  0.00    +0.000 HD
ATOM     13  H   UNL     1      43.992   1.737  10.900  0.00  0.00    +0.000 HD
ENDBRANCH   8   9
BRANCH   3  15
ATOM     14  C   UNL     1      45.807   5.013   9.027  0.00  0.00    +0.000 C 
ATOM     15  O   UNL     1      45.061   5.388  10.180  0.00  0.00    +0.000 OA
ENDBRANCH   3  15
ENDBRANCH   1   6
BRANCH   2  16
ATOM     16  C   UNL     1      48.286   4.499  17.351  0.00  0.00    +0.000 A 
ATOM     17  C   UNL     1      49.566   4.029  17.640  0.00  0.00    +0.000 A 
ATOM     18  C   UNL     1      50.119   4.262  18.899  0.00  0.00    +0.000 A 
ATOM     19  C   UNL     1      49.397   4.972  19.865  0.00  0.00    +0.000 A 
ATOM     20  C   UNL     1      48.106   5.439  19.591  0.00  0.00    +0.000 A 
ATOM     21  C   UNL     1      47.558   5.189  18.329  0.00  0.00    +0.000 A 
BRANCH  20  22
ATOM     22  C   UNL     1      47.315   6.213  20.616  0.00  0.00    +0.000 C 
BRANCH  22  23
ATOM     23  C   UNL     1      47.859   7.630  20.770  0.00  0.00    +0.000 C 
ATOM     24  C   UNL     1      47.066   8.500  21.768  0.00  0.00    +0.000 C 
ATOM     25  N   UNL     1      46.929   9.559  20.758  0.00  0.00    +0.000 NA
ATOM     26  C   UNL     1      47.843  10.665  21.044  0.00  0.00    +0.000 C 
ATOM     27  C   UNL     1      47.477   8.686  19.709  0.00  0.00    +0.000 C 
ENDBRANCH  22  23
ENDBRANCH  20  22
ENDBRANCH   2  16
TORSDOF 6
ENDMDL
MODEL 9
REMARK VINA RESULT:    -5.815      4.509      5.066
REMARK INTER + INTRA:          -8.944
REMARK INTER:                  -8.081
REMARK INTRA:                  -0.862
REMARK UNBOUND:                -1.089
REMARK  Name = 
REMARK  8 active torsions:
REMARK  status: ('A' for Active; 'I' for Inactive)
REMARK    1  A    between atoms: C_1  and  O_2
REMARK    2  A    between atoms: O_2  and  C_3
REMARK    3  A    between atoms: C_6  and  C_7
REMARK    4  A    between atoms: C_8  and  C_9
REMARK    5  A    between atoms: C_13  and  C_14
REMARK    6  A    between atoms: C_14  and  C_15
REMARK    7  A    between atoms: N_17  and  C_18
REMARK    8  A    between atoms: C_22  and  C_23
REMARK                            x       y       z     vdW  Elec       q    Type
REMARK                         _______ _______ _______ _____ _____    ______ ____
ROOT
ATOM      1  C   UNL     1      46.969   5.222  14.056  0.00  0.00    +0.000 C 
ATOM      2  C   UNL     1      46.526   5.991  13.049  0.00  0.00    +0.000 C 
ENDROOT
BRANCH   1   6
ATOM      3  C   UNL     1      49.871   6.497  16.954  0.00  0.00    +0.000 A 
ATOM      4  C   UNL     1      49.758   7.147  15.719  0.00  0.00    +0.000 A 
ATOM      5  C   UNL     1      48.834   6.722  14.762  0.00  0.00    +0.000 A 
ATOM      6  C   UNL     1      48.003   5.627  15.012  0.00  0.00    +0.000 A 
ATOM      7  C   UNL     1      48.088   4.991  16.255  0.00  0.00    +0.000 A 
ATOM      8  C   UNL     1      49.007   5.416  17.234  0.00  0.00    +0.000 A 
BRANCH   8   9
ATOM      9  C   UNL     1      48.964   4.678  18.537  0.00  0.00    +0.000 C 
ATOM     10  N   UNL     1      50.007   3.859  18.854  0.00  0.00    +0.000 N 
ATOM     11  O   UNL     1      48.031   4.808  19.323  0.00  0.00    +0.000 OA
ATOM     12  H   UNL     1      50.796   3.745  18.229  0.00  0.00    +0.000 HD
ATOM     13  H   UNL     1      49.997   3.380  19.744  0.00  0.00    +0.000 HD
ENDBRANCH   8   9
BRANCH   3  15
ATOM     14  C   UNL     1      52.152   6.603  17.665  0.00  0.00    +0.000 C 
ATOM     15  O   UNL     1      50.777   6.876  17.913  0.00  0.00    +0.000 OA
ENDBRANCH   3  15
ENDBRANCH   1   6
BRANCH   2  16
ATOM     16  C   UNL     1      45.349   5.572  12.297  0.00  0.00    +0.000 A 
ATOM     17  C   UNL     1      44.246   6.410  12.139  0.00  0.00    +0.000 A 
ATOM     18  C   UNL     1      43.177   5.999  11.343  0.00  0.00    +0.000 A 
ATOM     19  C   UNL     1      43.213   4.757  10.698  0.00  0.00    +0.000 A 
ATOM     20  C   UNL     1      44.310   3.902  10.861  0.00  0.00    +0.000 A 
ATOM     21  C   UNL     1      45.371   4.320  11.671  0.00  0.00    +0.000 A 
BRANCH  20  22
ATOM     22  C   UNL     1      44.372   2.563  10.168  0.00  0.00    +0.000 C 
BRANCH  22  23
ATOM     23  C   UNL     1      44.754   2.724   8.700  0.00  0.00    +0.000 C 
ATOM     24  C   UNL     1      45.961   1.864   8.269  0.00  0.00    +0.000 C 
ATOM     25  N   UNL     1      46.623   3.048   7.705  0.00  0.00    +0.000 NA
ATOM     26  C   UNL     1      46.531   3.044   6.245  0.00  0.00    +0.000 C 
ATOM     27  C   UNL     1      45.610   3.942   8.289  0.00  0.00    +0.000 C 
ENDBRANCH  22  23
ENDBRANCH  20  22
ENDBRANCH   2  16
TORSDOF 6
ENDMDL
