MODEL 1
REMARK VINA RESULT:    -7.954      0.000      0.000
REMARK INTER + INTRA:         -10.759
REMARK INTER:                 -10.279
REMARK INTRA:                  -0.479
REMARK UNBOUND:                -0.479
REMARK  Name = 
REMARK  5 active torsions:
REMARK  status: ('A' for Active; 'I' for Inactive)
REMARK    1  A    between atoms: C_2  and  C_4
REMARK    2  A    between atoms: C_6  and  C_7
REMARK    3  A    between atoms: C_7  and  O_8
REMARK    4  A    between atoms: O_8  and  C_9
REMARK    5  A    between atoms: C_13  and  C_14
REMARK                            x       y       z     vdW  Elec       q    Type
REMARK                         _______ _______ _______ _____ _____    ______ ____
ROOT
ATOM      1  O   UNL     1      44.186   6.108  11.676  0.00  0.00    +0.000 OA
ENDROOT
BRANCH   1   2
ATOM      2  C   UNL     1      44.153   4.895  11.059  0.00  0.00    +0.000 A 
ATOM      3  C   UNL     1      43.447   3.897  11.720  0.00  0.00    +0.000 A 
ATOM      4  N   UNL     1      43.325   2.626  11.277  0.00  0.00    +0.000 NA
ATOM      5  C   UNL     1      43.968   2.325  10.130  0.00  0.00    +0.000 A 
ATOM      6  C   UNL     1      44.726   3.232   9.395  0.00  0.00    +0.000 A 
ATOM      7  C   UNL     1      44.804   4.550   9.881  0.00  0.00    +0.000 A 
BRANCH   6   8
ATOM      8  C   UNL     1      45.440   2.790   8.133  0.00  0.00    +0.000 C 
ATOM      9  C   UNL     1      46.215   1.478   8.336  0.00  0.00    +0.000 C 
ATOM     10  C   UNL     1      47.037   1.132   7.103  0.00  0.00    +0.000 C 
ATOM     11  O   UNL     1      47.895   2.216   6.754  0.00  0.00    +0.000 OA
ATOM     12  C   UNL     1      47.165   3.388   6.401  0.00  0.00    +0.000 C 
ATOM     13  C   UNL     1      46.361   3.893   7.590  0.00  0.00    +0.000 C 
ENDBRANCH   6   8
ENDBRANCH   1   2
BRANCH   1  14
ATOM     14  C   UNL     1      45.269   6.982  11.357  0.00  0.00    +0.000 C 
BRANCH  14  17
ATOM     15  C   UNL     1      47.416   5.372  14.046  0.00  0.00    +0.000 A 
ATOM     16  C   UNL     1      46.326   5.641  13.228  0.00  0.00    +0.000 A 
ATOM     17  C   UNL     1      46.422   6.668  12.284  0.00  0.00    +0.000 A 
ATOM     18  C   UNL     1      47.636   7.357  12.185  0.00  0.00    +0.000 A 
ATOM     19  C   UNL     1      48.674   7.017  13.045  0.00  0.00    +0.000 A 
ATOM     20  N   UNL     1      48.598   6.045  13.980  0.00  0.00    +0.000 NA
BRANCH  15  22
ATOM     21  N   UNL     1      47.048   4.687  16.347  0.00  0.00    +0.000 N 
ATOM     22  C   UNL     1      47.311   4.281  15.067  0.00  0.00    +0.000 C 
ATOM     23  O   UNL     1      47.446   3.095  14.786  0.00  0.00    +0.000 OA
ATOM     24  H   UNL     1      46.940   3.994  17.073  0.00  0.00    +0.000 HD
ATOM     25  H   UNL     1      46.907   5.671  16.543  0.00  0.00    +0.000 HD
ENDBRANCH  15  22
ENDBRANCH  14  17
ENDBRANCH   1  14
TORSDOF 5
ENDMDL
MODEL 2
REMARK VINA RESULT:    -7.357      1.629      2.589
REMARK INTER + INTRA:          -9.987
REMARK INTER:                  -9.221
REMARK INTRA:                  -0.766
REMARK UNBOUND:                -0.479
REMARK  Name = 
REMARK  5 active torsions:
REMARK  status: ('A' for Active; 'I' for Inactive)
REMARK    1  A    between atoms: C_2  and  C_4
REMARK    2  A    between atoms: C_6  and  C_7
REMARK    3  A    between atoms: C_7  and  O_8
REMARK    4  A    between atoms: O_8  and  C_9
REMARK    5  A    between atoms: C_13  and  C_14
REMARK                            x       y       z     vdW  Elec       q    Type
REMARK                         _______ _______ _______ _____ _____    ______ ____
ROOT
ATOM      1  O   UNL     1      44.281   6.183  10.975  0.00  0.00    +0.000 OA
ENDROOT
BRANCH   1   2
ATOM      2  C   UNL     1      44.428   4.957  10.403  0.00  0.00    +0.000 A 
ATOM      3  C   UNL     1      43.609   3.951  10.903  0.00  0.00    +0.000 A 
ATOM      4  N   UNL     1      43.631   2.668  10.480  0.00  0.00    +0.000 NA
ATOM      5  C   UNL     1      44.538   2.363   9.529  0.00  0.00    +0.000 A 
ATOM      6  C   UNL     1      45.427   3.279   8.972  0.00  0.00    +0.000 A 
ATOM      7  C   UNL     1      45.352   4.608   9.425  0.00  0.00    +0.000 A 
BRANCH   6   8
ATOM      8  C   UNL     1      46.434   2.833   7.930  0.00  0.00    +0.000 C 
ATOM      9  C   UNL     1      46.128   3.420   6.542  0.00  0.00    +0.000 C 
ATOM     10  C   UNL     1      47.063   2.845   5.488  0.00  0.00    +0.000 C 
ATOM     11  O   UNL     1      47.008   1.420   5.494  0.00  0.00    +0.000 OA
ATOM     12  C   UNL     1      47.455   0.870   6.731  0.00  0.00    +0.000 C 
ATOM     13  C   UNL     1      46.539   1.302   7.867  0.00  0.00    +0.000 C 
ENDBRANCH   6   8
ENDBRANCH   1   2
BRANCH   1  14
ATOM     14  C   UNL     1      44.255   6.248  12.401  0.00  0.00    +0.000 C 
BRANCH  14  17
ATOM     15  C   UNL     1      47.952   6.801  13.074  0.00  0.00    +0.000 A 
ATOM     16  C   UNL     1      46.672   6.985  12.567  0.00  0.00    +0.000 A 
ATOM     17  C   UNL     1      45.668   6.075  12.911  0.00  0.00    +0.000 A 
ATOM     18  C   UNL     1      45.997   5.035  13.788  0.00  0.00    +0.000 A 
ATOM     19  C   UNL     1      47.305   4.931  14.247  0.00  0.00    +0.000 A 
ATOM     20  N   UNL     1      48.298   5.784  13.911  0.00  0.00    +0.000 NA
BRANCH  15  22
ATOM     21  N   UNL     1      50.312   7.366  12.971  0.00  0.00    +0.000 N 
ATOM     22  C   UNL     1      49.033   7.767  12.697  0.00  0.00    +0.000 C 
ATOM     23  O   UNL     1      48.801   8.850  12.171  0.00  0.00    +0.000 OA
ATOM     24  H   UNL     1      51.084   7.963  12.714  0.00  0.00    +0.000 HD
ATOM     25  H   UNL     1      50.475   6.451  13.374  0.00  0.00    +0.000 HD
ENDBRANCH  15  22
ENDBRANCH  14  17
ENDBRANCH   1  14
TORSDOF 5
ENDMDL
MODEL 3
REMARK VINA RESULT:    -7.295      2.616      6.649
REMARK INTER + INTRA:          -9.906
REMARK INTER:                  -9.342
REMARK INTRA:                  -0.565
REMARK UNBOUND:                -0.479
REMARK  Name = 
REMARK  5 active torsions:
REMARK  status: ('A' for Active; 'I' for Inactive)
REMARK    1  A    between atoms: C_2  and  C_4
REMARK    2  A    between atoms: C_6  and  C_7
REMARK    3  A    between atoms: C_7  and  O_8
REMARK    4  A    between atoms: O_8  and  C_9
REMARK    5  A    between atoms: C_13  and  C_14
REMARK                            x       y       z     vdW  Elec       q    Type
REMARK                         _______ _______ _______ _____ _____    ______ ____
ROOT
ATOM      1  O   UNL     1      44.710   3.079  11.926  0.00  0.00    +0.000 OA
ENDROOT
BRANCH   1   2
ATOM      2  C   UNL     1      45.418   4.156  12.363  0.00  0.00    +0.000 A 
ATOM      3  C   UNL     1      46.540   3.873  13.133  0.00  0.00    +0.000 A 
ATOM      4  N   UNL     1      47.350   4.810  13.676  0.00  0.00    +0.000 NA
ATOM      5  C   UNL     1      47.004   6.097  13.467  0.00  0.00    +0.000 A 
ATOM      6  C   UNL     1      45.890   6.501  12.737  0.00  0.00    +0.000 A 
ATOM      7  C   UNL     1      45.090   5.493  12.169  0.00  0.00    +0.000 A 
BRANCH   6   8
ATOM      8  C   UNL     1      45.566   7.975  12.585  0.00  0.00    +0.000 C 
ATOM      9  C   UNL     1      44.587   8.235  11.428  0.00  0.00    +0.000 C 
ATOM     10  C   UNL     1      44.392   9.727  11.204  0.00  0.00    +0.000 C 
ATOM     11  O   UNL     1      45.647  10.372  11.001  0.00  0.00    +0.000 OA
ATOM     12  C   UNL     1      46.493  10.273  12.145  0.00  0.00    +0.000 C 
ATOM     13  C   UNL     1      46.840   8.818  12.426  0.00  0.00    +0.000 C 
ENDBRANCH   6   8
ENDBRANCH   1   2
BRANCH   1  14
ATOM     14  C   UNL     1      43.963   3.225  10.718  0.00  0.00    +0.000 C 
BRANCH  14  17
ATOM     15  C   UNL     1      46.344   2.086   7.985  0.00  0.00    +0.000 A 
ATOM     16  C   UNL     1      45.473   2.038   9.066  0.00  0.00    +0.000 A 
ATOM     17  C   UNL     1      44.932   3.231   9.557  0.00  0.00    +0.000 A 
ATOM     18  C   UNL     1      45.270   4.422   8.904  0.00  0.00    +0.000 A 
ATOM     19  C   UNL     1      46.148   4.373   7.827  0.00  0.00    +0.000 A 
ATOM     20  N   UNL     1      46.701   3.237   7.350  0.00  0.00    +0.000 NA
BRANCH  15  22
ATOM     21  N   UNL     1      47.805   0.943   6.417  0.00  0.00    +0.000 N 
ATOM     22  C   UNL     1      46.934   0.812   7.465  0.00  0.00    +0.000 C 
ATOM     23  O   UNL     1      46.667  -0.286   7.942  0.00  0.00    +0.000 OA
ATOM     24  H   UNL     1      48.255   0.121   6.043  0.00  0.00    +0.000 HD
ATOM     25  H   UNL     1      48.032   1.866   6.067  0.00  0.00    +0.000 HD
ENDBRANCH  15  22
ENDBRANCH  14  17
ENDBRANCH   1  14
TORSDOF 5
ENDMDL
MODEL 4
REMARK VINA RESULT:    -7.235      1.675      2.203
REMARK INTER + INTRA:          -9.830
REMARK INTER:                  -9.160
REMARK INTRA:                  -0.670
REMARK UNBOUND:                -0.479
REMARK  Name = 
REMARK  5 active torsions:
REMARK  status: ('A' for Active; 'I' for Inactive)
REMARK    1  A    between atoms: C_2  and  C_4
REMARK    2  A    between atoms: C_6  and  C_7
REMARK    3  A    between atoms: C_7  and  O_8
REMARK    4  A    between atoms: O_8  and  C_9
REMARK    5  A    between atoms: C_13  and  C_14
REMARK                            x       y       z     vdW  Elec       q    Type
REMARK                         _______ _______ _______ _____ _____    ______ ____
ROOT
ATOM      1  O   UNL     1      45.894   6.850  12.923  0.00  0.00    +0.000 OA
ENDROOT
BRANCH   1   2
ATOM      2  C   UNL     1      45.083   6.023  12.209  0.00  0.00    +0.000 A 
ATOM      3  C   UNL     1      43.817   5.807  12.741  0.00  0.00    +0.000 A 
ATOM      4  N   UNL     1      42.884   4.999  12.189  0.00  0.00    +0.000 NA
ATOM      5  C   UNL     1      43.243   4.346  11.065  0.00  0.00    +0.000 A 
ATOM      6  C   UNL     1      44.490   4.462  10.455  0.00  0.00    +0.000 A 
ATOM      7  C   UNL     1      45.420   5.334  11.050  0.00  0.00    +0.000 A 
BRANCH   6   8
ATOM      8  C   UNL     1      44.811   3.661   9.208  0.00  0.00    +0.000 C 
ATOM      9  C   UNL     1      45.263   2.230   9.542  0.00  0.00    +0.000 C 
ATOM     10  C   UNL     1      45.718   1.495   8.289  0.00  0.00    +0.000 C 
ATOM     11  O   UNL     1      46.732   2.236   7.614  0.00  0.00    +0.000 OA
ATOM     12  C   UNL     1      46.258   3.500   7.156  0.00  0.00    +0.000 C 
ATOM     13  C   UNL     1      45.852   4.375   8.333  0.00  0.00    +0.000 C 
ENDBRANCH   6   8
ENDBRANCH   1   2
BRANCH   1  14
ATOM     14  C   UNL     1      47.299   6.600  12.876  0.00  0.00    +0.000 C 
BRANCH  14  17
ATOM     15  C   UNL     1      47.891   4.684  16.102  0.00  0.00    +0.000 A 
ATOM     16  C   UNL     1      47.428   4.994  14.830  0.00  0.00    +0.000 A 
ATOM     17  C   UNL     1      47.762   6.229  14.266  0.00  0.00    +0.000 A 
ATOM     18  C   UNL     1      48.587   7.085  15.005  0.00  0.00    +0.000 A 
ATOM     19  C   UNL     1      49.006   6.690  16.270  0.00  0.00    +0.000 A 
ATOM     20  N   UNL     1      48.676   5.512  16.845  0.00  0.00    +0.000 NA
BRANCH  15  22
ATOM     21  N   UNL     1      48.437   2.361  16.552  0.00  0.00    +0.000 N 
ATOM     22  C   UNL     1      47.523   3.367  16.713  0.00  0.00    +0.000 C 
ATOM     23  O   UNL     1      46.477   3.189  17.326  0.00  0.00    +0.000 OA
ATOM     24  H   UNL     1      48.256   1.458  16.965  0.00  0.00    +0.000 HD
ATOM     25  H   UNL     1      49.309   2.547  16.071  0.00  0.00    +0.000 HD
ENDBRANCH  15  22
ENDBRANCH  14  17
ENDBRANCH   1  14
TORSDOF 5
ENDMDL
MODEL 5
REMARK VINA RESULT:    -7.069      2.621      6.962
REMARK INTER + INTRA:          -9.614
REMARK INTER:                  -9.003
REMARK INTRA:                  -0.611
REMARK UNBOUND:                -0.479
REMARK  Name = 
REMARK  5 active torsions:
REMARK  status: ('A' for Active; 'I' for Inactive)
REMARK    1  A    between atoms: C_2  and  C_4
REMARK    2  A    between atoms: C_6  and  C_7
REMARK    3  A    between atoms: C_7  and  O_8
REMARK    4  A    between atoms: O_8  and  C_9
REMARK    5  A    between atoms: C_13  and  C_14
REMARK                            x       y       z     vdW  Elec       q    Type
REMARK                         _______ _______ _______ _____ _____    ______ ____
ROOT
ATOM      1  O   UNL     1      44.497   4.891  10.359  0.00  0.00    +0.000 OA
ENDROOT
BRANCH   1   2
ATOM      2  C   UNL     1      45.296   5.037  11.451  0.00  0.00    +0.000 A 
ATOM      3  C   UNL     1      45.113   4.105  12.466  0.00  0.00    +0.000 A 
ATOM      4  N   UNL     1      45.794   4.104  13.634  0.00  0.00    +0.000 NA
ATOM      5  C   UNL     1      46.683   5.103  13.812  0.00  0.00    +0.000 A 
ATOM      6  C   UNL     1      46.932   6.107  12.880  0.00  0.00    +0.000 A 
ATOM      7  C   UNL     1      46.219   6.054  11.669  0.00  0.00    +0.000 A 
BRANCH   6   8
ATOM      8  C   UNL     1      47.928   7.208  13.186  0.00  0.00    +0.000 C 
ATOM      9  C   UNL     1      49.024   7.312  12.112  0.00  0.00    +0.000 C 
ATOM     10  C   UNL     1      50.088   8.323  12.514  0.00  0.00    +0.000 C 
ATOM     11  O   UNL     1      50.621   8.004  13.798  0.00  0.00    +0.000 OA
ATOM     12  C   UNL     1      49.632   8.074  14.823  0.00  0.00    +0.000 C 
ATOM     13  C   UNL     1      48.543   7.039  14.583  0.00  0.00    +0.000 C 
ENDBRANCH   6   8
ENDBRANCH   1   2
BRANCH   1  14
ATOM     14  C   UNL     1      45.107   5.004   9.073  0.00  0.00    +0.000 C 
BRANCH  14  17
ATOM     15  C   UNL     1      46.858   2.144   7.290  0.00  0.00    +0.000 A 
ATOM     16  C   UNL     1      46.522   3.434   7.677  0.00  0.00    +0.000 A 
ATOM     17  C   UNL     1      45.493   3.619   8.606  0.00  0.00    +0.000 A 
ATOM     18  C   UNL     1      44.871   2.481   9.132  0.00  0.00    +0.000 A 
ATOM     19  C   UNL     1      45.277   1.227   8.687  0.00  0.00    +0.000 A 
ATOM     20  N   UNL     1      46.252   1.024   7.774  0.00  0.00    +0.000 NA
BRANCH  15  22
ATOM     21  N   UNL     1      48.957   2.872   6.309  0.00  0.00    +0.000 N 
ATOM     22  C   UNL     1      47.951   1.944   6.286  0.00  0.00    +0.000 C 
ATOM     23  O   UNL     1      47.960   1.010   5.492  0.00  0.00    +0.000 OA
ATOM     24  H   UNL     1      49.735   2.774   5.674  0.00  0.00    +0.000 HD
ATOM     25  H   UNL     1      48.940   3.613   6.999  0.00  0.00    +0.000 HD
ENDBRANCH  15  22
ENDBRANCH  14  17
ENDBRANCH   1  14
TORSDOF 5
ENDMDL
MODEL 6
REMARK VINA RESULT:    -6.917      2.677      6.635
REMARK INTER + INTRA:          -9.418
REMARK INTER:                  -9.027
REMARK INTRA:                  -0.391
REMARK UNBOUND:                -0.479
REMARK  Name = 
REMARK  5 active torsions:
REMARK  status: ('A' for Active; 'I' for Inactive)
REMARK    1  A    between atoms: C_2  and  C_4
REMARK    2  A    between atoms: C_6  and  C_7
REMARK    3  A    between atoms: C_7  and  O_8
REMARK    4  A    between atoms: O_8  and  C_9
REMARK    5  A    between atoms: C_13  and  C_14
REMARK                            x       y       z     vdW  Elec       q    Type
REMARK                         _______ _______ _______ _____ _____    ______ ____
ROOT
ATOM      1  O   UNL     1      44.628   3.604  11.585  0.00  0.00    +0.000 OA
ENDROOT
BRANCH   1   2
ATOM      2  C   UNL     1      44.858   4.929  11.792  0.00  0.00    +0.000 A 
ATOM      3  C   UNL     1      43.843   5.790  11.391  0.00  0.00    +0.000 A 
ATOM      4  N   UNL     1      43.900   7.138  11.492  0.00  0.00    +0.000 NA
ATOM      5  C   UNL     1      45.042   7.655  11.990  0.00  0.00    +0.000 A 
ATOM      6  C   UNL     1      46.134   6.895  12.400  0.00  0.00    +0.000 A 
ATOM      7  C   UNL     1      46.020   5.497  12.300  0.00  0.00    +0.000 A 
BRANCH   6   8
ATOM      8  C   UNL     1      47.388   7.572  12.917  0.00  0.00    +0.000 C 
ATOM      9  C   UNL     1      48.293   8.063  11.774  0.00  0.00    +0.000 C 
ATOM     10  C   UNL     1      49.608   8.606  12.315  0.00  0.00    +0.000 C 
ATOM     11  O   UNL     1      50.254   7.633  13.132  0.00  0.00    +0.000 OA
ATOM     12  C   UNL     1      49.483   7.302  14.285  0.00  0.00    +0.000 C 
ATOM     13  C   UNL     1      48.165   6.660  13.878  0.00  0.00    +0.000 C 
ENDBRANCH   6   8
ENDBRANCH   1   2
BRANCH   1  14
ATOM     14  C   UNL     1      43.976   3.228  10.372  0.00  0.00    +0.000 C 
BRANCH  14  17
ATOM     15  C   UNL     1      46.446   1.988   7.766  0.00  0.00    +0.000 A 
ATOM     16  C   UNL     1      45.514   1.977   8.795  0.00  0.00    +0.000 A 
ATOM     17  C   UNL     1      45.008   3.193   9.268  0.00  0.00    +0.000 A 
ATOM     18  C   UNL     1      45.442   4.369   8.648  0.00  0.00    +0.000 A 
ATOM     19  C   UNL     1      46.376   4.284   7.621  0.00  0.00    +0.000 A 
ATOM     20  N   UNL     1      46.897   3.124   7.164  0.00  0.00    +0.000 NA
BRANCH  15  22
ATOM     21  N   UNL     1      47.688   0.750   6.086  0.00  0.00    +0.000 N 
ATOM     22  C   UNL     1      46.998   0.689   7.266  0.00  0.00    +0.000 C 
ATOM     23  O   UNL     1      46.854  -0.368   7.869  0.00  0.00    +0.000 OA
ATOM     24  H   UNL     1      48.107  -0.089   5.714  0.00  0.00    +0.000 HD
ATOM     25  H   UNL     1      47.821   1.644   5.628  0.00  0.00    +0.000 HD
ENDBRANCH  15  22
ENDBRANCH  14  17
ENDBRANCH   1  14
TORSDOF 5
ENDMDL
MODEL 7
REMARK VINA RESULT:    -6.787      2.302      7.398
REMARK INTER + INTRA:          -9.250
REMARK INTER:                  -8.639
REMARK INTRA:                  -0.611
REMARK UNBOUND:                -0.479
REMARK  Name = 
REMARK  5 active torsions:
REMARK  status: ('A' for Active; 'I' for Inactive)
REMARK    1  A    between atoms: C_2  and  C_4
REMARK    2  A    between atoms: C_6  and  C_7
REMARK    3  A    between atoms: C_7  and  O_8
REMARK    4  A    between atoms: O_8  and  C_9
REMARK    5  A    between atoms: C_13  and  C_14
REMARK                            x       y       z     vdW  Elec       q    Type
REMARK                         _______ _______ _______ _____ _____    ______ ____
ROOT
ATOM      1  O   UNL     1      44.797   5.092  11.339  0.00  0.00    +0.000 OA
ENDROOT
BRANCH   1   2
ATOM      2  C   UNL     1      45.780   5.449  12.210  0.00  0.00    +0.000 A 
ATOM      3  C   UNL     1      46.695   6.385  11.741  0.00  0.00    +0.000 A 
ATOM      4  N   UNL     1      47.753   6.841  12.449  0.00  0.00    +0.000 NA
ATOM      5  C   UNL     1      47.925   6.313  13.678  0.00  0.00    +0.000 A 
ATOM      6  C   UNL     1      47.091   5.352  14.243  0.00  0.00    +0.000 A 
ATOM      7  C   UNL     1      45.990   4.925  13.480  0.00  0.00    +0.000 A 
BRANCH   6   8
ATOM      8  C   UNL     1      47.387   4.794  15.622  0.00  0.00    +0.000 C 
ATOM      9  C   UNL     1      48.545   5.537  16.309  0.00  0.00    +0.000 C 
ATOM     10  C   UNL     1      48.917   4.868  17.625  0.00  0.00    +0.000 C 
ATOM     11  O   UNL     1      49.210   3.488  17.420  0.00  0.00    +0.000 OA
ATOM     12  C   UNL     1      48.079   2.765  16.939  0.00  0.00    +0.000 C 
ATOM     13  C   UNL     1      47.657   3.283  15.572  0.00  0.00    +0.000 C 
ENDBRANCH   6   8
ENDBRANCH   1   2
BRANCH   1  14
ATOM     14  C   UNL     1      45.001   5.383   9.957  0.00  0.00    +0.000 C 
BRANCH  14  17
ATOM     15  C   UNL     1      46.412   2.873   7.478  0.00  0.00    +0.000 A 
ATOM     16  C   UNL     1      46.123   4.084   8.093  0.00  0.00    +0.000 A 
ATOM     17  C   UNL     1      45.324   4.090   9.241  0.00  0.00    +0.000 A 
ATOM     18  C   UNL     1      44.882   2.860   9.740  0.00  0.00    +0.000 A 
ATOM     19  C   UNL     1      45.224   1.696   9.059  0.00  0.00    +0.000 A 
ATOM     20  N   UNL     1      45.974   1.667   7.935  0.00  0.00    +0.000 NA
BRANCH  15  22
ATOM     21  N   UNL     1      48.561   2.489   6.414  0.00  0.00    +0.000 N 
ATOM     22  C   UNL     1      47.256   2.865   6.241  0.00  0.00    +0.000 C 
ATOM     23  O   UNL     1      46.818   3.168   5.137  0.00  0.00    +0.000 OA
ATOM     24  H   UNL     1      49.171   2.439   5.612  0.00  0.00    +0.000 HD
ATOM     25  H   UNL     1      48.885   2.211   7.332  0.00  0.00    +0.000 HD
ENDBRANCH  15  22
ENDBRANCH  14  17
ENDBRANCH   1  14
TORSDOF 5
ENDMDL
MODEL 8
REMARK VINA RESULT:    -6.737      3.189      5.474
REMARK INTER + INTRA:          -9.186
REMARK INTER:                  -8.472
REMARK INTRA:                  -0.714
REMARK UNBOUND:                -0.479
REMARK  Name = 
REMARK  5 active torsions:
REMARK  status: ('A' for Active; 'I' for Inactive)
REMARK    1  A    between atoms: C_2  and  C_4
REMARK    2  A    between atoms: C_6  and  C_7
REMARK    3  A    between atoms: C_7  and  O_8
REMARK    4  A    between atoms: O_8  and  C_9
REMARK    5  A    between atoms: C_13  and  C_14
REMARK                            x       y       z     vdW  Elec       q    Type
REMARK                         _______ _______ _______ _____ _____    ______ ____
ROOT
ATOM      1  O   UNL     1      49.198   6.688  14.866  0.00  0.00    +0.000 OA
ENDROOT
BRANCH   1   2
ATOM      2  C   UNL     1      48.100   6.767  14.067  0.00  0.00    +0.000 A 
ATOM      3  C   UNL     1      47.564   8.038  13.897  0.00  0.00    +0.000 A 
ATOM      4  N   UNL     1      46.462   8.310  13.162  0.00  0.00    +0.000 NA
ATOM      5  C   UNL     1      45.844   7.255  12.591  0.00  0.00    +0.000 A 
ATOM      6  C   UNL     1      46.273   5.936  12.713  0.00  0.00    +0.000 A 
ATOM      7  C   UNL     1      47.437   5.703  13.466  0.00  0.00    +0.000 A 
BRANCH   6   8
ATOM      8  C   UNL     1      45.491   4.813  12.060  0.00  0.00    +0.000 C 
ATOM      9  C   UNL     1      44.907   5.230  10.700  0.00  0.00    +0.000 C 
ATOM     10  C   UNL     1      44.009   4.139  10.134  0.00  0.00    +0.000 C 
ATOM     11  O   UNL     1      42.993   3.790  11.072  0.00  0.00    +0.000 OA
ATOM     12  C   UNL     1      43.535   3.244  12.272  0.00  0.00    +0.000 C 
ATOM     13  C   UNL     1      44.391   4.278  12.989  0.00  0.00    +0.000 C 
ENDBRANCH   6   8
ENDBRANCH   1   2
BRANCH   1  14
ATOM     14  C   UNL     1      49.054   7.090  16.228  0.00  0.00    +0.000 C 
BRANCH  14  17
ATOM     15  C   UNL     1      49.356   3.528  17.511  0.00  0.00    +0.000 A 
ATOM     16  C   UNL     1      49.495   4.639  16.690  0.00  0.00    +0.000 A 
ATOM     17  C   UNL     1      48.911   5.849  17.080  0.00  0.00    +0.000 A 
ATOM     18  C   UNL     1      48.240   5.889  18.307  0.00  0.00    +0.000 A 
ATOM     19  C   UNL     1      48.155   4.726  19.065  0.00  0.00    +0.000 A 
ATOM     20  N   UNL     1      48.690   3.540  18.699  0.00  0.00    +0.000 NA
BRANCH  15  22
ATOM     21  N   UNL     1      50.942   1.733  17.918  0.00  0.00    +0.000 N 
ATOM     22  C   UNL     1      49.970   2.228  17.090  0.00  0.00    +0.000 C 
ATOM     23  O   UNL     1      49.630   1.631  16.075  0.00  0.00    +0.000 OA
ATOM     24  H   UNL     1      51.373   0.847  17.700  0.00  0.00    +0.000 HD
ATOM     25  H   UNL     1      51.178   2.231  18.768  0.00  0.00    +0.000 HD
ENDBRANCH  15  22
ENDBRANCH  14  17
ENDBRANCH   1  14
TORSDOF 5
ENDMDL
MODEL 9
REMARK VINA RESULT:    -6.676      2.601      6.619
REMARK INTER + INTRA:          -9.107
REMARK INTER:                  -8.307
REMARK INTRA:                  -0.799
REMARK UNBOUND:                -0.479
REMARK  Name = 
REMARK  5 active torsions:
REMARK  status: ('A' for Active; 'I' for Inactive)
REMARK    1  A    between atoms: C_2  and  C_4
REMARK    2  A    between atoms: C_6  and  C_7
REMARK    3  A    between atoms: C_7  and  O_8
REMARK    4  A    between atoms: O_8  and  C_9
REMARK    5  A    between atoms: C_13  and  C_14
REMARK                            x       y       z     vdW  Elec       q    Type
REMARK                         _______ _______ _______ _____ _____    ______ ____
ROOT
ATOM      1  O   UNL     1      44.707   6.621  12.849  0.00  0.00    +0.000 OA
ENDROOT
BRANCH   1   2
ATOM      2  C   UNL     1      46.066   6.640  12.789  0.00  0.00    +0.000 A 
ATOM      3  C   UNL     1      46.722   5.729  13.610  0.00  0.00    +0.000 A 
ATOM      4  N   UNL     1      48.066   5.618  13.706  0.00  0.00    +0.000 NA
ATOM      5  C   UNL     1      48.795   6.481  12.969  0.00  0.00    +0.000 A 
ATOM      6  C   UNL     1      48.250   7.452  12.132  0.00  0.00    +0.000 A 
ATOM      7  C   UNL     1      46.848   7.515  12.044  0.00  0.00    +0.000 A 
BRANCH   6   8
ATOM      8  C   UNL     1      49.154   8.399  11.368  0.00  0.00    +0.000 C 
ATOM      9  C   UNL     1      50.641   8.149  11.669  0.00  0.00    +0.000 C 
ATOM     10  C   UNL     1      51.517   9.202  11.005  0.00  0.00    +0.000 C 
ATOM     11  O   UNL     1      51.103  10.512  11.388  0.00  0.00    +0.000 OA
ATOM     12  C   UNL     1      49.776  10.803  10.958  0.00  0.00    +0.000 C 
ATOM     13  C   UNL     1      48.781   9.866  11.627  0.00  0.00    +0.000 C 
ENDBRANCH   6   8
ENDBRANCH   1   2
BRANCH   1  14
ATOM     14  C   UNL     1      43.992   6.580  11.614  0.00  0.00    +0.000 C 
BRANCH  14  17
ATOM     15  C   UNL     1      44.718   3.473   9.553  0.00  0.00    +0.000 A 
ATOM     16  C   UNL     1      44.726   4.797   9.971  0.00  0.00    +0.000 A 
ATOM     17  C   UNL     1      43.995   5.155  11.109  0.00  0.00    +0.000 A 
ATOM     18  C   UNL     1      43.315   4.144  11.797  0.00  0.00    +0.000 A 
ATOM     19  C   UNL     1      43.366   2.844  11.305  0.00  0.00    +0.000 A 
ATOM     20  N   UNL     1      44.045   2.478  10.196  0.00  0.00    +0.000 NA
BRANCH  15  22
ATOM     21  N   UNL     1      45.945   1.799   8.291  0.00  0.00    +0.000 N 
ATOM     22  C   UNL     1      45.490   3.089   8.328  0.00  0.00    +0.000 C 
ATOM     23  O   UNL     1      45.704   3.869   7.407  0.00  0.00    +0.000 OA
ATOM     24  H   UNL     1      46.448   1.475   7.479  0.00  0.00    +0.000 HD
ATOM     25  H   UNL     1      45.723   1.167   9.051  0.00  0.00    +0.000 HD
ENDBRANCH  15  22
ENDBRANCH  14  17
ENDBRANCH   1  14
TORSDOF 5
ENDMDL
