MODEL 1
REMARK VINA RESULT:    -7.827      0.000      0.000
REMARK INTER + INTRA:         -12.268
REMARK INTER:                 -11.030
REMARK INTRA:                  -1.238
REMARK UNBOUND:                -1.238
REMARK  Name = 
REMARK  9 active torsions:
REMARK  status: ('A' for Active; 'I' for Inactive)
REMARK    1  A    between atoms: C_1  and  C_2
REMARK    2  A    between atoms: C_4  and  O_5
REMARK    3  A    between atoms: O_5  and  C_6
REMARK    4  A    between atoms: C_6  and  C_7
REMARK    5  A    between atoms: C_7  and  C_8
REMARK    6  A    between atoms: C_12  and  O_13
REMARK    7  A    between atoms: O_13  and  C_14
REMARK    8  A    between atoms: C_18  and  C_19
REMARK    9  A    between atoms: C_22  and  C_23
REMARK                            x       y       z     vdW  Elec       q    Type
REMARK                         _______ _______ _______ _____ _____    ______ ____
ROOT
ATOM      1  C   UNL     1      43.896   2.721  11.629  0.00  0.00    +0.000 C 
ENDROOT
BRANCH   1   2
ATOM      2  O   UNL     1      43.603   3.254  10.331  0.00  0.00    +0.000 OA
BRANCH   2   6
ATOM      3  C   UNL     1      46.601   0.225   7.798  0.00  0.00    +0.000 C 
ATOM      4  C   UNL     1      46.054   1.607   8.041  0.00  0.00    +0.000 A 
ATOM      5  C   UNL     1      45.095   1.766   9.062  0.00  0.00    +0.000 A 
ATOM      6  C   UNL     1      44.543   3.013   9.360  0.00  0.00    +0.000 A 
ATOM      7  C   UNL     1      44.955   4.122   8.624  0.00  0.00    +0.000 A 
ATOM      8  C   UNL     1      45.902   3.987   7.599  0.00  0.00    +0.000 A 
ATOM      9  C   UNL     1      46.463   2.733   7.301  0.00  0.00    +0.000 A 
BRANCH   9  10
ATOM     10  C   UNL     1      47.451   2.607   6.183  0.00  0.00    +0.000 C 
ATOM     11  N   UNL     1      48.778   2.686   6.505  0.00  0.00    +0.000 N 
ATOM     12  O   UNL     1      47.121   2.424   5.018  0.00  0.00    +0.000 OA
ATOM     13  H   UNL     1      49.124   2.635   7.451  0.00  0.00    +0.000 HD
ATOM     14  H   UNL     1      49.431   2.511   5.751  0.00  0.00    +0.000 HD
ENDBRANCH   9  10
ENDBRANCH   2   6
ENDBRANCH   1   2
BRANCH   1  15
ATOM     15  C   UNL     1      43.654   3.784  12.701  0.00  0.00    +0.000 C 
BRANCH  15  16
ATOM     16  C   UNL     1      44.641   4.931  12.584  0.00  0.00    +0.000 A 
ATOM     17  C   UNL     1      45.932   4.753  13.108  0.00  0.00    +0.000 A 
ATOM     18  C   UNL     1      46.891   5.760  13.005  0.00  0.00    +0.000 A 
ATOM     19  C   UNL     1      46.574   6.967  12.388  0.00  0.00    +0.000 A 
ATOM     20  C   UNL     1      45.296   7.172  11.865  0.00  0.00    +0.000 A 
ATOM     21  C   UNL     1      44.324   6.149  11.931  0.00  0.00    +0.000 A 
ATOM     22  C   UNL     1      42.960   6.354  11.319  0.00  0.00    +0.000 C 
BRANCH  20  23
ATOM     23  O   UNL     1      44.938   8.338  11.225  0.00  0.00    +0.000 OA
BRANCH  23  24
ATOM     24  C   UNL     1      44.924   9.576  11.969  0.00  0.00    +0.000 C 
ATOM     25  C   UNL     1      44.006  10.713  11.450  0.00  0.00    +0.000 C 
ATOM     26  C   UNL     1      45.150  11.704  11.726  0.00  0.00    +0.000 C 
ATOM     27  C   UNL     1      46.121  10.515  11.659  0.00  0.00    +0.000 C 
ENDBRANCH  23  24
ENDBRANCH  20  23
ENDBRANCH  15  16
ENDBRANCH   1  15
TORSDOF 7
ENDMDL
MODEL 2
REMARK VINA RESULT:    -7.769      1.739      3.065
REMARK INTER + INTRA:         -12.186
REMARK INTER:                 -11.071
REMARK INTRA:                  -1.115
REMARK UNBOUND:                -1.238
REMARK  Name = 
REMARK  9 active torsions:
REMARK  status: ('A' for Active; 'I' for Inactive)
REMARK    1  A    between atoms: C_1  and  C_2
REMARK    2  A    between atoms: C_4  and  O_5
REMARK    3  A    between atoms: O_5  and  C_6
REMARK    4  A    between atoms: C_6  and  C_7
REMARK    5  A    between atoms: C_7  and  C_8
REMARK    6  A    between atoms: C_12  and  O_13
REMARK    7  A    between atoms: O_13  and  C_14
REMARK    8  A    between atoms: C_18  and  C_19
REMARK    9  A    between atoms: C_22  and  C_23
REMARK                            x       y       z     vdW  Elec       q    Type
REMARK                         _______ _______ _______ _____ _____    ______ ____
ROOT
ATOM      1  C   UNL     1      43.914   2.759  11.598  0.00  0.00    +0.000 C 
ENDROOT
BRANCH   1   2
ATOM      2  O   UNL     1      43.659   3.350  10.317  0.00  0.00    +0.000 OA
BRANCH   2   6
ATOM      3  C   UNL     1      46.612   0.242   7.827  0.00  0.00    +0.000 C 
ATOM      4  C   UNL     1      46.073   1.631   8.039  0.00  0.00    +0.000 A 
ATOM      5  C   UNL     1      45.130   1.822   9.069  0.00  0.00    +0.000 A 
ATOM      6  C   UNL     1      44.585   3.079   9.340  0.00  0.00    +0.000 A 
ATOM      7  C   UNL     1      44.990   4.166   8.567  0.00  0.00    +0.000 A 
ATOM      8  C   UNL     1      45.922   4.000   7.534  0.00  0.00    +0.000 A 
ATOM      9  C   UNL     1      46.475   2.735   7.262  0.00  0.00    +0.000 A 
BRANCH   9  10
ATOM     10  C   UNL     1      47.447   2.575   6.134  0.00  0.00    +0.000 C 
ATOM     11  N   UNL     1      48.779   2.599   6.444  0.00  0.00    +0.000 N 
ATOM     12  O   UNL     1      47.098   2.411   4.972  0.00  0.00    +0.000 OA
ATOM     13  H   UNL     1      49.131   2.529   7.387  0.00  0.00    +0.000 HD
ATOM     14  H   UNL     1      49.417   2.402   5.683  0.00  0.00    +0.000 HD
ENDBRANCH   9  10
ENDBRANCH   2   6
ENDBRANCH   1   2
BRANCH   1  15
ATOM     15  C   UNL     1      43.850   3.826  12.691  0.00  0.00    +0.000 C 
BRANCH  15  16
ATOM     16  C   UNL     1      44.798   4.976  12.406  0.00  0.00    +0.000 A 
ATOM     17  C   UNL     1      44.308   6.078  11.684  0.00  0.00    +0.000 A 
ATOM     18  C   UNL     1      45.123   7.177  11.416  0.00  0.00    +0.000 A 
ATOM     19  C   UNL     1      46.445   7.190  11.853  0.00  0.00    +0.000 A 
ATOM     20  C   UNL     1      46.958   6.105  12.566  0.00  0.00    +0.000 A 
ATOM     21  C   UNL     1      46.135   4.999  12.875  0.00  0.00    +0.000 A 
ATOM     22  C   UNL     1      46.677   3.851  13.690  0.00  0.00    +0.000 C 
BRANCH  20  23
ATOM     23  O   UNL     1      48.251   6.078  13.040  0.00  0.00    +0.000 OA
BRANCH  23  24
ATOM     24  C   UNL     1      48.740   7.190  13.821  0.00  0.00    +0.000 C 
ATOM     25  C   UNL     1      50.171   7.704  13.518  0.00  0.00    +0.000 C 
ATOM     26  C   UNL     1      50.409   7.807  15.034  0.00  0.00    +0.000 C 
ATOM     27  C   UNL     1      49.271   6.793  15.226  0.00  0.00    +0.000 C 
ENDBRANCH  23  24
ENDBRANCH  20  23
ENDBRANCH  15  16
ENDBRANCH   1  15
TORSDOF 7
ENDMDL
MODEL 3
REMARK VINA RESULT:    -7.612      1.583      2.349
REMARK INTER + INTRA:         -11.965
REMARK INTER:                 -11.061
REMARK INTRA:                  -0.904
REMARK UNBOUND:                -1.238
REMARK  Name = 
REMARK  9 active torsions:
REMARK  status: ('A' for Active; 'I' for Inactive)
REMARK    1  A    between atoms: C_1  and  C_2
REMARK    2  A    between atoms: C_4  and  O_5
REMARK    3  A    between atoms: O_5  and  C_6
REMARK    4  A    between atoms: C_6  and  C_7
REMARK    5  A    between atoms: C_7  and  C_8
REMARK    6  A    between atoms: C_12  and  O_13
REMARK    7  A    between atoms: O_13  and  C_14
REMARK    8  A    between atoms: C_18  and  C_19
REMARK    9  A    between atoms: C_22  and  C_23
REMARK                            x       y       z     vdW  Elec       q    Type
REMARK                         _______ _______ _______ _____ _____    ______ ____
ROOT
ATOM      1  C   UNL     1      43.470   4.741  10.582  0.00  0.00    +0.000 C 
ENDROOT
BRANCH   1   2
ATOM      2  O   UNL     1      43.918   3.382  10.489  0.00  0.00    +0.000 OA
BRANCH   2   6
ATOM      3  C   UNL     1      46.625   0.248   7.764  0.00  0.00    +0.000 C 
ATOM      4  C   UNL     1      46.148   1.648   8.043  0.00  0.00    +0.000 A 
ATOM      5  C   UNL     1      45.266   1.841   9.124  0.00  0.00    +0.000 A 
ATOM      6  C   UNL     1      44.782   3.107   9.459  0.00  0.00    +0.000 A 
ATOM      7  C   UNL     1      45.186   4.202   8.696  0.00  0.00    +0.000 A 
ATOM      8  C   UNL     1      46.057   4.034   7.611  0.00  0.00    +0.000 A 
ATOM      9  C   UNL     1      46.550   2.760   7.277  0.00  0.00    +0.000 A 
BRANCH   9  10
ATOM     10  C   UNL     1      47.456   2.600   6.095  0.00  0.00    +0.000 C 
ATOM     11  N   UNL     1      48.803   2.666   6.323  0.00  0.00    +0.000 N 
ATOM     12  O   UNL     1      47.043   2.400   4.960  0.00  0.00    +0.000 OA
ATOM     13  H   UNL     1      49.213   2.626   7.244  0.00  0.00    +0.000 HD
ATOM     14  H   UNL     1      49.400   2.467   5.529  0.00  0.00    +0.000 HD
ENDBRANCH   9  10
ENDBRANCH   2   6
ENDBRANCH   1   2
BRANCH   1  15
ATOM     15  C   UNL     1      43.410   5.174  12.048  0.00  0.00    +0.000 C 
BRANCH  15  16
ATOM     16  C   UNL     1      44.795   5.442  12.608  0.00  0.00    +0.000 A 
ATOM     17  C   UNL     1      45.447   4.402  13.293  0.00  0.00    +0.000 A 
ATOM     18  C   UNL     1      46.731   4.578  13.806  0.00  0.00    +0.000 A 
ATOM     19  C   UNL     1      47.383   5.800  13.654  0.00  0.00    +0.000 A 
ATOM     20  C   UNL     1      46.754   6.851  12.984  0.00  0.00    +0.000 A 
ATOM     21  C   UNL     1      45.467   6.677  12.430  0.00  0.00    +0.000 A 
ATOM     22  C   UNL     1      44.811   7.797  11.661  0.00  0.00    +0.000 C 
BRANCH  20  23
ATOM     23  O   UNL     1      47.363   8.071  12.788  0.00  0.00    +0.000 OA
BRANCH  23  24
ATOM     24  C   UNL     1      48.354   8.205  11.745  0.00  0.00    +0.000 C 
ATOM     25  C   UNL     1      49.700   7.459  11.936  0.00  0.00    +0.000 C 
ATOM     26  C   UNL     1      50.421   8.718  11.426  0.00  0.00    +0.000 C 
ATOM     27  C   UNL     1      49.172   9.524  11.814  0.00  0.00    +0.000 C 
ENDBRANCH  23  24
ENDBRANCH  20  23
ENDBRANCH  15  16
ENDBRANCH   1  15
TORSDOF 7
ENDMDL
MODEL 4
REMARK VINA RESULT:    -7.334      2.128      4.184
REMARK INTER + INTRA:         -11.574
REMARK INTER:                 -10.452
REMARK INTRA:                  -1.122
REMARK UNBOUND:                -1.238
REMARK  Name = 
REMARK  9 active torsions:
REMARK  status: ('A' for Active; 'I' for Inactive)
REMARK    1  A    between atoms: C_1  and  C_2
REMARK    2  A    between atoms: C_4  and  O_5
REMARK    3  A    between atoms: O_5  and  C_6
REMARK    4  A    between atoms: C_6  and  C_7
REMARK    5  A    between atoms: C_7  and  C_8
REMARK    6  A    between atoms: C_12  and  O_13
REMARK    7  A    between atoms: O_13  and  C_14
REMARK    8  A    between atoms: C_18  and  C_19
REMARK    9  A    between atoms: C_22  and  C_23
REMARK                            x       y       z     vdW  Elec       q    Type
REMARK                         _______ _______ _______ _____ _____    ______ ____
ROOT
ATOM      1  C   UNL     1      43.660   4.796  10.160  0.00  0.00    +0.000 C 
ENDROOT
BRANCH   1   2
ATOM      2  O   UNL     1      43.831   3.385   9.975  0.00  0.00    +0.000 OA
BRANCH   2   6
ATOM      3  C   UNL     1      46.675  -0.019   7.760  0.00  0.00    +0.000 C 
ATOM      4  C   UNL     1      46.249   1.417   7.914  0.00  0.00    +0.000 A 
ATOM      5  C   UNL     1      45.250   1.710   8.864  0.00  0.00    +0.000 A 
ATOM      6  C   UNL     1      44.801   3.014   9.077  0.00  0.00    +0.000 A 
ATOM      7  C   UNL     1      45.361   4.047   8.326  0.00  0.00    +0.000 A 
ATOM      8  C   UNL     1      46.351   3.779   7.371  0.00  0.00    +0.000 A 
ATOM      9  C   UNL     1      46.807   2.466   7.158  0.00  0.00    +0.000 A 
BRANCH   9  10
ATOM     10  C   UNL     1      47.845   2.199   6.111  0.00  0.00    +0.000 C 
ATOM     11  N   UNL     1      49.113   2.650   6.355  0.00  0.00    +0.000 N 
ATOM     12  O   UNL     1      47.606   1.592   5.076  0.00  0.00    +0.000 OA
ATOM     13  H   UNL     1      49.423   2.973   7.259  0.00  0.00    +0.000 HD
ATOM     14  H   UNL     1      49.818   2.383   5.678  0.00  0.00    +0.000 HD
ENDBRANCH   9  10
ENDBRANCH   2   6
ENDBRANCH   1   2
BRANCH   1  15
ATOM     15  C   UNL     1      43.478   5.112  11.645  0.00  0.00    +0.000 C 
BRANCH  15  16
ATOM     16  C   UNL     1      44.808   5.372  12.329  0.00  0.00    +0.000 A 
ATOM     17  C   UNL     1      45.280   6.695  12.382  0.00  0.00    +0.000 A 
ATOM     18  C   UNL     1      46.480   7.000  13.021  0.00  0.00    +0.000 A 
ATOM     19  C   UNL     1      47.237   5.989  13.608  0.00  0.00    +0.000 A 
ATOM     20  C   UNL     1      46.794   4.666  13.562  0.00  0.00    +0.000 A 
ATOM     21  C   UNL     1      45.563   4.345  12.948  0.00  0.00    +0.000 A 
ATOM     22  C   UNL     1      45.061   2.923  12.946  0.00  0.00    +0.000 C 
BRANCH  20  23
ATOM     23  O   UNL     1      47.492   3.633  14.146  0.00  0.00    +0.000 OA
BRANCH  23  24
ATOM     24  C   UNL     1      47.937   3.765  15.514  0.00  0.00    +0.000 C 
ATOM     25  C   UNL     1      48.172   2.461  16.320  0.00  0.00    +0.000 C 
ATOM     26  C   UNL     1      47.473   3.126  17.518  0.00  0.00    +0.000 C 
ATOM     27  C   UNL     1      46.799   4.083  16.522  0.00  0.00    +0.000 C 
ENDBRANCH  23  24
ENDBRANCH  20  23
ENDBRANCH  15  16
ENDBRANCH   1  15
TORSDOF 7
ENDMDL
MODEL 5
REMARK VINA RESULT:    -6.656      4.853      8.623
REMARK INTER + INTRA:         -10.618
REMARK INTER:                  -9.812
REMARK INTRA:                  -0.806
REMARK UNBOUND:                -1.238
REMARK  Name = 
REMARK  9 active torsions:
REMARK  status: ('A' for Active; 'I' for Inactive)
REMARK    1  A    between atoms: C_1  and  C_2
REMARK    2  A    between atoms: C_4  and  O_5
REMARK    3  A    between atoms: O_5  and  C_6
REMARK    4  A    between atoms: C_6  and  C_7
REMARK    5  A    between atoms: C_7  and  C_8
REMARK    6  A    between atoms: C_12  and  O_13
REMARK    7  A    between atoms: O_13  and  C_14
REMARK    8  A    between atoms: C_18  and  C_19
REMARK    9  A    between atoms: C_22  and  C_23
REMARK                            x       y       z     vdW  Elec       q    Type
REMARK                         _______ _______ _______ _____ _____    ______ ____
ROOT
ATOM      1  C   UNL     1      46.978   4.656  13.929  0.00  0.00    +0.000 C 
ENDROOT
BRANCH   1   2
ATOM      2  O   UNL     1      46.606   4.031  15.165  0.00  0.00    +0.000 OA
BRANCH   2   6
ATOM      3  C   UNL     1      49.821   6.812  17.716  0.00  0.00    +0.000 C 
ATOM      4  C   UNL     1      49.058   5.524  17.558  0.00  0.00    +0.000 A 
ATOM      5  C   UNL     1      48.202   5.397  16.445  0.00  0.00    +0.000 A 
ATOM      6  C   UNL     1      47.464   4.235  16.217  0.00  0.00    +0.000 A 
ATOM      7  C   UNL     1      47.581   3.178  17.119  0.00  0.00    +0.000 A 
ATOM      8  C   UNL     1      48.420   3.284  18.237  0.00  0.00    +0.000 A 
ATOM      9  C   UNL     1      49.168   4.452  18.465  0.00  0.00    +0.000 A 
BRANCH   9  10
ATOM     10  C   UNL     1      50.036   4.554  19.682  0.00  0.00    +0.000 C 
ATOM     11  N   UNL     1      51.324   4.109  19.574  0.00  0.00    +0.000 N 
ATOM     12  O   UNL     1      49.645   5.026  20.742  0.00  0.00    +0.000 OA
ATOM     13  H   UNL     1      51.767   3.899  18.692  0.00  0.00    +0.000 HD
ATOM     14  H   UNL     1      51.919   4.267  20.379  0.00  0.00    +0.000 HD
ENDBRANCH   9  10
ENDBRANCH   2   6
ENDBRANCH   1   2
BRANCH   1  15
ATOM     15  C   UNL     1      45.785   5.414  13.344  0.00  0.00    +0.000 C 
BRANCH  15  16
ATOM     16  C   UNL     1      45.044   4.582  12.314  0.00  0.00    +0.000 A 
ATOM     17  C   UNL     1      44.182   3.571  12.772  0.00  0.00    +0.000 A 
ATOM     18  C   UNL     1      43.451   2.793  11.875  0.00  0.00    +0.000 A 
ATOM     19  C   UNL     1      43.579   3.002  10.503  0.00  0.00    +0.000 A 
ATOM     20  C   UNL     1      44.434   3.995  10.023  0.00  0.00    +0.000 A 
ATOM     21  C   UNL     1      45.155   4.815  10.921  0.00  0.00    +0.000 A 
ATOM     22  C   UNL     1      46.038   5.921  10.400  0.00  0.00    +0.000 C 
BRANCH  20  23
ATOM     23  O   UNL     1      44.580   4.258   8.679  0.00  0.00    +0.000 OA
BRANCH  23  24
ATOM     24  C   UNL     1      45.131   3.239   7.816  0.00  0.00    +0.000 C 
ATOM     25  C   UNL     1      45.925   2.087   8.485  0.00  0.00    +0.000 C 
ATOM     26  C   UNL     1      46.970   2.213   7.363  0.00  0.00    +0.000 C 
ATOM     27  C   UNL     1      46.463   3.645   7.128  0.00  0.00    +0.000 C 
ENDBRANCH  23  24
ENDBRANCH  20  23
ENDBRANCH  15  16
ENDBRANCH   1  15
TORSDOF 7
ENDMDL
MODEL 6
REMARK VINA RESULT:    -6.349      5.410      8.222
REMARK INTER + INTRA:         -10.185
REMARK INTER:                  -9.516
REMARK INTRA:                  -0.669
REMARK UNBOUND:                -1.238
REMARK  Name = 
REMARK  9 active torsions:
REMARK  status: ('A' for Active; 'I' for Inactive)
REMARK    1  A    between atoms: C_1  and  C_2
REMARK    2  A    between atoms: C_4  and  O_5
REMARK    3  A    between atoms: O_5  and  C_6
REMARK    4  A    between atoms: C_6  and  C_7
REMARK    5  A    between atoms: C_7  and  C_8
REMARK    6  A    between atoms: C_12  and  O_13
REMARK    7  A    between atoms: O_13  and  C_14
REMARK    8  A    between atoms: C_18  and  C_19
REMARK    9  A    between atoms: C_22  and  C_23
REMARK                            x       y       z     vdW  Elec       q    Type
REMARK                         _______ _______ _______ _____ _____    ______ ____
ROOT
ATOM      1  C   UNL     1      47.028   4.546  15.418  0.00  0.00    +0.000 C 
ENDROOT
BRANCH   1   2
ATOM      2  O   UNL     1      47.292   3.581  16.445  0.00  0.00    +0.000 OA
BRANCH   2   6
ATOM      3  C   UNL     1      51.479   1.134  17.473  0.00  0.00    +0.000 C 
ATOM      4  C   UNL     1      50.705   2.425  17.434  0.00  0.00    +0.000 A 
ATOM      5  C   UNL     1      49.379   2.384  16.960  0.00  0.00    +0.000 A 
ATOM      6  C   UNL     1      48.587   3.532  16.898  0.00  0.00    +0.000 A 
ATOM      7  C   UNL     1      49.131   4.745  17.318  0.00  0.00    +0.000 A 
ATOM      8  C   UNL     1      50.450   4.811  17.787  0.00  0.00    +0.000 A 
ATOM      9  C   UNL     1      51.247   3.655  17.855  0.00  0.00    +0.000 A 
BRANCH   9  10
ATOM     10  C   UNL     1      52.663   3.754  18.332  0.00  0.00    +0.000 C 
ATOM     11  N   UNL     1      52.908   3.439  19.641  0.00  0.00    +0.000 N 
ATOM     12  O   UNL     1      53.590   4.085  17.605  0.00  0.00    +0.000 OA
ATOM     13  H   UNL     1      52.239   2.973  20.234  0.00  0.00    +0.000 HD
ATOM     14  H   UNL     1      53.882   3.427  19.921  0.00  0.00    +0.000 HD
ENDBRANCH   9  10
ENDBRANCH   2   6
ENDBRANCH   1   2
BRANCH   1  15
ATOM     15  C   UNL     1      46.977   3.860  14.052  0.00  0.00    +0.000 C 
BRANCH  15  16
ATOM     16  C   UNL     1      46.341   4.751  13.001  0.00  0.00    +0.000 A 
ATOM     17  C   UNL     1      46.762   6.089  12.922  0.00  0.00    +0.000 A 
ATOM     18  C   UNL     1      46.236   6.949  11.959  0.00  0.00    +0.000 A 
ATOM     19  C   UNL     1      45.270   6.491  11.066  0.00  0.00    +0.000 A 
ATOM     20  C   UNL     1      44.830   5.168  11.128  0.00  0.00    +0.000 A 
ATOM     21  C   UNL     1      45.378   4.275  12.077  0.00  0.00    +0.000 A 
ATOM     22  C   UNL     1      44.938   2.833  12.108  0.00  0.00    +0.000 C 
BRANCH  20  23
ATOM     23  O   UNL     1      43.895   4.659  10.255  0.00  0.00    +0.000 OA
BRANCH  23  24
ATOM     24  C   UNL     1      44.290   4.344   8.902  0.00  0.00    +0.000 C 
ATOM     25  C   UNL     1      44.574   2.856   8.566  0.00  0.00    +0.000 C 
ATOM     26  C   UNL     1      45.810   3.316   7.774  0.00  0.00    +0.000 C 
ATOM     27  C   UNL     1      45.790   4.610   8.601  0.00  0.00    +0.000 C 
ENDBRANCH  23  24
ENDBRANCH  20  23
ENDBRANCH  15  16
ENDBRANCH   1  15
TORSDOF 7
ENDMDL
MODEL 7
REMARK VINA RESULT:    -6.189      3.173      7.157
REMARK INTER + INTRA:          -9.959
REMARK INTER:                  -8.862
REMARK INTRA:                  -1.098
REMARK UNBOUND:                -1.238
REMARK  Name = 
REMARK  9 active torsions:
REMARK  status: ('A' for Active; 'I' for Inactive)
REMARK    1  A    between atoms: C_1  and  C_2
REMARK    2  A    between atoms: C_4  and  O_5
REMARK    3  A    between atoms: O_5  and  C_6
REMARK    4  A    between atoms: C_6  and  C_7
REMARK    5  A    between atoms: C_7  and  C_8
REMARK    6  A    between atoms: C_12  and  O_13
REMARK    7  A    between atoms: O_13  and  C_14
REMARK    8  A    between atoms: C_18  and  C_19
REMARK    9  A    between atoms: C_22  and  C_23
REMARK                            x       y       z     vdW  Elec       q    Type
REMARK                         _______ _______ _______ _____ _____    ______ ____
ROOT
ATOM      1  C   UNL     1      46.946   5.013  13.808  0.00  0.00    +0.000 C 
ENDROOT
BRANCH   1   2
ATOM      2  O   UNL     1      47.629   6.027  14.559  0.00  0.00    +0.000 OA
BRANCH   2   6
ATOM      3  C   UNL     1      50.631   7.693  10.983  0.00  0.00    +0.000 C 
ATOM      4  C   UNL     1      49.633   7.971  12.075  0.00  0.00    +0.000 A 
ATOM      5  C   UNL     1      49.112   6.872  12.787  0.00  0.00    +0.000 A 
ATOM      6  C   UNL     1      48.188   7.040  13.821  0.00  0.00    +0.000 A 
ATOM      7  C   UNL     1      47.776   8.330  14.148  0.00  0.00    +0.000 A 
ATOM      8  C   UNL     1      48.275   9.438  13.450  0.00  0.00    +0.000 A 
ATOM      9  C   UNL     1      49.209   9.271  12.412  0.00  0.00    +0.000 A 
BRANCH   9  10
ATOM     10  C   UNL     1      49.706  10.467  11.659  0.00  0.00    +0.000 C 
ATOM     11  N   UNL     1      48.945  10.912  10.613  0.00  0.00    +0.000 N 
ATOM     12  O   UNL     1      50.739  11.056  11.950  0.00  0.00    +0.000 OA
ATOM     13  H   UNL     1      47.999  10.607  10.446  0.00  0.00    +0.000 HD
ATOM     14  H   UNL     1      49.252  11.772  10.174  0.00  0.00    +0.000 HD
ENDBRANCH   9  10
ENDBRANCH   2   6
ENDBRANCH   1   2
BRANCH   1  15
ATOM     15  C   UNL     1      45.583   5.529  13.347  0.00  0.00    +0.000 C 
BRANCH  15  16
ATOM     16  C   UNL     1      45.026   4.695  12.208  0.00  0.00    +0.000 A 
ATOM     17  C   UNL     1      44.167   3.629  12.524  0.00  0.00    +0.000 A 
ATOM     18  C   UNL     1      43.600   2.845  11.520  0.00  0.00    +0.000 A 
ATOM     19  C   UNL     1      43.892   3.104  10.183  0.00  0.00    +0.000 A 
ATOM     20  C   UNL     1      44.748   4.153   9.843  0.00  0.00    +0.000 A 
ATOM     21  C   UNL     1      45.303   4.977  10.847  0.00  0.00    +0.000 A 
ATOM     22  C   UNL     1      46.186   6.142  10.474  0.00  0.00    +0.000 C 
BRANCH  20  23
ATOM     23  O   UNL     1      45.051   4.465   8.536  0.00  0.00    +0.000 OA
BRANCH  23  24
ATOM     24  C   UNL     1      45.421   3.407   7.625  0.00  0.00    +0.000 C 
ATOM     25  C   UNL     1      46.138   2.167   8.220  0.00  0.00    +0.000 C 
ATOM     26  C   UNL     1      47.098   2.199   7.018  0.00  0.00    +0.000 C 
ATOM     27  C   UNL     1      46.729   3.679   6.834  0.00  0.00    +0.000 C 
ENDBRANCH  23  24
ENDBRANCH  20  23
ENDBRANCH  15  16
ENDBRANCH   1  15
TORSDOF 7
ENDMDL
MODEL 8
REMARK VINA RESULT:    -6.100      4.895      8.221
REMARK INTER + INTRA:          -9.835
REMARK INTER:                  -8.867
REMARK INTRA:                  -0.968
REMARK UNBOUND:                -1.238
REMARK  Name = 
REMARK  9 active torsions:
REMARK  status: ('A' for Active; 'I' for Inactive)
REMARK    1  A    between atoms: C_1  and  C_2
REMARK    2  A    between atoms: C_4  and  O_5
REMARK    3  A    between atoms: O_5  and  C_6
REMARK    4  A    between atoms: C_6  and  C_7
REMARK    5  A    between atoms: C_7  and  C_8
REMARK    6  A    between atoms: C_12  and  O_13
REMARK    7  A    between atoms: O_13  and  C_14
REMARK    8  A    between atoms: C_18  and  C_19
REMARK    9  A    between atoms: C_22  and  C_23
REMARK                            x       y       z     vdW  Elec       q    Type
REMARK                         _______ _______ _______ _____ _____    ______ ____
ROOT
ATOM      1  C   UNL     1      48.535   7.253  13.810  0.00  0.00    +0.000 C 
ENDROOT
BRANCH   1   2
ATOM      2  O   UNL     1      48.613   7.542  15.212  0.00  0.00    +0.000 OA
BRANCH   2   6
ATOM      3  C   UNL     1      48.629   3.457  18.021  0.00  0.00    +0.000 C 
ATOM      4  C   UNL     1      49.378   4.592  17.375  0.00  0.00    +0.000 A 
ATOM      5  C   UNL     1      48.641   5.516  16.607  0.00  0.00    +0.000 A 
ATOM      6  C   UNL     1      49.254   6.603  15.981  0.00  0.00    +0.000 A 
ATOM      7  C   UNL     1      50.630   6.770  16.124  0.00  0.00    +0.000 A 
ATOM      8  C   UNL     1      51.385   5.861  16.877  0.00  0.00    +0.000 A 
ATOM      9  C   UNL     1      50.769   4.768  17.512  0.00  0.00    +0.000 A 
BRANCH   9  10
ATOM     10  C   UNL     1      51.599   3.793  18.288  0.00  0.00    +0.000 C 
ATOM     11  N   UNL     1      51.839   4.079  19.604  0.00  0.00    +0.000 N 
ATOM     12  O   UNL     1      52.048   2.764  17.800  0.00  0.00    +0.000 OA
ATOM     13  H   UNL     1      51.343   4.791  20.117  0.00  0.00    +0.000 HD
ATOM     14  H   UNL     1      52.327   3.366  20.133  0.00  0.00    +0.000 HD
ENDBRANCH   9  10
ENDBRANCH   2   6
ENDBRANCH   1   2
BRANCH   1  15
ATOM     15  C   UNL     1      47.094   7.404  13.322  0.00  0.00    +0.000 C 
BRANCH  15  16
ATOM     16  C   UNL     1      46.491   6.065  12.936  0.00  0.00    +0.000 A 
ATOM     17  C   UNL     1      47.007   4.906  13.538  0.00  0.00    +0.000 A 
ATOM     18  C   UNL     1      46.475   3.651  13.246  0.00  0.00    +0.000 A 
ATOM     19  C   UNL     1      45.427   3.530  12.336  0.00  0.00    +0.000 A 
ATOM     20  C   UNL     1      44.901   4.667  11.719  0.00  0.00    +0.000 A 
ATOM     21  C   UNL     1      45.406   5.949  12.031  0.00  0.00    +0.000 A 
ATOM     22  C   UNL     1      44.802   7.179  11.401  0.00  0.00    +0.000 C 
BRANCH  20  23
ATOM     23  O   UNL     1      43.850   4.605  10.830  0.00  0.00    +0.000 OA
BRANCH  23  24
ATOM     24  C   UNL     1      44.100   4.191   9.469  0.00  0.00    +0.000 C 
ATOM     25  C   UNL     1      44.505   2.713   9.232  0.00  0.00    +0.000 C 
ATOM     26  C   UNL     1      45.568   3.209   8.237  0.00  0.00    +0.000 C 
ATOM     27  C   UNL     1      45.509   4.574   8.939  0.00  0.00    +0.000 C 
ENDBRANCH  23  24
ENDBRANCH  20  23
ENDBRANCH  15  16
ENDBRANCH   1  15
TORSDOF 7
ENDMDL
MODEL 9
REMARK VINA RESULT:    -5.918      4.652      7.699
REMARK INTER + INTRA:          -9.578
REMARK INTER:                  -7.770
REMARK INTRA:                  -1.808
REMARK UNBOUND:                -1.238
REMARK  Name = 
REMARK  9 active torsions:
REMARK  status: ('A' for Active; 'I' for Inactive)
REMARK    1  A    between atoms: C_1  and  C_2
REMARK    2  A    between atoms: C_4  and  O_5
REMARK    3  A    between atoms: O_5  and  C_6
REMARK    4  A    between atoms: C_6  and  C_7
REMARK    5  A    between atoms: C_7  and  C_8
REMARK    6  A    between atoms: C_12  and  O_13
REMARK    7  A    between atoms: O_13  and  C_14
REMARK    8  A    between atoms: C_18  and  C_19
REMARK    9  A    between atoms: C_22  and  C_23
REMARK                            x       y       z     vdW  Elec       q    Type
REMARK                         _______ _______ _______ _____ _____    ______ ____
ROOT
ATOM      1  C   UNL     1      48.957   8.678  13.778  0.00  0.00    +0.000 C 
ENDROOT
BRANCH   1   2
ATOM      2  O   UNL     1      49.151   7.363  13.240  0.00  0.00    +0.000 OA
BRANCH   2   6
ATOM      3  C   UNL     1      45.244   5.871  10.578  0.00  0.00    +0.000 C 
ATOM      4  C   UNL     1      46.057   5.800  11.843  0.00  0.00    +0.000 A 
ATOM      5  C   UNL     1      47.208   6.609  11.933  0.00  0.00    +0.000 A 
ATOM      6  C   UNL     1      48.014   6.612  13.073  0.00  0.00    +0.000 A 
ATOM      7  C   UNL     1      47.666   5.791  14.143  0.00  0.00    +0.000 A 
ATOM      8  C   UNL     1      46.530   4.972  14.074  0.00  0.00    +0.000 A 
ATOM      9  C   UNL     1      45.714   4.971  12.929  0.00  0.00    +0.000 A 
BRANCH   9  10
ATOM     10  C   UNL     1      44.521   4.067  12.865  0.00  0.00    +0.000 C 
ATOM     11  N   UNL     1      44.735   2.771  12.482  0.00  0.00    +0.000 N 
ATOM     12  O   UNL     1      43.390   4.435  13.152  0.00  0.00    +0.000 OA
ATOM     13  H   UNL     1      45.652   2.353  12.427  0.00  0.00    +0.000 HD
ATOM     14  H   UNL     1      43.934   2.154  12.530  0.00  0.00    +0.000 HD
ENDBRANCH   9  10
ENDBRANCH   2   6
ENDBRANCH   1   2
BRANCH   1  15
ATOM     15  C   UNL     1      49.901   8.907  14.959  0.00  0.00    +0.000 C 
BRANCH  15  16
ATOM     16  C   UNL     1      49.257   8.513  16.275  0.00  0.00    +0.000 A 
ATOM     17  C   UNL     1      48.289   9.370  16.824  0.00  0.00    +0.000 A 
ATOM     18  C   UNL     1      47.642   9.048  18.016  0.00  0.00    +0.000 A 
ATOM     19  C   UNL     1      47.960   7.870  18.688  0.00  0.00    +0.000 A 
ATOM     20  C   UNL     1      48.923   7.005  18.167  0.00  0.00    +0.000 A 
ATOM     21  C   UNL     1      49.564   7.301  16.943  0.00  0.00    +0.000 A 
ATOM     22  C   UNL     1      50.567   6.339  16.356  0.00  0.00    +0.000 C 
BRANCH  20  23
ATOM     23  O   UNL     1      49.258   5.817  18.780  0.00  0.00    +0.000 OA
BRANCH  23  24
ATOM     24  C   UNL     1      48.279   4.757  18.847  0.00  0.00    +0.000 C 
ATOM     25  C   UNL     1      48.718   3.346  18.376  0.00  0.00    +0.000 C 
ATOM     26  C   UNL     1      47.366   3.214  17.655  0.00  0.00    +0.000 C 
ATOM     27  C   UNL     1      47.273   4.748  17.664  0.00  0.00    +0.000 C 
ENDBRANCH  23  24
ENDBRANCH  20  23
ENDBRANCH  15  16
ENDBRANCH   1  15
TORSDOF 7
ENDMDL
