MODEL 1
REMARK VINA RESULT:    -8.664      0.000      0.000
REMARK INTER + INTRA:         -12.523
REMARK INTER:                 -11.702
REMARK INTRA:                  -0.820
REMARK UNBOUND:                -0.820
REMARK  Name = 
REMARK  8 active torsions:
REMARK  status: ('A' for Active; 'I' for Inactive)
REMARK    1  A    between atoms: C_1  and  C_2
REMARK    2  A    between atoms: C_2  and  N_3
REMARK    3  A    between atoms: C_2  and  C_19
REMARK    4  A    between atoms: N_3  and  C_4
REMARK    5  A    between atoms: C_8  and  C_9
REMARK    6  A    between atoms: C_9  and  N_10
REMARK    7  A    between atoms: N_10  and  C_11
REMARK    8  A    between atoms: C_19  and  C_21
REMARK                            x       y       z     vdW  Elec       q    Type
REMARK                         _______ _______ _______ _____ _____    ______ ____
ROOT
ATOM      1  N   UNL     1      47.637   5.784  15.230  0.00  0.00    +0.000 N 
ATOM      2  H   UNL     1      48.626   5.761  15.495  0.00  0.00    +0.000 HD
ENDROOT
BRANCH   1   3
ATOM      3  C   UNL     1      47.571   6.309  13.931  0.00  0.00    +0.000 A 
ATOM      4  C   UNL     1      48.760   6.812  13.390  0.00  0.00    +0.000 A 
ATOM      5  C   UNL     1      48.793   7.370  12.115  0.00  0.00    +0.000 A 
ATOM      6  C   UNL     1      47.646   7.353  11.329  0.00  0.00    +0.000 A 
ATOM      7  C   UNL     1      46.477   6.727  11.785  0.00  0.00    +0.000 A 
ATOM      8  C   UNL     1      46.446   6.222  13.096  0.00  0.00    +0.000 A 
BRANCH   7   9
ATOM      9  C   UNL     1      45.334   6.496  10.810  0.00  0.00    +0.000 C 
BRANCH   9  10
ATOM     10  N   UNL     1      44.624   5.215  10.920  0.00  0.00    +0.000 N 
ATOM     11  C   UNL     1      43.161   5.234  11.002  0.00  0.00    +0.000 C 
ATOM     12  C   UNL     1      45.050   4.317   9.902  0.00  0.00    +0.000 A 
ATOM     13  C   UNL     1      44.844   2.944  10.066  0.00  0.00    +0.000 A 
ATOM     14  C   UNL     1      45.212   2.058   9.052  0.00  0.00    +0.000 A 
ATOM     15  C   UNL     1      45.773   2.554   7.885  0.00  0.00    +0.000 A 
ATOM     16  C   UNL     1      45.953   3.919   7.793  0.00  0.00    +0.000 A 
ATOM     17  N   UNL     1      45.616   4.792   8.770  0.00  0.00    +0.000 NA
ENDBRANCH   9  10
ENDBRANCH   7   9
ENDBRANCH   1   3
BRANCH   1  19
ATOM     18  C   UNL     1      47.168   3.474  14.382  0.00  0.00    +0.000 C 
ATOM     19  C   UNL     1      47.030   4.452  15.547  0.00  0.00    +0.000 C 
BRANCH  19  20
ATOM     20  C   UNL     1      47.509   3.913  16.910  0.00  0.00    +0.000 C 
ATOM     21  O   UNL     1      46.727   3.237  17.598  0.00  0.00    +0.000 OA
BRANCH  20  22
ATOM     22  C   UNL     1      48.884   4.092  17.428  0.00  0.00    +0.000 A 
ATOM     23  C   UNL     1      49.153   5.215  18.204  0.00  0.00    +0.000 A 
ATOM     24  S   UNL     1      50.701   5.214  18.908  0.00  0.00    +0.000 S 
ATOM     25  C   UNL     1      51.064   3.701  18.224  0.00  0.00    +0.000 A 
ATOM     26  N   UNL     1      52.229   3.070  18.535  0.00  0.00    +0.000 NA
ATOM     27  C   UNL     1      52.367   1.907  17.994  0.00  0.00    +0.000 A 
ATOM     28  N   UNL     1      51.464   1.339  17.136  0.00  0.00    +0.000 N 
ATOM     29  C   UNL     1      50.318   1.979  16.723  0.00  0.00    +0.000 A 
ATOM     30  O   UNL     1      49.625   1.502  15.834  0.00  0.00    +0.000 OA
ATOM     31  C   UNL     1      50.055   3.242  17.389  0.00  0.00    +0.000 A 
ATOM     32  H   UNL     1      51.663   0.455  16.691  0.00  0.00    +0.000 HD
ENDBRANCH  20  22
ENDBRANCH  19  20
ENDBRANCH   1  19
TORSDOF 6
ENDMDL
MODEL 2
REMARK VINA RESULT:    -7.907      1.504      2.382
REMARK INTER + INTRA:         -11.500
REMARK INTER:                 -10.545
REMARK INTRA:                  -0.955
REMARK UNBOUND:                -0.820
REMARK  Name = 
REMARK  8 active torsions:
REMARK  status: ('A' for Active; 'I' for Inactive)
REMARK    1  A    between atoms: C_1  and  C_2
REMARK    2  A    between atoms: C_2  and  N_3
REMARK    3  A    between atoms: C_2  and  C_19
REMARK    4  A    between atoms: N_3  and  C_4
REMARK    5  A    between atoms: C_8  and  C_9
REMARK    6  A    between atoms: C_9  and  N_10
REMARK    7  A    between atoms: N_10  and  C_11
REMARK    8  A    between atoms: C_19  and  C_21
REMARK                            x       y       z     vdW  Elec       q    Type
REMARK                         _______ _______ _______ _____ _____    ______ ____
ROOT
ATOM      1  N   UNL     1      47.674   5.625  15.269  0.00  0.00    +0.000 N 
ATOM      2  H   UNL     1      48.663   5.548  15.521  0.00  0.00    +0.000 HD
ENDROOT
BRANCH   1   3
ATOM      3  C   UNL     1      47.617   6.221  14.000  0.00  0.00    +0.000 A 
ATOM      4  C   UNL     1      48.803   6.778  13.509  0.00  0.00    +0.000 A 
ATOM      5  C   UNL     1      48.844   7.408  12.268  0.00  0.00    +0.000 A 
ATOM      6  C   UNL     1      47.711   7.411  11.462  0.00  0.00    +0.000 A 
ATOM      7  C   UNL     1      46.549   6.736  11.862  0.00  0.00    +0.000 A 
ATOM      8  C   UNL     1      46.508   6.157  13.142  0.00  0.00    +0.000 A 
BRANCH   7   9
ATOM      9  C   UNL     1      45.427   6.536  10.856  0.00  0.00    +0.000 C 
BRANCH   9  10
ATOM     10  N   UNL     1      44.688   5.269  10.937  0.00  0.00    +0.000 N 
ATOM     11  C   UNL     1      43.225   5.319  10.999  0.00  0.00    +0.000 C 
ATOM     12  C   UNL     1      45.110   4.377   9.913  0.00  0.00    +0.000 A 
ATOM     13  C   UNL     1      44.872   3.007  10.053  0.00  0.00    +0.000 A 
ATOM     14  C   UNL     1      45.236   2.127   9.032  0.00  0.00    +0.000 A 
ATOM     15  C   UNL     1      45.824   2.628   7.880  0.00  0.00    +0.000 A 
ATOM     16  C   UNL     1      46.035   3.990   7.811  0.00  0.00    +0.000 A 
ATOM     17  N   UNL     1      45.703   4.855   8.795  0.00  0.00    +0.000 NA
ENDBRANCH   9  10
ENDBRANCH   7   9
ENDBRANCH   1   3
BRANCH   1  19
ATOM     18  C   UNL     1      47.224   3.333  14.360  0.00  0.00    +0.000 C 
ATOM     19  C   UNL     1      47.016   4.303  15.521  0.00  0.00    +0.000 C 
BRANCH  19  20
ATOM     20  C   UNL     1      47.373   3.740  16.911  0.00  0.00    +0.000 C 
ATOM     21  O   UNL     1      46.570   2.984  17.480  0.00  0.00    +0.000 OA
BRANCH  20  22
ATOM     22  C   UNL     1      48.663   3.991  17.593  0.00  0.00    +0.000 A 
ATOM     23  C   UNL     1      49.734   3.153  17.303  0.00  0.00    +0.000 A 
ATOM     24  S   UNL     1      51.209   3.654  17.986  0.00  0.00    +0.000 S 
ATOM     25  C   UNL     1      50.480   5.025  18.675  0.00  0.00    +0.000 A 
ATOM     26  N   UNL     1      51.237   5.954  19.319  0.00  0.00    +0.000 NA
ATOM     27  C   UNL     1      50.577   6.973  19.754  0.00  0.00    +0.000 A 
ATOM     28  N   UNL     1      49.222   7.125  19.641  0.00  0.00    +0.000 N 
ATOM     29  C   UNL     1      48.406   6.169  19.079  0.00  0.00    +0.000 A 
ATOM     30  O   UNL     1      47.188   6.274  19.145  0.00  0.00    +0.000 OA
ATOM     31  C   UNL     1      49.107   5.054  18.470  0.00  0.00    +0.000 A 
ATOM     32  H   UNL     1      48.755   7.913  20.064  0.00  0.00    +0.000 HD
ENDBRANCH  20  22
ENDBRANCH  19  20
ENDBRANCH   1  19
TORSDOF 6
ENDMDL
MODEL 3
REMARK VINA RESULT:    -7.367      3.371      8.178
REMARK INTER + INTRA:         -10.771
REMARK INTER:                  -9.516
REMARK INTRA:                  -1.255
REMARK UNBOUND:                -0.820
REMARK  Name = 
REMARK  8 active torsions:
REMARK  status: ('A' for Active; 'I' for Inactive)
REMARK    1  A    between atoms: C_1  and  C_2
REMARK    2  A    between atoms: C_2  and  N_3
REMARK    3  A    between atoms: C_2  and  C_19
REMARK    4  A    between atoms: N_3  and  C_4
REMARK    5  A    between atoms: C_8  and  C_9
REMARK    6  A    between atoms: C_9  and  N_10
REMARK    7  A    between atoms: N_10  and  C_11
REMARK    8  A    between atoms: C_19  and  C_21
REMARK                            x       y       z     vdW  Elec       q    Type
REMARK                         _______ _______ _______ _____ _____    ______ ____
ROOT
ATOM      1  N   UNL     1      47.322   7.688  12.032  0.00  0.00    +0.000 N 
ATOM      2  H   UNL     1      47.770   8.256  11.308  0.00  0.00    +0.000 HD
ENDROOT
BRANCH   1   3
ATOM      3  C   UNL     1      48.267   7.500  13.052  0.00  0.00    +0.000 A 
ATOM      4  C   UNL     1      49.481   8.186  12.923  0.00  0.00    +0.000 A 
ATOM      5  C   UNL     1      50.489   8.051  13.874  0.00  0.00    +0.000 A 
ATOM      6  C   UNL     1      50.260   7.289  15.015  0.00  0.00    +0.000 A 
ATOM      7  C   UNL     1      49.005   6.706  15.244  0.00  0.00    +0.000 A 
ATOM      8  C   UNL     1      48.020   6.805  14.246  0.00  0.00    +0.000 A 
BRANCH   7   9
ATOM      9  C   UNL     1      48.706   6.107  16.608  0.00  0.00    +0.000 C 
BRANCH   9  10
ATOM     10  N   UNL     1      49.860   5.834  17.475  0.00  0.00    +0.000 N 
ATOM     11  C   UNL     1      49.797   6.263  18.874  0.00  0.00    +0.000 C 
ATOM     12  C   UNL     1      50.234   4.464  17.394  0.00  0.00    +0.000 A 
ATOM     13  C   UNL     1      51.522   4.079  17.776  0.00  0.00    +0.000 A 
ATOM     14  C   UNL     1      51.884   2.731  17.749  0.00  0.00    +0.000 A 
ATOM     15  C   UNL     1      50.953   1.784  17.350  0.00  0.00    +0.000 A 
ATOM     16  C   UNL     1      49.702   2.235  16.980  0.00  0.00    +0.000 A 
ATOM     17  N   UNL     1      49.338   3.537  16.986  0.00  0.00    +0.000 NA
ENDBRANCH   9  10
ENDBRANCH   7   9
ENDBRANCH   1   3
BRANCH   1  19
ATOM     18  C   UNL     1      45.971   9.795  12.153  0.00  0.00    +0.000 C 
ATOM     19  C   UNL     1      45.980   8.279  12.336  0.00  0.00    +0.000 C 
BRANCH  19  20
ATOM     20  C   UNL     1      44.845   7.528  11.610  0.00  0.00    +0.000 C 
ATOM     21  O   UNL     1      44.117   8.154  10.824  0.00  0.00    +0.000 OA
BRANCH  20  22
ATOM     22  C   UNL     1      44.608   6.073  11.738  0.00  0.00    +0.000 A 
ATOM     23  C   UNL     1      43.965   5.609  12.881  0.00  0.00    +0.000 A 
ATOM     24  S   UNL     1      43.569   3.956  12.829  0.00  0.00    +0.000 S 
ATOM     25  C   UNL     1      44.218   3.800  11.267  0.00  0.00    +0.000 A 
ATOM     26  N   UNL     1      44.097   2.627  10.588  0.00  0.00    +0.000 NA
ATOM     27  C   UNL     1      44.585   2.648   9.393  0.00  0.00    +0.000 A 
ATOM     28  N   UNL     1      45.221   3.723   8.835  0.00  0.00    +0.000 N 
ATOM     29  C   UNL     1      45.447   4.897   9.517  0.00  0.00    +0.000 A 
ATOM     30  O   UNL     1      46.158   5.770   9.036  0.00  0.00    +0.000 OA
ATOM     31  C   UNL     1      44.819   4.970  10.824  0.00  0.00    +0.000 A 
ATOM     32  H   UNL     1      45.643   3.653   7.920  0.00  0.00    +0.000 HD
ENDBRANCH  20  22
ENDBRANCH  19  20
ENDBRANCH   1  19
TORSDOF 6
ENDMDL
MODEL 4
REMARK VINA RESULT:    -7.303      3.530      9.071
REMARK INTER + INTRA:         -10.685
REMARK INTER:                  -9.506
REMARK INTRA:                  -1.178
REMARK UNBOUND:                -0.820
REMARK  Name = 
REMARK  8 active torsions:
REMARK  status: ('A' for Active; 'I' for Inactive)
REMARK    1  A    between atoms: C_1  and  C_2
REMARK    2  A    between atoms: C_2  and  N_3
REMARK    3  A    between atoms: C_2  and  C_19
REMARK    4  A    between atoms: N_3  and  C_4
REMARK    5  A    between atoms: C_8  and  C_9
REMARK    6  A    between atoms: C_9  and  N_10
REMARK    7  A    between atoms: N_10  and  C_11
REMARK    8  A    between atoms: C_19  and  C_21
REMARK                            x       y       z     vdW  Elec       q    Type
REMARK                         _______ _______ _______ _____ _____    ______ ____
ROOT
ATOM      1  N   UNL     1      47.219   6.319  12.846  0.00  0.00    +0.000 N 
ATOM      2  H   UNL     1      48.105   6.706  12.511  0.00  0.00    +0.000 HD
ENDROOT
BRANCH   1   3
ATOM      3  C   UNL     1      47.472   5.732  14.095  0.00  0.00    +0.000 A 
ATOM      4  C   UNL     1      47.062   4.403  14.264  0.00  0.00    +0.000 A 
ATOM      5  C   UNL     1      47.252   3.739  15.472  0.00  0.00    +0.000 A 
ATOM      6  C   UNL     1      47.935   4.373  16.505  0.00  0.00    +0.000 A 
ATOM      7  C   UNL     1      48.484   5.650  16.319  0.00  0.00    +0.000 A 
ATOM      8  C   UNL     1      48.232   6.327  15.114  0.00  0.00    +0.000 A 
BRANCH   7   9
ATOM      9  C   UNL     1      49.440   6.203  17.364  0.00  0.00    +0.000 C 
BRANCH   9  10
ATOM     10  N   UNL     1      49.748   5.327  18.502  0.00  0.00    +0.000 N 
ATOM     11  C   UNL     1      51.154   5.129  18.867  0.00  0.00    +0.000 C 
ATOM     12  C   UNL     1      48.990   5.706  19.645  0.00  0.00    +0.000 A 
ATOM     13  C   UNL     1      48.797   4.784  20.678  0.00  0.00    +0.000 A 
ATOM     14  C   UNL     1      48.098   5.160  21.826  0.00  0.00    +0.000 A 
ATOM     15  C   UNL     1      47.608   6.453  21.932  0.00  0.00    +0.000 A 
ATOM     16  C   UNL     1      47.830   7.308  20.872  0.00  0.00    +0.000 A 
ATOM     17  N   UNL     1      48.492   6.959  19.746  0.00  0.00    +0.000 NA
ENDBRANCH   9  10
ENDBRANCH   7   9
ENDBRANCH   1   3
BRANCH   1  19
ATOM     18  C   UNL     1      46.735   8.695  12.215  0.00  0.00    +0.000 C 
ATOM     19  C   UNL     1      46.158   7.366  12.697  0.00  0.00    +0.000 C 
BRANCH  19  20
ATOM     20  C   UNL     1      44.952   6.849  11.888  0.00  0.00    +0.000 C 
ATOM     21  O   UNL     1      44.195   7.668  11.345  0.00  0.00    +0.000 OA
BRANCH  20  22
ATOM     22  C   UNL     1      44.672   5.413  11.655  0.00  0.00    +0.000 A 
ATOM     23  C   UNL     1      43.991   4.708  12.642  0.00  0.00    +0.000 A 
ATOM     24  S   UNL     1      43.551   3.130  12.184  0.00  0.00    +0.000 S 
ATOM     25  C   UNL     1      44.231   3.336  10.641  0.00  0.00    +0.000 A 
ATOM     26  N   UNL     1      44.094   2.367   9.696  0.00  0.00    +0.000 NA
ATOM     27  C   UNL     1      44.609   2.661   8.550  0.00  0.00    +0.000 A 
ATOM     28  N   UNL     1      45.287   3.818   8.279  0.00  0.00    +0.000 N 
ATOM     29  C   UNL     1      45.529   4.785   9.228  0.00  0.00    +0.000 A 
ATOM     30  O   UNL     1      46.274   5.724   8.985  0.00  0.00    +0.000 OA
ATOM     31  C   UNL     1      44.873   4.559  10.504  0.00  0.00    +0.000 A 
ATOM     32  H   UNL     1      45.727   3.959   7.381  0.00  0.00    +0.000 HD
ENDBRANCH  20  22
ENDBRANCH  19  20
ENDBRANCH   1  19
TORSDOF 6
ENDMDL
MODEL 5
REMARK VINA RESULT:    -7.282      3.659      8.020
REMARK INTER + INTRA:         -10.656
REMARK INTER:                  -9.749
REMARK INTRA:                  -0.908
REMARK UNBOUND:                -0.820
REMARK  Name = 
REMARK  8 active torsions:
REMARK  status: ('A' for Active; 'I' for Inactive)
REMARK    1  A    between atoms: C_1  and  C_2
REMARK    2  A    between atoms: C_2  and  N_3
REMARK    3  A    between atoms: C_2  and  C_19
REMARK    4  A    between atoms: N_3  and  C_4
REMARK    5  A    between atoms: C_8  and  C_9
REMARK    6  A    between atoms: C_9  and  N_10
REMARK    7  A    between atoms: N_10  and  C_11
REMARK    8  A    between atoms: C_19  and  C_21
REMARK                            x       y       z     vdW  Elec       q    Type
REMARK                         _______ _______ _______ _____ _____    ______ ____
ROOT
ATOM      1  N   UNL     1      46.997   6.957  11.649  0.00  0.00    +0.000 N 
ATOM      2  H   UNL     1      46.954   7.316  10.691  0.00  0.00    +0.000 HD
ENDROOT
BRANCH   1   3
ATOM      3  C   UNL     1      48.228   7.363  12.187  0.00  0.00    +0.000 A 
ATOM      4  C   UNL     1      48.933   8.345  11.480  0.00  0.00    +0.000 A 
ATOM      5  C   UNL     1      50.172   8.801  11.922  0.00  0.00    +0.000 A 
ATOM      6  C   UNL     1      50.682   8.338  13.131  0.00  0.00    +0.000 A 
ATOM      7  C   UNL     1      49.935   7.464  13.934  0.00  0.00    +0.000 A 
ATOM      8  C   UNL     1      48.714   6.970  13.443  0.00  0.00    +0.000 A 
BRANCH   7   9
ATOM      9  C   UNL     1      50.399   7.187  15.354  0.00  0.00    +0.000 C 
BRANCH   9  10
ATOM     10  N   UNL     1      49.510   7.631  16.436  0.00  0.00    +0.000 N 
ATOM     11  C   UNL     1      48.610   8.758  16.178  0.00  0.00    +0.000 C 
ATOM     12  C   UNL     1      48.785   6.532  16.972  0.00  0.00    +0.000 A 
ATOM     13  C   UNL     1      48.226   6.633  18.249  0.00  0.00    +0.000 A 
ATOM     14  C   UNL     1      47.469   5.580  18.766  0.00  0.00    +0.000 A 
ATOM     15  C   UNL     1      47.273   4.443  17.997  0.00  0.00    +0.000 A 
ATOM     16  C   UNL     1      47.858   4.407  16.748  0.00  0.00    +0.000 A 
ATOM     17  N   UNL     1      48.606   5.411  16.237  0.00  0.00    +0.000 NA
ENDBRANCH   9  10
ENDBRANCH   7   9
ENDBRANCH   1   3
BRANCH   1  19
ATOM     18  C   UNL     1      45.570   8.802  12.565  0.00  0.00    +0.000 C 
ATOM     19  C   UNL     1      45.713   7.298  12.341  0.00  0.00    +0.000 C 
BRANCH  19  20
ATOM     20  C   UNL     1      44.502   6.621  11.669  0.00  0.00    +0.000 C 
ATOM     21  O   UNL     1      43.581   7.330  11.234  0.00  0.00    +0.000 OA
BRANCH  20  22
ATOM     22  C   UNL     1      44.397   5.162  11.441  0.00  0.00    +0.000 A 
ATOM     23  C   UNL     1      43.705   4.400  12.377  0.00  0.00    +0.000 A 
ATOM     24  S   UNL     1      43.476   2.779  11.914  0.00  0.00    +0.000 S 
ATOM     25  C   UNL     1      44.270   3.039  10.435  0.00  0.00    +0.000 A 
ATOM     26  N   UNL     1      44.322   2.050   9.501  0.00  0.00    +0.000 NA
ATOM     27  C   UNL     1      44.907   2.384   8.401  0.00  0.00    +0.000 A 
ATOM     28  N   UNL     1      45.482   3.604   8.168  0.00  0.00    +0.000 N 
ATOM     29  C   UNL     1      45.533   4.601   9.115  0.00  0.00    +0.000 A 
ATOM     30  O   UNL     1      46.195   5.611   8.920  0.00  0.00    +0.000 OA
ATOM     31  C   UNL     1      44.791   4.321  10.331  0.00  0.00    +0.000 A 
ATOM     32  H   UNL     1      45.985   3.780   7.311  0.00  0.00    +0.000 HD
ENDBRANCH  20  22
ENDBRANCH  19  20
ENDBRANCH   1  19
TORSDOF 6
ENDMDL
MODEL 6
REMARK VINA RESULT:    -6.953      1.991      2.537
REMARK INTER + INTRA:         -10.213
REMARK INTER:                  -9.322
REMARK INTRA:                  -0.890
REMARK UNBOUND:                -0.820
REMARK  Name = 
REMARK  8 active torsions:
REMARK  status: ('A' for Active; 'I' for Inactive)
REMARK    1  A    between atoms: C_1  and  C_2
REMARK    2  A    between atoms: C_2  and  N_3
REMARK    3  A    between atoms: C_2  and  C_19
REMARK    4  A    between atoms: N_3  and  C_4
REMARK    5  A    between atoms: C_8  and  C_9
REMARK    6  A    between atoms: C_9  and  N_10
REMARK    7  A    between atoms: N_10  and  C_11
REMARK    8  A    between atoms: C_19  and  C_21
REMARK                            x       y       z     vdW  Elec       q    Type
REMARK                         _______ _______ _______ _____ _____    ______ ____
ROOT
ATOM      1  N   UNL     1      48.096   7.763  15.683  0.00  0.00    +0.000 N 
ATOM      2  H   UNL     1      47.633   8.656  15.869  0.00  0.00    +0.000 HD
ENDROOT
BRANCH   1   3
ATOM      3  C   UNL     1      48.225   7.648  14.291  0.00  0.00    +0.000 A 
ATOM      4  C   UNL     1      49.526   7.658  13.773  0.00  0.00    +0.000 A 
ATOM      5  C   UNL     1      49.757   7.568  12.403  0.00  0.00    +0.000 A 
ATOM      6  C   UNL     1      48.686   7.379  11.537  0.00  0.00    +0.000 A 
ATOM      7  C   UNL     1      47.385   7.220  12.035  0.00  0.00    +0.000 A 
ATOM      8  C   UNL     1      47.164   7.372  13.415  0.00  0.00    +0.000 A 
BRANCH   7   9
ATOM      9  C   UNL     1      46.284   6.757  11.094  0.00  0.00    +0.000 C 
BRANCH   9  10
ATOM     10  N   UNL     1      45.398   5.696  11.589  0.00  0.00    +0.000 N 
ATOM     11  C   UNL     1      44.115   6.081  12.182  0.00  0.00    +0.000 C 
ATOM     12  C   UNL     1      45.203   4.700  10.592  0.00  0.00    +0.000 A 
ATOM     13  C   UNL     1      44.769   3.426  10.968  0.00  0.00    +0.000 A 
ATOM     14  C   UNL     1      44.526   2.456   9.994  0.00  0.00    +0.000 A 
ATOM     15  C   UNL     1      44.710   2.773   8.657  0.00  0.00    +0.000 A 
ATOM     16  C   UNL     1      45.145   4.048   8.357  0.00  0.00    +0.000 A 
ATOM     17  N   UNL     1      45.400   4.996   9.287  0.00  0.00    +0.000 NA
ENDBRANCH   9  10
ENDBRANCH   7   9
ENDBRANCH   1   3
BRANCH   1  19
ATOM     18  C   UNL     1      49.757   9.026  17.070  0.00  0.00    +0.000 C 
ATOM     19  C   UNL     1      49.298   7.658  16.571  0.00  0.00    +0.000 C 
BRANCH  19  20
ATOM     20  C   UNL     1      49.107   6.594  17.671  0.00  0.00    +0.000 C 
ATOM     21  O   UNL     1      49.003   6.962  18.852  0.00  0.00    +0.000 OA
BRANCH  20  22
ATOM     22  C   UNL     1      48.967   5.146  17.399  0.00  0.00    +0.000 A 
ATOM     23  C   UNL     1      47.826   4.709  16.735  0.00  0.00    +0.000 A 
ATOM     24  S   UNL     1      47.866   3.064  16.301  0.00  0.00    +0.000 S 
ATOM     25  C   UNL     1      49.421   2.878  16.960  0.00  0.00    +0.000 A 
ATOM     26  N   UNL     1      50.090   1.702  16.818  0.00  0.00    +0.000 NA
ATOM     27  C   UNL     1      51.280   1.700  17.317  0.00  0.00    +0.000 A 
ATOM     28  N   UNL     1      51.842   2.755  17.983  0.00  0.00    +0.000 N 
ATOM     29  C   UNL     1      51.170   3.930  18.230  0.00  0.00    +0.000 A 
ATOM     30  O   UNL     1      51.652   4.781  18.966  0.00  0.00    +0.000 OA
ATOM     31  C   UNL     1      49.869   4.030  17.592  0.00  0.00    +0.000 A 
ATOM     32  H   UNL     1      52.752   2.667  18.411  0.00  0.00    +0.000 HD
ENDBRANCH  20  22
ENDBRANCH  19  20
ENDBRANCH   1  19
TORSDOF 6
ENDMDL
MODEL 7
REMARK VINA RESULT:    -6.894      3.236      7.557
REMARK INTER + INTRA:         -10.133
REMARK INTER:                  -8.380
REMARK INTRA:                  -1.753
REMARK UNBOUND:                -0.820
REMARK  Name = 
REMARK  8 active torsions:
REMARK  status: ('A' for Active; 'I' for Inactive)
REMARK    1  A    between atoms: C_1  and  C_2
REMARK    2  A    between atoms: C_2  and  N_3
REMARK    3  A    between atoms: C_2  and  C_19
REMARK    4  A    between atoms: N_3  and  C_4
REMARK    5  A    between atoms: C_8  and  C_9
REMARK    6  A    between atoms: C_9  and  N_10
REMARK    7  A    between atoms: N_10  and  C_11
REMARK    8  A    between atoms: C_19  and  C_21
REMARK                            x       y       z     vdW  Elec       q    Type
REMARK                         _______ _______ _______ _____ _____    ______ ____
ROOT
ATOM      1  N   UNL     1      50.014   9.111  13.681  0.00  0.00    +0.000 N 
ATOM      2  H   UNL     1      49.526   9.718  14.346  0.00  0.00    +0.000 HD
ENDROOT
BRANCH   1   3
ATOM      3  C   UNL     1      50.924   8.339  14.418  0.00  0.00    +0.000 A 
ATOM      4  C   UNL     1      52.281   8.493  14.107  0.00  0.00    +0.000 A 
ATOM      5  C   UNL     1      53.260   7.758  14.770  0.00  0.00    +0.000 A 
ATOM      6  C   UNL     1      52.896   6.918  15.817  0.00  0.00    +0.000 A 
ATOM      7  C   UNL     1      51.564   6.850  16.248  0.00  0.00    +0.000 A 
ATOM      8  C   UNL     1      50.582   7.554  15.530  0.00  0.00    +0.000 A 
BRANCH   7   9
ATOM      9  C   UNL     1      51.244   6.132  17.549  0.00  0.00    +0.000 C 
BRANCH   9  10
ATOM     10  N   UNL     1      51.207   4.665  17.500  0.00  0.00    +0.000 N 
ATOM     11  C   UNL     1      52.015   3.916  18.466  0.00  0.00    +0.000 C 
ATOM     12  C   UNL     1      49.864   4.196  17.509  0.00  0.00    +0.000 A 
ATOM     13  C   UNL     1      49.582   2.909  17.045  0.00  0.00    +0.000 A 
ATOM     14  C   UNL     1      48.276   2.419  17.095  0.00  0.00    +0.000 A 
ATOM     15  C   UNL     1      47.270   3.219  17.617  0.00  0.00    +0.000 A 
ATOM     16  C   UNL     1      47.618   4.481  18.052  0.00  0.00    +0.000 A 
ATOM     17  N   UNL     1      48.875   4.977  17.997  0.00  0.00    +0.000 NA
ENDBRANCH   9  10
ENDBRANCH   7   9
ENDBRANCH   1   3
BRANCH   1  19
ATOM     18  C   UNL     1      49.562   7.230  12.088  0.00  0.00    +0.000 C 
ATOM     19  C   UNL     1      48.993   8.454  12.802  0.00  0.00    +0.000 C 
BRANCH  19  20
ATOM     20  C   UNL     1      47.664   8.216  13.547  0.00  0.00    +0.000 C 
ATOM     21  O   UNL     1      47.462   8.803  14.621  0.00  0.00    +0.000 OA
BRANCH  20  22
ATOM     22  C   UNL     1      46.567   7.372  13.020  0.00  0.00    +0.000 A 
ATOM     23  C   UNL     1      45.622   7.966  12.189  0.00  0.00    +0.000 A 
ATOM     24  S   UNL     1      44.531   6.866  11.487  0.00  0.00    +0.000 S 
ATOM     25  C   UNL     1      45.293   5.551  12.245  0.00  0.00    +0.000 A 
ATOM     26  N   UNL     1      44.902   4.278  11.967  0.00  0.00    +0.000 NA
ATOM     27  C   UNL     1      45.590   3.365  12.565  0.00  0.00    +0.000 A 
ATOM     28  N   UNL     1      46.604   3.613  13.450  0.00  0.00    +0.000 N 
ATOM     29  C   UNL     1      46.972   4.883  13.830  0.00  0.00    +0.000 A 
ATOM     30  O   UNL     1      47.772   5.053  14.741  0.00  0.00    +0.000 OA
ATOM     31  C   UNL     1      46.310   5.950  13.102  0.00  0.00    +0.000 A 
ATOM     32  H   UNL     1      47.057   2.854  13.938  0.00  0.00    +0.000 HD
ENDBRANCH  20  22
ENDBRANCH  19  20
ENDBRANCH   1  19
TORSDOF 6
ENDMDL
MODEL 8
REMARK VINA RESULT:    -6.887      3.505      7.973
REMARK INTER + INTRA:         -10.122
REMARK INTER:                  -8.687
REMARK INTRA:                  -1.435
REMARK UNBOUND:                -0.820
REMARK  Name = 
REMARK  8 active torsions:
REMARK  status: ('A' for Active; 'I' for Inactive)
REMARK    1  A    between atoms: C_1  and  C_2
REMARK    2  A    between atoms: C_2  and  N_3
REMARK    3  A    between atoms: C_2  and  C_19
REMARK    4  A    between atoms: N_3  and  C_4
REMARK    5  A    between atoms: C_8  and  C_9
REMARK    6  A    between atoms: C_9  and  N_10
REMARK    7  A    between atoms: N_10  and  C_11
REMARK    8  A    between atoms: C_19  and  C_21
REMARK                            x       y       z     vdW  Elec       q    Type
REMARK                         _______ _______ _______ _____ _____    ______ ____
ROOT
ATOM      1  N   UNL     1      49.014   8.587  14.455  0.00  0.00    +0.000 N 
ATOM      2  H   UNL     1      49.719   9.307  14.274  0.00  0.00    +0.000 HD
ENDROOT
BRANCH   1   3
ATOM      3  C   UNL     1      48.755   8.602  15.834  0.00  0.00    +0.000 A 
ATOM      4  C   UNL     1      48.341   9.821  16.386  0.00  0.00    +0.000 A 
ATOM      5  C   UNL     1      48.077   9.942  17.748  0.00  0.00    +0.000 A 
ATOM      6  C   UNL     1      48.142   8.817  18.563  0.00  0.00    +0.000 A 
ATOM      7  C   UNL     1      48.412   7.554  18.016  0.00  0.00    +0.000 A 
ATOM      8  C   UNL     1      48.733   7.461  16.651  0.00  0.00    +0.000 A 
BRANCH   7   9
ATOM      9  C   UNL     1      48.218   6.318  18.879  0.00  0.00    +0.000 C 
BRANCH   9  10
ATOM     10  N   UNL     1      49.400   5.474  19.095  0.00  0.00    +0.000 N 
ATOM     11  C   UNL     1      49.739   5.089  20.468  0.00  0.00    +0.000 C 
ATOM     12  C   UNL     1      49.357   4.326  18.257  0.00  0.00    +0.000 A 
ATOM     13  C   UNL     1      50.537   3.631  17.980  0.00  0.00    +0.000 A 
ATOM     14  C   UNL     1      50.500   2.474  17.199  0.00  0.00    +0.000 A 
ATOM     15  C   UNL     1      49.283   2.022  16.713  0.00  0.00    +0.000 A 
ATOM     16  C   UNL     1      48.158   2.760  17.019  0.00  0.00    +0.000 A 
ATOM     17  N   UNL     1      48.176   3.890  17.761  0.00  0.00    +0.000 NA
ENDBRANCH   9  10
ENDBRANCH   7   9
ENDBRANCH   1   3
BRANCH   1  19
ATOM     18  C   UNL     1      47.938  10.127  12.797  0.00  0.00    +0.000 C 
ATOM     19  C   UNL     1      47.900   8.755  13.468  0.00  0.00    +0.000 C 
BRANCH  19  20
ATOM     20  C   UNL     1      47.806   7.559  12.500  0.00  0.00    +0.000 C 
ATOM     21  O   UNL     1      48.464   7.582  11.448  0.00  0.00    +0.000 OA
BRANCH  20  22
ATOM     22  C   UNL     1      47.025   6.333  12.781  0.00  0.00    +0.000 A 
ATOM     23  C   UNL     1      47.653   5.294  13.461  0.00  0.00    +0.000 A 
ATOM     24  S   UNL     1      46.609   4.026  13.903  0.00  0.00    +0.000 S 
ATOM     25  C   UNL     1      45.272   4.827  13.227  0.00  0.00    +0.000 A 
ATOM     26  N   UNL     1      44.020   4.311  13.368  0.00  0.00    +0.000 NA
ATOM     27  C   UNL     1      43.083   5.035  12.855  0.00  0.00    +0.000 A 
ATOM     28  N   UNL     1      43.291   6.206  12.177  0.00  0.00    +0.000 N 
ATOM     29  C   UNL     1      44.545   6.717  11.932  0.00  0.00    +0.000 A 
ATOM     30  O   UNL     1      44.691   7.677  11.186  0.00  0.00    +0.000 OA
ATOM     31  C   UNL     1      45.629   6.004  12.584  0.00  0.00    +0.000 A 
ATOM     32  H   UNL     1      42.521   6.690  11.740  0.00  0.00    +0.000 HD
ENDBRANCH  20  22
ENDBRANCH  19  20
ENDBRANCH   1  19
TORSDOF 6
ENDMDL
MODEL 9
REMARK VINA RESULT:    -6.847      2.768      4.807
REMARK INTER + INTRA:         -10.069
REMARK INTER:                  -8.035
REMARK INTRA:                  -2.034
REMARK UNBOUND:                -0.820
REMARK  Name = 
REMARK  8 active torsions:
REMARK  status: ('A' for Active; 'I' for Inactive)
REMARK    1  A    between atoms: C_1  and  C_2
REMARK    2  A    between atoms: C_2  and  N_3
REMARK    3  A    between atoms: C_2  and  C_19
REMARK    4  A    between atoms: N_3  and  C_4
REMARK    5  A    between atoms: C_8  and  C_9
REMARK    6  A    between atoms: C_9  and  N_10
REMARK    7  A    between atoms: N_10  and  C_11
REMARK    8  A    between atoms: C_19  and  C_21
REMARK                            x       y       z     vdW  Elec       q    Type
REMARK                         _______ _______ _______ _____ _____    ______ ____
ROOT
ATOM      1  N   UNL     1      47.611   7.760  18.895  0.00  0.00    +0.000 N 
ATOM      2  H   UNL     1      46.797   8.318  19.165  0.00  0.00    +0.000 HD
ENDROOT
BRANCH   1   3
ATOM      3  C   UNL     1      48.136   8.335  17.728  0.00  0.00    +0.000 A 
ATOM      4  C   UNL     1      48.373   9.715  17.755  0.00  0.00    +0.000 A 
ATOM      5  C   UNL     1      48.875  10.382  16.641  0.00  0.00    +0.000 A 
ATOM      6  C   UNL     1      49.229   9.656  15.508  0.00  0.00    +0.000 A 
ATOM      7  C   UNL     1      49.140   8.256  15.500  0.00  0.00    +0.000 A 
ATOM      8  C   UNL     1      48.576   7.607  16.612  0.00  0.00    +0.000 A 
BRANCH   7   9
ATOM      9  C   UNL     1      49.774   7.482  14.357  0.00  0.00    +0.000 C 
BRANCH   9  10
ATOM     10  N   UNL     1      49.119   7.588  13.046  0.00  0.00    +0.000 N 
ATOM     11  C   UNL     1      49.953   7.520  11.844  0.00  0.00    +0.000 C 
ATOM     12  C   UNL     1      48.037   6.669  12.951  0.00  0.00    +0.000 A 
ATOM     13  C   UNL     1      47.033   6.885  12.003  0.00  0.00    +0.000 A 
ATOM     14  C   UNL     1      45.993   5.964  11.866  0.00  0.00    +0.000 A 
ATOM     15  C   UNL     1      45.974   4.834  12.671  0.00  0.00    +0.000 A 
ATOM     16  C   UNL     1      46.994   4.688  13.589  0.00  0.00    +0.000 A 
ATOM     17  N   UNL     1      48.001   5.576  13.747  0.00  0.00    +0.000 NA
ENDBRANCH   9  10
ENDBRANCH   7   9
ENDBRANCH   1   3
BRANCH   1  19
ATOM     18  C   UNL     1      47.894   8.258  21.335  0.00  0.00    +0.000 C 
ATOM     19  C   UNL     1      48.474   7.565  20.104  0.00  0.00    +0.000 C 
BRANCH  19  20
ATOM     20  C   UNL     1      48.850   6.083  20.308  0.00  0.00    +0.000 C 
ATOM     21  O   UNL     1      48.568   5.533  21.384  0.00  0.00    +0.000 OA
BRANCH  20  22
ATOM     22  C   UNL     1      49.471   5.241  19.260  0.00  0.00    +0.000 A 
ATOM     23  C   UNL     1      50.853   5.080  19.280  0.00  0.00    +0.000 A 
ATOM     24  S   UNL     1      51.432   3.938  18.160  0.00  0.00    +0.000 S 
ATOM     25  C   UNL     1      49.857   3.596  17.622  0.00  0.00    +0.000 A 
ATOM     26  N   UNL     1      49.642   2.599  16.721  0.00  0.00    +0.000 NA
ATOM     27  C   UNL     1      48.401   2.401  16.429  0.00  0.00    +0.000 A 
ATOM     28  N   UNL     1      47.361   3.139  16.925  0.00  0.00    +0.000 N 
ATOM     29  C   UNL     1      47.539   4.213  17.768  0.00  0.00    +0.000 A 
ATOM     30  O   UNL     1      46.598   4.940  18.057  0.00  0.00    +0.000 OA
ATOM     31  C   UNL     1      48.905   4.410  18.219  0.00  0.00    +0.000 A 
ATOM     32  H   UNL     1      46.417   2.979  16.604  0.00  0.00    +0.000 HD
ENDBRANCH  20  22
ENDBRANCH  19  20
ENDBRANCH   1  19
TORSDOF 6
ENDMDL
