MODEL 1
REMARK VINA RESULT:    -8.193      0.000      0.000
REMARK INTER + INTRA:         -13.447
REMARK INTER:                 -12.025
REMARK INTRA:                  -1.422
REMARK UNBOUND:                -1.422
REMARK  Name = 
REMARK  8 active torsions:
REMARK  status: ('A' for Active; 'I' for Inactive)
REMARK    1  A    between atoms: C_2  and  C_3
REMARK    2  A    between atoms: C_10  and  C_11
REMARK    3  A    between atoms: N_13  and  C_14
REMARK    4  A    between atoms: C_14  and  C_15
REMARK    5  A    between atoms: C_18  and  N_19
REMARK    6  A    between atoms: N_19  and  C_20
REMARK    7  A    between atoms: C_20  and  C_21
REMARK    8  A    between atoms: C_21  and  C_22
REMARK                            x       y       z     vdW  Elec       q    Type
REMARK                         _______ _______ _______ _____ _____    ______ ____
ROOT
ATOM      1  C   UNL     1      47.029   8.267  13.129  0.00  0.00    +0.000 C 
ENDROOT
BRANCH   1   2
ATOM      2  C   UNL     1      46.174   7.285  12.377  0.00  0.00    +0.000 A 
ATOM      3  C   UNL     1      44.850   7.059  12.765  0.00  0.00    +0.000 A 
ATOM      4  C   UNL     1      44.030   6.193  12.029  0.00  0.00    +0.000 A 
ATOM      5  C   UNL     1      44.509   5.526  10.895  0.00  0.00    +0.000 A 
ATOM      6  C   UNL     1      45.855   5.709  10.556  0.00  0.00    +0.000 A 
ATOM      7  C   UNL     1      46.673   6.588  11.277  0.00  0.00    +0.000 A 
BRANCH   5   8
ATOM      8  N   UNL     1      43.720   4.734  10.066  0.00  0.00    +0.000 N 
ATOM      9  H   UNL     1      42.744   5.019  10.031  0.00  0.00    +0.000 HD
BRANCH   8  10
ATOM     10  C   UNL     1      44.294   4.136   8.866  0.00  0.00    +0.000 C 
BRANCH  10  11
ATOM     11  C   UNL     1      44.714   2.689   9.116  0.00  0.00    +0.000 C 
BRANCH  11  12
ATOM     12  C   UNL     1      45.796   2.268   8.154  0.00  0.00    +0.000 A 
ATOM     13  C   UNL     1      46.342   3.174   7.246  0.00  0.00    +0.000 A 
ATOM     14  C   UNL     1      47.339   2.735   6.377  0.00  0.00    +0.000 A 
ATOM     15  C   UNL     1      47.760   1.412   6.432  0.00  0.00    +0.000 A 
ATOM     16  C   UNL     1      47.157   0.576   7.353  0.00  0.00    +0.000 A 
ATOM     17  N   UNL     1      46.185   0.972   8.207  0.00  0.00    +0.000 NA
ENDBRANCH  11  12
ENDBRANCH  10  11
ENDBRANCH   8  10
ENDBRANCH   5   8
ENDBRANCH   1   2
BRANCH   1  20
ATOM     18  C   UNL     1      48.521   6.970  14.578  0.00  0.00    +0.000 C 
ATOM     19  O   UNL     1      49.258   6.666  13.654  0.00  0.00    +0.000 OA
ATOM     20  N   UNL     1      47.413   7.769  14.433  0.00  0.00    +0.000 N 
ATOM     21  H   UNL     1      46.755   7.873  15.187  0.00  0.00    +0.000 HD
BRANCH  18  29
ATOM     22  C   UNL     1      47.624   4.133  16.124  0.00  0.00    +0.000 A 
ATOM     23  N   UNL     1      47.421   3.081  16.957  0.00  0.00    +0.000 NA
ATOM     24  C   UNL     1      47.968   3.120  18.173  0.00  0.00    +0.000 A 
ATOM     25  N   UNL     1      48.711   4.101  18.677  0.00  0.00    +0.000 NA
ATOM     26  C   UNL     1      48.887   5.126  17.829  0.00  0.00    +0.000 A 
ATOM     27  S   UNL     1      49.809   6.466  18.322  0.00  0.00    +0.000 S 
ATOM     28  C   UNL     1      49.578   7.245  16.829  0.00  0.00    +0.000 A 
ATOM     29  C   UNL     1      48.798   6.514  15.945  0.00  0.00    +0.000 A 
ATOM     30  C   UNL     1      48.388   5.243  16.534  0.00  0.00    +0.000 A 
BRANCH  22  32
ATOM     31  N   UNL     1      46.366   3.922  13.866  0.00  0.00    +0.000 NA
ATOM     32  C   UNL     1      46.967   4.032  14.854  0.00  0.00    +0.000 C 
ENDBRANCH  22  32
ENDBRANCH  18  29
ENDBRANCH   1  20
TORSDOF 8
ENDMDL
MODEL 2
REMARK VINA RESULT:    -7.514      1.651      2.249
REMARK INTER + INTRA:         -12.450
REMARK INTER:                 -11.417
REMARK INTRA:                  -1.033
REMARK UNBOUND:                -1.422
REMARK  Name = 
REMARK  8 active torsions:
REMARK  status: ('A' for Active; 'I' for Inactive)
REMARK    1  A    between atoms: C_2  and  C_3
REMARK    2  A    between atoms: C_10  and  C_11
REMARK    3  A    between atoms: N_13  and  C_14
REMARK    4  A    between atoms: C_14  and  C_15
REMARK    5  A    between atoms: C_18  and  N_19
REMARK    6  A    between atoms: N_19  and  C_20
REMARK    7  A    between atoms: C_20  and  C_21
REMARK    8  A    between atoms: C_21  and  C_22
REMARK                            x       y       z     vdW  Elec       q    Type
REMARK                         _______ _______ _______ _____ _____    ______ ____
ROOT
ATOM      1  C   UNL     1      48.532   6.619  13.769  0.00  0.00    +0.000 C 
ENDROOT
BRANCH   1   2
ATOM      2  C   UNL     1      47.372   6.012  13.029  0.00  0.00    +0.000 A 
ATOM      3  C   UNL     1      46.706   4.898  13.551  0.00  0.00    +0.000 A 
ATOM      4  C   UNL     1      45.585   4.369  12.899  0.00  0.00    +0.000 A 
ATOM      5  C   UNL     1      45.103   4.929  11.710  0.00  0.00    +0.000 A 
ATOM      6  C   UNL     1      45.818   6.002  11.162  0.00  0.00    +0.000 A 
ATOM      7  C   UNL     1      46.927   6.547  11.821  0.00  0.00    +0.000 A 
BRANCH   5   8
ATOM      8  N   UNL     1      43.940   4.515  11.068  0.00  0.00    +0.000 N 
ATOM      9  H   UNL     1      43.107   5.025  11.353  0.00  0.00    +0.000 HD
BRANCH   8  10
ATOM     10  C   UNL     1      43.996   4.028   9.694  0.00  0.00    +0.000 C 
BRANCH  10  11
ATOM     11  C   UNL     1      44.558   2.609   9.632  0.00  0.00    +0.000 C 
BRANCH  11  12
ATOM     12  C   UNL     1      45.538   2.467   8.495  0.00  0.00    +0.000 A 
ATOM     13  C   UNL     1      45.769   3.519   7.610  0.00  0.00    +0.000 A 
ATOM     14  C   UNL     1      46.683   3.336   6.574  0.00  0.00    +0.000 A 
ATOM     15  C   UNL     1      47.335   2.116   6.445  0.00  0.00    +0.000 A 
ATOM     16  C   UNL     1      47.038   1.121   7.358  0.00  0.00    +0.000 A 
ATOM     17  N   UNL     1      46.154   1.267   8.370  0.00  0.00    +0.000 NA
ENDBRANCH  11  12
ENDBRANCH  10  11
ENDBRANCH   8  10
ENDBRANCH   5   8
ENDBRANCH   1   2
BRANCH   1  20
ATOM     18  C   UNL     1      49.148   6.760  16.138  0.00  0.00    +0.000 C 
ATOM     19  O   UNL     1      50.301   6.422  15.923  0.00  0.00    +0.000 OA
ATOM     20  N   UNL     1      48.206   6.909  15.150  0.00  0.00    +0.000 N 
ATOM     21  H   UNL     1      47.237   7.045  15.384  0.00  0.00    +0.000 HD
BRANCH  18  29
ATOM     22  C   UNL     1      48.947   4.784  18.839  0.00  0.00    +0.000 A 
ATOM     23  N   UNL     1      48.795   4.220  20.064  0.00  0.00    +0.000 NA
ATOM     24  C   UNL     1      48.374   4.990  21.068  0.00  0.00    +0.000 A 
ATOM     25  N   UNL     1      48.078   6.285  21.005  0.00  0.00    +0.000 NA
ATOM     26  C   UNL     1      48.235   6.808  19.780  0.00  0.00    +0.000 A 
ATOM     27  S   UNL     1      47.892   8.453  19.527  0.00  0.00    +0.000 S 
ATOM     28  C   UNL     1      48.303   8.343  17.881  0.00  0.00    +0.000 A 
ATOM     29  C   UNL     1      48.693   7.069  17.499  0.00  0.00    +0.000 A 
ATOM     30  C   UNL     1      48.663   6.148  18.631  0.00  0.00    +0.000 A 
BRANCH  22  32
ATOM     31  N   UNL     1      49.775   3.176  16.981  0.00  0.00    +0.000 NA
ATOM     32  C   UNL     1      49.361   3.880  17.806  0.00  0.00    +0.000 C 
ENDBRANCH  22  32
ENDBRANCH  18  29
ENDBRANCH   1  20
TORSDOF 8
ENDMDL
MODEL 3
REMARK VINA RESULT:    -7.317      1.956      2.859
REMARK INTER + INTRA:         -12.161
REMARK INTER:                 -11.068
REMARK INTRA:                  -1.093
REMARK UNBOUND:                -1.422
REMARK  Name = 
REMARK  8 active torsions:
REMARK  status: ('A' for Active; 'I' for Inactive)
REMARK    1  A    between atoms: C_2  and  C_3
REMARK    2  A    between atoms: C_10  and  C_11
REMARK    3  A    between atoms: N_13  and  C_14
REMARK    4  A    between atoms: C_14  and  C_15
REMARK    5  A    between atoms: C_18  and  N_19
REMARK    6  A    between atoms: N_19  and  C_20
REMARK    7  A    between atoms: C_20  and  C_21
REMARK    8  A    between atoms: C_21  and  C_22
REMARK                            x       y       z     vdW  Elec       q    Type
REMARK                         _______ _______ _______ _____ _____    ______ ____
ROOT
ATOM      1  C   UNL     1      48.064   6.960  13.882  0.00  0.00    +0.000 C 
ENDROOT
BRANCH   1   2
ATOM      2  C   UNL     1      47.061   6.208  13.050  0.00  0.00    +0.000 A 
ATOM      3  C   UNL     1      46.490   5.026  13.531  0.00  0.00    +0.000 A 
ATOM      4  C   UNL     1      45.508   4.357  12.789  0.00  0.00    +0.000 A 
ATOM      5  C   UNL     1      45.077   4.841  11.548  0.00  0.00    +0.000 A 
ATOM      6  C   UNL     1      45.706   5.988  11.047  0.00  0.00    +0.000 A 
ATOM      7  C   UNL     1      46.673   6.672  11.794  0.00  0.00    +0.000 A 
BRANCH   5   8
ATOM      8  N   UNL     1      44.040   4.280  10.811  0.00  0.00    +0.000 N 
ATOM      9  H   UNL     1      43.122   4.657  11.036  0.00  0.00    +0.000 HD
BRANCH   8  10
ATOM     10  C   UNL     1      44.271   3.844   9.438  0.00  0.00    +0.000 C 
BRANCH  10  11
ATOM     11  C   UNL     1      44.812   2.416   9.395  0.00  0.00    +0.000 C 
BRANCH  11  12
ATOM     12  C   UNL     1      45.769   2.237   8.244  0.00  0.00    +0.000 A 
ATOM     13  C   UNL     1      45.972   3.254   7.313  0.00  0.00    +0.000 A 
ATOM     14  C   UNL     1      46.866   3.038   6.266  0.00  0.00    +0.000 A 
ATOM     15  C   UNL     1      47.527   1.819   6.172  0.00  0.00    +0.000 A 
ATOM     16  C   UNL     1      47.258   0.859   7.130  0.00  0.00    +0.000 A 
ATOM     17  N   UNL     1      46.393   1.038   8.154  0.00  0.00    +0.000 NA
ENDBRANCH  11  12
ENDBRANCH  10  11
ENDBRANCH   8  10
ENDBRANCH   5   8
ENDBRANCH   1   2
BRANCH   1  20
ATOM     18  C   UNL     1      49.147   6.379  16.004  0.00  0.00    +0.000 C 
ATOM     19  O   UNL     1      50.268   6.522  15.542  0.00  0.00    +0.000 OA
ATOM     20  N   UNL     1      47.998   6.591  15.281  0.00  0.00    +0.000 N 
ATOM     21  H   UNL     1      47.103   6.321  15.653  0.00  0.00    +0.000 HD
BRANCH  18  29
ATOM     22  C   UNL     1      48.047   8.192  18.600  0.00  0.00    +0.000 A 
ATOM     23  N   UNL     1      47.613   8.683  19.789  0.00  0.00    +0.000 NA
ATOM     24  C   UNL     1      47.561   7.858  20.835  0.00  0.00    +0.000 A 
ATOM     25  N   UNL     1      47.896   6.571  20.847  0.00  0.00    +0.000 NA
ATOM     26  C   UNL     1      48.325   6.121  19.658  0.00  0.00    +0.000 A 
ATOM     27  S   UNL     1      48.798   4.496  19.505  0.00  0.00    +0.000 S 
ATOM     28  C   UNL     1      49.169   4.701  17.858  0.00  0.00    +0.000 A 
ATOM     29  C   UNL     1      48.951   5.993  17.406  0.00  0.00    +0.000 A 
ATOM     30  C   UNL     1      48.439   6.845  18.475  0.00  0.00    +0.000 A 
BRANCH  22  32
ATOM     31  N   UNL     1      48.187   9.869  16.627  0.00  0.00    +0.000 NA
ATOM     32  C   UNL     1      48.113   9.154  17.539  0.00  0.00    +0.000 C 
ENDBRANCH  22  32
ENDBRANCH  18  29
ENDBRANCH   1  20
TORSDOF 8
ENDMDL
MODEL 4
REMARK VINA RESULT:    -7.213      2.364      3.025
REMARK INTER + INTRA:         -12.008
REMARK INTER:                 -10.685
REMARK INTRA:                  -1.323
REMARK UNBOUND:                -1.422
REMARK  Name = 
REMARK  8 active torsions:
REMARK  status: ('A' for Active; 'I' for Inactive)
REMARK    1  A    between atoms: C_2  and  C_3
REMARK    2  A    between atoms: C_10  and  C_11
REMARK    3  A    between atoms: N_13  and  C_14
REMARK    4  A    between atoms: C_14  and  C_15
REMARK    5  A    between atoms: C_18  and  N_19
REMARK    6  A    between atoms: N_19  and  C_20
REMARK    7  A    between atoms: C_20  and  C_21
REMARK    8  A    between atoms: C_21  and  C_22
REMARK                            x       y       z     vdW  Elec       q    Type
REMARK                         _______ _______ _______ _____ _____    ______ ____
ROOT
ATOM      1  C   UNL     1      48.485   7.345  15.528  0.00  0.00    +0.000 C 
ENDROOT
BRANCH   1   2
ATOM      2  C   UNL     1      47.822   6.833  14.280  0.00  0.00    +0.000 A 
ATOM      3  C   UNL     1      47.275   5.546  14.248  0.00  0.00    +0.000 A 
ATOM      4  C   UNL     1      46.599   5.087  13.110  0.00  0.00    +0.000 A 
ATOM      5  C   UNL     1      46.458   5.893  11.974  0.00  0.00    +0.000 A 
ATOM      6  C   UNL     1      47.068   7.154  11.994  0.00  0.00    +0.000 A 
ATOM      7  C   UNL     1      47.727   7.624  13.136  0.00  0.00    +0.000 A 
BRANCH   5   8
ATOM      8  N   UNL     1      45.716   5.536  10.853  0.00  0.00    +0.000 N 
ATOM      9  H   UNL     1      46.268   5.448  10.002  0.00  0.00    +0.000 HD
BRANCH   8  10
ATOM     10  C   UNL     1      44.550   4.670  10.993  0.00  0.00    +0.000 C 
BRANCH  10  11
ATOM     11  C   UNL     1      43.992   4.269   9.629  0.00  0.00    +0.000 C 
BRANCH  11  12
ATOM     12  C   UNL     1      45.047   3.589   8.794  0.00  0.00    +0.000 A 
ATOM     13  C   UNL     1      45.293   2.223   8.919  0.00  0.00    +0.000 A 
ATOM     14  C   UNL     1      46.280   1.643   8.125  0.00  0.00    +0.000 A 
ATOM     15  C   UNL     1      46.997   2.436   7.237  0.00  0.00    +0.000 A 
ATOM     16  C   UNL     1      46.700   3.785   7.186  0.00  0.00    +0.000 A 
ATOM     17  N   UNL     1      45.750   4.377   7.945  0.00  0.00    +0.000 NA
ENDBRANCH  11  12
ENDBRANCH  10  11
ENDBRANCH   8  10
ENDBRANCH   5   8
ENDBRANCH   1   2
BRANCH   1  20
ATOM     18  C   UNL     1      49.622   5.971  17.211  0.00  0.00    +0.000 C 
ATOM     19  O   UNL     1      48.736   6.135  18.035  0.00  0.00    +0.000 OA
ATOM     20  N   UNL     1      49.587   6.502  15.945  0.00  0.00    +0.000 N 
ATOM     21  H   UNL     1      50.400   6.465  15.352  0.00  0.00    +0.000 HD
BRANCH  18  29
ATOM     22  C   UNL     1      49.982   2.638  17.180  0.00  0.00    +0.000 A 
ATOM     23  N   UNL     1      50.395   1.345  17.220  0.00  0.00    +0.000 NA
ATOM     24  C   UNL     1      51.670   1.097  17.521  0.00  0.00    +0.000 A 
ATOM     25  N   UNL     1      52.610   1.997  17.795  0.00  0.00    +0.000 NA
ATOM     26  C   UNL     1      52.166   3.262  17.752  0.00  0.00    +0.000 A 
ATOM     27  S   UNL     1      53.242   4.534  18.084  0.00  0.00    +0.000 S 
ATOM     28  C   UNL     1      52.027   5.699  17.844  0.00  0.00    +0.000 A 
ATOM     29  C   UNL     1      50.797   5.147  17.520  0.00  0.00    +0.000 A 
ATOM     30  C   UNL     1      50.875   3.691  17.456  0.00  0.00    +0.000 A 
BRANCH  22  32
ATOM     31  N   UNL     1      47.451   2.991  16.737  0.00  0.00    +0.000 NA
ATOM     32  C   UNL     1      48.588   2.816  16.892  0.00  0.00    +0.000 C 
ENDBRANCH  22  32
ENDBRANCH  18  29
ENDBRANCH   1  20
TORSDOF 8
ENDMDL
MODEL 5
REMARK VINA RESULT:    -6.888      1.897      2.279
REMARK INTER + INTRA:         -11.531
REMARK INTER:                 -10.433
REMARK INTRA:                  -1.098
REMARK UNBOUND:                -1.422
REMARK  Name = 
REMARK  8 active torsions:
REMARK  status: ('A' for Active; 'I' for Inactive)
REMARK    1  A    between atoms: C_2  and  C_3
REMARK    2  A    between atoms: C_10  and  C_11
REMARK    3  A    between atoms: N_13  and  C_14
REMARK    4  A    between atoms: C_14  and  C_15
REMARK    5  A    between atoms: C_18  and  N_19
REMARK    6  A    between atoms: N_19  and  C_20
REMARK    7  A    between atoms: C_20  and  C_21
REMARK    8  A    between atoms: C_21  and  C_22
REMARK                            x       y       z     vdW  Elec       q    Type
REMARK                         _______ _______ _______ _____ _____    ______ ____
ROOT
ATOM      1  C   UNL     1      47.744   7.750  13.927  0.00  0.00    +0.000 C 
ENDROOT
BRANCH   1   2
ATOM      2  C   UNL     1      46.964   6.699  13.186  0.00  0.00    +0.000 A 
ATOM      3  C   UNL     1      46.689   5.468  13.789  0.00  0.00    +0.000 A 
ATOM      4  C   UNL     1      45.907   4.511  13.128  0.00  0.00    +0.000 A 
ATOM      5  C   UNL     1      45.388   4.752  11.851  0.00  0.00    +0.000 A 
ATOM      6  C   UNL     1      45.727   5.961  11.231  0.00  0.00    +0.000 A 
ATOM      7  C   UNL     1      46.490   6.929  11.895  0.00  0.00    +0.000 A 
BRANCH   5   8
ATOM      8  N   UNL     1      44.526   3.887  11.184  0.00  0.00    +0.000 N 
ATOM      9  H   UNL     1      43.595   3.836  11.592  0.00  0.00    +0.000 HD
BRANCH   8  10
ATOM     10  C   UNL     1      44.641   3.708   9.741  0.00  0.00    +0.000 C 
BRANCH  10  11
ATOM     11  C   UNL     1      44.942   2.253   9.387  0.00  0.00    +0.000 C 
BRANCH  11  12
ATOM     12  C   UNL     1      45.847   2.168   8.184  0.00  0.00    +0.000 A 
ATOM     13  C   UNL     1      45.956   3.232   7.290  0.00  0.00    +0.000 A 
ATOM     14  C   UNL     1      46.806   3.103   6.193  0.00  0.00    +0.000 A 
ATOM     15  C   UNL     1      47.516   1.922   6.013  0.00  0.00    +0.000 A 
ATOM     16  C   UNL     1      47.340   0.911   6.940  0.00  0.00    +0.000 A 
ATOM     17  N   UNL     1      46.521   1.005   8.012  0.00  0.00    +0.000 NA
ENDBRANCH  11  12
ENDBRANCH  10  11
ENDBRANCH   8  10
ENDBRANCH   5   8
ENDBRANCH   1   2
BRANCH   1  20
ATOM     18  C   UNL     1      49.312   7.452  15.789  0.00  0.00    +0.000 C 
ATOM     19  O   UNL     1      48.596   8.057  16.571  0.00  0.00    +0.000 OA
ATOM     20  N   UNL     1      48.978   7.226  14.476  0.00  0.00    +0.000 N 
ATOM     21  H   UNL     1      49.656   6.854  13.832  0.00  0.00    +0.000 HD
BRANCH  18  29
ATOM     22  C   UNL     1      49.960   4.591  17.413  0.00  0.00    +0.000 A 
ATOM     23  N   UNL     1      50.489   3.503  18.028  0.00  0.00    +0.000 NA
ATOM     24  C   UNL     1      51.816   3.418  18.136  0.00  0.00    +0.000 A 
ATOM     25  N   UNL     1      52.705   4.305  17.698  0.00  0.00    +0.000 NA
ATOM     26  C   UNL     1      52.147   5.369  17.101  0.00  0.00    +0.000 A 
ATOM     27  S   UNL     1      53.148   6.599  16.490  0.00  0.00    +0.000 S 
ATOM     28  C   UNL     1      51.808   7.494  15.944  0.00  0.00    +0.000 A 
ATOM     29  C   UNL     1      50.594   6.884  16.223  0.00  0.00    +0.000 A 
ATOM     30  C   UNL     1      50.790   5.610  16.907  0.00  0.00    +0.000 A 
BRANCH  22  32
ATOM     31  N   UNL     1      47.373   4.701  17.277  0.00  0.00    +0.000 NA
ATOM     32  C   UNL     1      48.527   4.626  17.377  0.00  0.00    +0.000 C 
ENDBRANCH  22  32
ENDBRANCH  18  29
ENDBRANCH   1  20
TORSDOF 8
ENDMDL
MODEL 6
REMARK VINA RESULT:    -6.757      2.300      3.018
REMARK INTER + INTRA:         -11.339
REMARK INTER:                 -10.118
REMARK INTRA:                  -1.221
REMARK UNBOUND:                -1.422
REMARK  Name = 
REMARK  8 active torsions:
REMARK  status: ('A' for Active; 'I' for Inactive)
REMARK    1  A    between atoms: C_2  and  C_3
REMARK    2  A    between atoms: C_10  and  C_11
REMARK    3  A    between atoms: N_13  and  C_14
REMARK    4  A    between atoms: C_14  and  C_15
REMARK    5  A    between atoms: C_18  and  N_19
REMARK    6  A    between atoms: N_19  and  C_20
REMARK    7  A    between atoms: C_20  and  C_21
REMARK    8  A    between atoms: C_21  and  C_22
REMARK                            x       y       z     vdW  Elec       q    Type
REMARK                         _______ _______ _______ _____ _____    ______ ____
ROOT
ATOM      1  C   UNL     1      48.078   9.306  14.448  0.00  0.00    +0.000 C 
ENDROOT
BRANCH   1   2
ATOM      2  C   UNL     1      47.400   8.324  13.533  0.00  0.00    +0.000 A 
ATOM      3  C   UNL     1      46.238   8.687  12.844  0.00  0.00    +0.000 A 
ATOM      4  C   UNL     1      45.639   7.799  11.942  0.00  0.00    +0.000 A 
ATOM      5  C   UNL     1      46.174   6.527  11.708  0.00  0.00    +0.000 A 
ATOM      6  C   UNL     1      47.298   6.151  12.454  0.00  0.00    +0.000 A 
ATOM      7  C   UNL     1      47.913   7.042  13.342  0.00  0.00    +0.000 A 
BRANCH   5   8
ATOM      8  N   UNL     1      45.686   5.639  10.755  0.00  0.00    +0.000 N 
ATOM      9  H   UNL     1      46.349   5.425  10.012  0.00  0.00    +0.000 HD
BRANCH   8  10
ATOM     10  C   UNL     1      44.746   4.593  11.143  0.00  0.00    +0.000 C 
BRANCH  10  11
ATOM     11  C   UNL     1      44.039   4.005   9.924  0.00  0.00    +0.000 C 
BRANCH  11  12
ATOM     12  C   UNL     1      45.032   3.403   8.962  0.00  0.00    +0.000 A 
ATOM     13  C   UNL     1      45.336   2.044   9.001  0.00  0.00    +0.000 A 
ATOM     14  C   UNL     1      46.263   1.536   8.092  0.00  0.00    +0.000 A 
ATOM     15  C   UNL     1      46.862   2.394   7.177  0.00  0.00    +0.000 A 
ATOM     16  C   UNL     1      46.513   3.731   7.215  0.00  0.00    +0.000 A 
ATOM     17  N   UNL     1      45.621   4.253   8.087  0.00  0.00    +0.000 NA
ENDBRANCH  11  12
ENDBRANCH  10  11
ENDBRANCH   8  10
ENDBRANCH   5   8
ENDBRANCH   1   2
BRANCH   1  20
ATOM     18  C   UNL     1      48.621   9.153  16.834  0.00  0.00    +0.000 C 
ATOM     19  O   UNL     1      49.808   9.364  16.642  0.00  0.00    +0.000 OA
ATOM     20  N   UNL     1      47.684   9.124  15.830  0.00  0.00    +0.000 N 
ATOM     21  H   UNL     1      46.749   8.803  16.012  0.00  0.00    +0.000 HD
BRANCH  18  29
ATOM     22  C   UNL     1      48.388   6.332  18.632  0.00  0.00    +0.000 A 
ATOM     23  N   UNL     1      48.210   5.362  19.563  0.00  0.00    +0.000 NA
ATOM     24  C   UNL     1      47.722   5.708  20.755  0.00  0.00    +0.000 A 
ATOM     25  N   UNL     1      47.379   6.932  21.146  0.00  0.00    +0.000 NA
ATOM     26  C   UNL     1      47.565   7.865  20.199  0.00  0.00    +0.000 A 
ATOM     27  S   UNL     1      47.170   9.483  20.538  0.00  0.00    +0.000 S 
ATOM     28  C   UNL     1      47.649   9.983  18.985  0.00  0.00    +0.000 A 
ATOM     29  C   UNL     1      48.102   8.940  18.190  0.00  0.00    +0.000 A 
ATOM     30  C   UNL     1      48.061   7.673  18.913  0.00  0.00    +0.000 A 
BRANCH  22  32
ATOM     31  N   UNL     1      49.190   5.499  16.311  0.00  0.00    +0.000 NA
ATOM     32  C   UNL     1      48.876   5.870  17.365  0.00  0.00    +0.000 C 
ENDBRANCH  22  32
ENDBRANCH  18  29
ENDBRANCH   1  20
TORSDOF 8
ENDMDL
MODEL 7
REMARK VINA RESULT:    -6.469      2.155      3.015
REMARK INTER + INTRA:         -10.917
REMARK INTER:                 -10.059
REMARK INTRA:                  -0.858
REMARK UNBOUND:                -1.422
REMARK  Name = 
REMARK  8 active torsions:
REMARK  status: ('A' for Active; 'I' for Inactive)
REMARK    1  A    between atoms: C_2  and  C_3
REMARK    2  A    between atoms: C_10  and  C_11
REMARK    3  A    between atoms: N_13  and  C_14
REMARK    4  A    between atoms: C_14  and  C_15
REMARK    5  A    between atoms: C_18  and  N_19
REMARK    6  A    between atoms: N_19  and  C_20
REMARK    7  A    between atoms: C_20  and  C_21
REMARK    8  A    between atoms: C_21  and  C_22
REMARK                            x       y       z     vdW  Elec       q    Type
REMARK                         _______ _______ _______ _____ _____    ______ ____
ROOT
ATOM      1  C   UNL     1      47.680   7.071  13.653  0.00  0.00    +0.000 C 
ENDROOT
BRANCH   1   2
ATOM      2  C   UNL     1      46.638   6.342  12.850  0.00  0.00    +0.000 A 
ATOM      3  C   UNL     1      46.060   6.947  11.729  0.00  0.00    +0.000 A 
ATOM      4  C   UNL     1      45.137   6.248  10.940  0.00  0.00    +0.000 A 
ATOM      5  C   UNL     1      44.760   4.936  11.251  0.00  0.00    +0.000 A 
ATOM      6  C   UNL     1      45.294   4.367  12.413  0.00  0.00    +0.000 A 
ATOM      7  C   UNL     1      46.232   5.054  13.194  0.00  0.00    +0.000 A 
BRANCH   5   8
ATOM      8  N   UNL     1      43.928   4.156  10.455  0.00  0.00    +0.000 N 
ATOM      9  H   UNL     1      43.041   4.599  10.225  0.00  0.00    +0.000 HD
BRANCH   8  10
ATOM     10  C   UNL     1      44.501   3.244   9.471  0.00  0.00    +0.000 C 
BRANCH  10  11
ATOM     11  C   UNL     1      45.221   4.008   8.362  0.00  0.00    +0.000 C 
BRANCH  11  12
ATOM     12  C   UNL     1      46.040   3.074   7.508  0.00  0.00    +0.000 A 
ATOM     13  C   UNL     1      46.402   1.809   7.970  0.00  0.00    +0.000 A 
ATOM     14  C   UNL     1      47.161   0.984   7.143  0.00  0.00    +0.000 A 
ATOM     15  C   UNL     1      47.543   1.440   5.887  0.00  0.00    +0.000 A 
ATOM     16  C   UNL     1      47.153   2.712   5.512  0.00  0.00    +0.000 A 
ATOM     17  N   UNL     1      46.420   3.537   6.293  0.00  0.00    +0.000 NA
ENDBRANCH  11  12
ENDBRANCH  10  11
ENDBRANCH   8  10
ENDBRANCH   5   8
ENDBRANCH   1   2
BRANCH   1  20
ATOM     18  C   UNL     1      48.682   6.827  15.878  0.00  0.00    +0.000 C 
ATOM     19  O   UNL     1      48.642   8.027  16.096  0.00  0.00    +0.000 OA
ATOM     20  N   UNL     1      48.216   6.252  14.720  0.00  0.00    +0.000 N 
ATOM     21  H   UNL     1      48.401   5.283  14.520  0.00  0.00    +0.000 HD
BRANCH  18  29
ATOM     22  C   UNL     1      51.851   6.251  16.807  0.00  0.00    +0.000 A 
ATOM     23  N   UNL     1      53.017   5.852  17.376  0.00  0.00    +0.000 NA
ATOM     24  C   UNL     1      52.968   4.954  18.360  0.00  0.00    +0.000 A 
ATOM     25  N   UNL     1      51.875   4.388  18.863  0.00  0.00    +0.000 NA
ATOM     26  C   UNL     1      50.742   4.801  18.275  0.00  0.00    +0.000 A 
ATOM     27  S   UNL     1      49.255   4.167  18.797  0.00  0.00    +0.000 S 
ATOM     28  C   UNL     1      48.395   5.103  17.667  0.00  0.00    +0.000 A 
ATOM     29  C   UNL     1      49.215   5.895  16.878  0.00  0.00    +0.000 A 
ATOM     30  C   UNL     1      50.619   5.725  17.241  0.00  0.00    +0.000 A 
BRANCH  22  32
ATOM     31  N   UNL     1      52.048   7.899  14.815  0.00  0.00    +0.000 NA
ATOM     32  C   UNL     1      51.994   7.184  15.728  0.00  0.00    +0.000 C 
ENDBRANCH  22  32
ENDBRANCH  18  29
ENDBRANCH   1  20
TORSDOF 8
ENDMDL
MODEL 8
REMARK VINA RESULT:    -6.266      3.747      9.666
REMARK INTER + INTRA:         -10.618
REMARK INTER:                  -9.193
REMARK INTRA:                  -1.425
REMARK UNBOUND:                -1.422
REMARK  Name = 
REMARK  8 active torsions:
REMARK  status: ('A' for Active; 'I' for Inactive)
REMARK    1  A    between atoms: C_2  and  C_3
REMARK    2  A    between atoms: C_10  and  C_11
REMARK    3  A    between atoms: N_13  and  C_14
REMARK    4  A    between atoms: C_14  and  C_15
REMARK    5  A    between atoms: C_18  and  N_19
REMARK    6  A    between atoms: N_19  and  C_20
REMARK    7  A    between atoms: C_20  and  C_21
REMARK    8  A    between atoms: C_21  and  C_22
REMARK                            x       y       z     vdW  Elec       q    Type
REMARK                         _______ _______ _______ _____ _____    ______ ____
ROOT
ATOM      1  C   UNL     1      49.300   7.008  15.525  0.00  0.00    +0.000 C 
ENDROOT
BRANCH   1   2
ATOM      2  C   UNL     1      49.180   6.148  16.753  0.00  0.00    +0.000 A 
ATOM      3  C   UNL     1      50.287   5.946  17.584  0.00  0.00    +0.000 A 
ATOM      4  C   UNL     1      50.165   5.199  18.762  0.00  0.00    +0.000 A 
ATOM      5  C   UNL     1      48.943   4.628  19.139  0.00  0.00    +0.000 A 
ATOM      6  C   UNL     1      47.860   4.781  18.264  0.00  0.00    +0.000 A 
ATOM      7  C   UNL     1      47.972   5.543  17.096  0.00  0.00    +0.000 A 
BRANCH   5   8
ATOM      8  N   UNL     1      48.732   3.961  20.342  0.00  0.00    +0.000 N 
ATOM      9  H   UNL     1      49.014   2.984  20.327  0.00  0.00    +0.000 HD
BRANCH   8  10
ATOM     10  C   UNL     1      48.852   4.680  21.606  0.00  0.00    +0.000 C 
BRANCH  10  11
ATOM     11  C   UNL     1      47.636   5.569  21.854  0.00  0.00    +0.000 C 
BRANCH  11  12
ATOM     12  C   UNL     1      48.030   7.025  21.881  0.00  0.00    +0.000 A 
ATOM     13  C   UNL     1      47.086   8.019  22.133  0.00  0.00    +0.000 A 
ATOM     14  C   UNL     1      47.501   9.350  22.146  0.00  0.00    +0.000 A 
ATOM     15  C   UNL     1      48.835   9.653  21.903  0.00  0.00    +0.000 A 
ATOM     16  C   UNL     1      49.703   8.606  21.649  0.00  0.00    +0.000 A 
ATOM     17  N   UNL     1      49.330   7.307  21.627  0.00  0.00    +0.000 NA
ENDBRANCH  11  12
ENDBRANCH  10  11
ENDBRANCH   8  10
ENDBRANCH   5   8
ENDBRANCH   1   2
BRANCH   1  20
ATOM     18  C   UNL     1      48.023   6.731  13.450  0.00  0.00    +0.000 C 
ATOM     19  O   UNL     1      48.996   6.329  12.831  0.00  0.00    +0.000 OA
ATOM     20  N   UNL     1      48.059   7.070  14.780  0.00  0.00    +0.000 N 
ATOM     21  H   UNL     1      47.276   7.533  15.211  0.00  0.00    +0.000 HD
BRANCH  18  29
ATOM     22  C   UNL     1      45.480   4.550  13.322  0.00  0.00    +0.000 A 
ATOM     23  N   UNL     1      44.315   3.877  13.144  0.00  0.00    +0.000 NA
ATOM     24  C   UNL     1      43.328   4.481  12.482  0.00  0.00    +0.000 A 
ATOM     25  N   UNL     1      43.355   5.705  11.962  0.00  0.00    +0.000 NA
ATOM     26  C   UNL     1      44.522   6.339  12.153  0.00  0.00    +0.000 A 
ATOM     27  S   UNL     1      44.722   7.913  11.543  0.00  0.00    +0.000 S 
ATOM     28  C   UNL     1      46.311   8.003  12.144  0.00  0.00    +0.000 A 
ATOM     29  C   UNL     1      46.713   6.850  12.801  0.00  0.00    +0.000 A 
ATOM     30  C   UNL     1      45.645   5.854  12.817  0.00  0.00    +0.000 A 
BRANCH  22  32
ATOM     31  N   UNL     1      47.353   3.183  14.482  0.00  0.00    +0.000 NA
ATOM     32  C   UNL     1      46.504   3.814  14.004  0.00  0.00    +0.000 C 
ENDBRANCH  22  32
ENDBRANCH  18  29
ENDBRANCH   1  20
TORSDOF 8
ENDMDL
MODEL 9
REMARK VINA RESULT:    -6.197      3.783      8.534
REMARK INTER + INTRA:         -10.517
REMARK INTER:                  -8.888
REMARK INTRA:                  -1.630
REMARK UNBOUND:                -1.422
REMARK  Name = 
REMARK  8 active torsions:
REMARK  status: ('A' for Active; 'I' for Inactive)
REMARK    1  A    between atoms: C_2  and  C_3
REMARK    2  A    between atoms: C_10  and  C_11
REMARK    3  A    between atoms: N_13  and  C_14
REMARK    4  A    between atoms: C_14  and  C_15
REMARK    5  A    between atoms: C_18  and  N_19
REMARK    6  A    between atoms: N_19  and  C_20
REMARK    7  A    between atoms: C_20  and  C_21
REMARK    8  A    between atoms: C_21  and  C_22
REMARK                            x       y       z     vdW  Elec       q    Type
REMARK                         _______ _______ _______ _____ _____    ______ ____
ROOT
ATOM      1  C   UNL     1      49.427   7.791  15.115  0.00  0.00    +0.000 C 
ENDROOT
BRANCH   1   2
ATOM      2  C   UNL     1      49.279   8.103  16.579  0.00  0.00    +0.000 A 
ATOM      3  C   UNL     1      48.170   8.820  17.040  0.00  0.00    +0.000 A 
ATOM      4  C   UNL     1      47.995   9.057  18.409  0.00  0.00    +0.000 A 
ATOM      5  C   UNL     1      48.920   8.595  19.352  0.00  0.00    +0.000 A 
ATOM      6  C   UNL     1      50.060   7.938  18.873  0.00  0.00    +0.000 A 
ATOM      7  C   UNL     1      50.230   7.681  17.507  0.00  0.00    +0.000 A 
BRANCH   5   8
ATOM      8  N   UNL     1      48.754   8.710  20.728  0.00  0.00    +0.000 N 
ATOM      9  H   UNL     1      48.227   9.533  21.013  0.00  0.00    +0.000 HD
BRANCH   8  10
ATOM     10  C   UNL     1      48.633   7.513  21.553  0.00  0.00    +0.000 C 
BRANCH  10  11
ATOM     11  C   UNL     1      47.388   6.710  21.182  0.00  0.00    +0.000 C 
BRANCH  11  12
ATOM     12  C   UNL     1      47.694   5.715  20.091  0.00  0.00    +0.000 A 
ATOM     13  C   UNL     1      48.753   4.817  20.213  0.00  0.00    +0.000 A 
ATOM     14  C   UNL     1      48.995   3.919  19.175  0.00  0.00    +0.000 A 
ATOM     15  C   UNL     1      48.183   3.943  18.048  0.00  0.00    +0.000 A 
ATOM     16  C   UNL     1      47.162   4.874  18.002  0.00  0.00    +0.000 A 
ATOM     17  N   UNL     1      46.905   5.760  18.990  0.00  0.00    +0.000 NA
ENDBRANCH  11  12
ENDBRANCH  10  11
ENDBRANCH   8  10
ENDBRANCH   5   8
ENDBRANCH   1   2
BRANCH   1  20
ATOM     18  C   UNL     1      47.966   6.914  13.353  0.00  0.00    +0.000 C 
ATOM     19  O   UNL     1      48.830   6.167  12.921  0.00  0.00    +0.000 OA
ATOM     20  N   UNL     1      48.148   7.736  14.438  0.00  0.00    +0.000 N 
ATOM     21  H   UNL     1      47.465   8.437  14.669  0.00  0.00    +0.000 HD
BRANCH  18  29
ATOM     22  C   UNL     1      45.549   4.590  13.293  0.00  0.00    +0.000 A 
ATOM     23  N   UNL     1      44.420   3.851  13.147  0.00  0.00    +0.000 NA
ATOM     24  C   UNL     1      43.381   4.398  12.516  0.00  0.00    +0.000 A 
ATOM     25  N   UNL     1      43.322   5.622  11.999  0.00  0.00    +0.000 NA
ATOM     26  C   UNL     1      44.456   6.322  12.157  0.00  0.00    +0.000 A 
ATOM     27  S   UNL     1      44.548   7.905  11.546  0.00  0.00    +0.000 S 
ATOM     28  C   UNL     1      46.145   8.086  12.101  0.00  0.00    +0.000 A 
ATOM     29  C   UNL     1      46.632   6.957  12.743  0.00  0.00    +0.000 A 
ATOM     30  C   UNL     1      45.624   5.902  12.787  0.00  0.00    +0.000 A 
BRANCH  22  32
ATOM     31  N   UNL     1      47.455   3.306  14.495  0.00  0.00    +0.000 NA
ATOM     32  C   UNL     1      46.633   3.914  13.944  0.00  0.00    +0.000 C 
ENDBRANCH  22  32
ENDBRANCH  18  29
ENDBRANCH   1  20
TORSDOF 8
ENDMDL
