MODEL 1
REMARK VINA RESULT:    -7.881      0.000      0.000
REMARK INTER + INTRA:         -12.185
REMARK INTER:                 -11.107
REMARK INTRA:                  -1.078
REMARK UNBOUND:                -1.078
REMARK  Name = 
REMARK  8 active torsions:
REMARK  status: ('A' for Active; 'I' for Inactive)
REMARK    1  A    between atoms: C_1  and  O_2
REMARK    2  A    between atoms: O_2  and  C_3
REMARK    3  A    between atoms: C_3  and  C_4
REMARK    4  A    between atoms: C_4  and  N_5
REMARK    5  A    between atoms: C_4  and  C_18
REMARK    6  A    between atoms: C_6  and  C_8
REMARK    7  A    between atoms: C_21  and  C_22
REMARK    8  A    between atoms: C_22  and  N_23
REMARK                            x       y       z     vdW  Elec       q    Type
REMARK                         _______ _______ _______ _____ _____    ______ ____
ROOT
ATOM      1  C   UNL     1      44.732   4.553  10.082  0.00  0.00    +0.000 C 
ENDROOT
BRANCH   1   2
ATOM      2  C   UNL     1      45.514   3.770   9.036  0.00  0.00    +0.000 A 
ATOM      3  C   UNL     1      45.509   2.370   9.035  0.00  0.00    +0.000 A 
ATOM      4  C   UNL     1      46.188   1.659   8.040  0.00  0.00    +0.000 A 
ATOM      5  C   UNL     1      46.884   2.332   7.026  0.00  0.00    +0.000 A 
ATOM      6  C   UNL     1      46.897   3.730   7.029  0.00  0.00    +0.000 A 
ATOM      7  C   UNL     1      46.232   4.436   8.028  0.00  0.00    +0.000 A 
BRANCH   5   8
ATOM      8  C   UNL     1      47.591   1.575   5.931  0.00  0.00    +0.000 C 
BRANCH   8   9
ATOM      9  N   UNL     1      46.891   1.769   4.667  0.00  0.00    +0.000 N 
ATOM     10  C   UNL     1      46.647   0.567   3.981  0.00  0.00    +0.000 A 
ATOM     11  C   UNL     1      45.973   0.584   2.756  0.00  0.00    +0.000 A 
ATOM     12  N   UNL     1      45.679  -0.531   2.037  0.00  0.00    +0.000 NA
ATOM     13  C   UNL     1      46.070  -1.690   2.605  0.00  0.00    +0.000 A 
ATOM     14  C   UNL     1      46.726  -1.729   3.820  0.00  0.00    +0.000 A 
ATOM     15  N   UNL     1      47.022  -0.612   4.523  0.00  0.00    +0.000 NA
ATOM     16  H   UNL     1      47.372   2.426   4.061  0.00  0.00    +0.000 HD
ENDBRANCH   8   9
ENDBRANCH   5   8
ENDBRANCH   1   2
BRANCH   1  17
ATOM     17  N   UNL     1      45.653   5.041  11.102  0.00  0.00    +0.000 N 
ATOM     18  C   UNL     1      45.772   6.359  11.451  0.00  0.00    +0.000 C 
ATOM     19  O   UNL     1      45.024   7.232  11.022  0.00  0.00    +0.000 OA
ATOM     20  H   UNL     1      46.376   4.394  11.389  0.00  0.00    +0.000 HD
BRANCH  18  21
ATOM     21  C   UNL     1      46.847   6.671  12.407  0.00  0.00    +0.000 A 
ATOM     22  C   UNL     1      47.755   7.680  12.120  0.00  0.00    +0.000 A 
ATOM     23  S   UNL     1      48.948   7.889  13.320  0.00  0.00    +0.000 S 
ATOM     24  C   UNL     1      48.324   6.604  14.243  0.00  0.00    +0.000 A 
ATOM     25  N   UNL     1      48.928   6.209  15.394  0.00  0.00    +0.000 NA
ATOM     26  C   UNL     1      48.379   5.194  15.970  0.00  0.00    +0.000 A 
ATOM     27  N   UNL     1      47.259   4.552  15.512  0.00  0.00    +0.000 N 
ATOM     28  C   UNL     1      46.555   4.988  14.418  0.00  0.00    +0.000 A 
ATOM     29  O   UNL     1      45.454   4.514  14.153  0.00  0.00    +0.000 OA
ATOM     30  C   UNL     1      47.181   6.065  13.678  0.00  0.00    +0.000 A 
ATOM     31  H   UNL     1      46.841   3.802  16.043  0.00  0.00    +0.000 HD
ENDBRANCH  18  21
ENDBRANCH   1  17
BRANCH   1  32
ATOM     32  C   UNL     1      43.637   3.660  10.713  0.00  0.00    +0.000 C 
BRANCH  32  34
ATOM     33  C   UNL     1      42.537   5.088  12.232  0.00  0.00    +0.000 C 
ATOM     34  O   UNL     1      42.450   4.416  10.982  0.00  0.00    +0.000 OA
ENDBRANCH  32  34
ENDBRANCH   1  32
TORSDOF 7
ENDMDL
MODEL 2
REMARK VINA RESULT:    -7.364      3.204      5.601
REMARK INTER + INTRA:         -11.456
REMARK INTER:                 -10.439
REMARK INTRA:                  -1.017
REMARK UNBOUND:                -1.078
REMARK  Name = 
REMARK  8 active torsions:
REMARK  status: ('A' for Active; 'I' for Inactive)
REMARK    1  A    between atoms: C_1  and  O_2
REMARK    2  A    between atoms: O_2  and  C_3
REMARK    3  A    between atoms: C_3  and  C_4
REMARK    4  A    between atoms: C_4  and  N_5
REMARK    5  A    between atoms: C_4  and  C_18
REMARK    6  A    between atoms: C_6  and  C_8
REMARK    7  A    between atoms: C_21  and  C_22
REMARK    8  A    between atoms: C_22  and  N_23
REMARK                            x       y       z     vdW  Elec       q    Type
REMARK                         _______ _______ _______ _____ _____    ______ ____
ROOT
ATOM      1  C   UNL     1      47.669   6.808  13.489  0.00  0.00    +0.000 C 
ENDROOT
BRANCH   1   2
ATOM      2  C   UNL     1      46.714   5.962  12.656  0.00  0.00    +0.000 A 
ATOM      3  C   UNL     1      46.238   6.421  11.423  0.00  0.00    +0.000 A 
ATOM      4  C   UNL     1      45.402   5.615  10.641  0.00  0.00    +0.000 A 
ATOM      5  C   UNL     1      45.027   4.337  11.078  0.00  0.00    +0.000 A 
ATOM      6  C   UNL     1      45.495   3.879  12.313  0.00  0.00    +0.000 A 
ATOM      7  C   UNL     1      46.316   4.688  13.095  0.00  0.00    +0.000 A 
BRANCH   5   8
ATOM      8  C   UNL     1      44.153   3.449  10.228  0.00  0.00    +0.000 C 
BRANCH   8   9
ATOM      9  N   UNL     1      44.872   2.227   9.892  0.00  0.00    +0.000 N 
ATOM     10  C   UNL     1      45.552   2.305   8.665  0.00  0.00    +0.000 A 
ATOM     11  C   UNL     1      46.299   1.216   8.206  0.00  0.00    +0.000 A 
ATOM     12  N   UNL     1      47.002   1.214   7.042  0.00  0.00    +0.000 NA
ATOM     13  C   UNL     1      46.949   2.369   6.348  0.00  0.00    +0.000 A 
ATOM     14  C   UNL     1      46.225   3.460   6.790  0.00  0.00    +0.000 A 
ATOM     15  N   UNL     1      45.523   3.448   7.945  0.00  0.00    +0.000 NA
ATOM     16  H   UNL     1      44.267   1.411   9.905  0.00  0.00    +0.000 HD
ENDBRANCH   8   9
ENDBRANCH   5   8
ENDBRANCH   1   2
BRANCH   1  17
ATOM     17  N   UNL     1      47.686   6.305  14.858  0.00  0.00    +0.000 N 
ATOM     18  C   UNL     1      48.814   6.240  15.630  0.00  0.00    +0.000 C 
ATOM     19  O   UNL     1      49.890   6.716  15.279  0.00  0.00    +0.000 OA
ATOM     20  H   UNL     1      46.868   5.785  15.146  0.00  0.00    +0.000 HD
BRANCH  18  21
ATOM     21  C   UNL     1      48.655   5.582  16.936  0.00  0.00    +0.000 A 
ATOM     22  C   UNL     1      48.808   4.207  17.040  0.00  0.00    +0.000 A 
ATOM     23  S   UNL     1      48.563   3.608  18.618  0.00  0.00    +0.000 S 
ATOM     24  C   UNL     1      48.195   5.160  19.209  0.00  0.00    +0.000 A 
ATOM     25  N   UNL     1      47.829   5.348  20.505  0.00  0.00    +0.000 NA
ATOM     26  C   UNL     1      47.533   6.565  20.809  0.00  0.00    +0.000 A 
ATOM     27  N   UNL     1      47.595   7.621  19.940  0.00  0.00    +0.000 N 
ATOM     28  C   UNL     1      48.066   7.494  18.657  0.00  0.00    +0.000 A 
ATOM     29  O   UNL     1      48.294   8.487  17.972  0.00  0.00    +0.000 OA
ATOM     30  C   UNL     1      48.321   6.131  18.233  0.00  0.00    +0.000 A 
ATOM     31  H   UNL     1      47.410   8.562  20.256  0.00  0.00    +0.000 HD
ENDBRANCH  18  21
ENDBRANCH   1  17
BRANCH   1  32
ATOM     32  C   UNL     1      47.237   8.293  13.455  0.00  0.00    +0.000 C 
BRANCH  32  34
ATOM     33  C   UNL     1      49.267   8.393  12.261  0.00  0.00    +0.000 C 
ATOM     34  O   UNL     1      48.313   9.131  13.015  0.00  0.00    +0.000 OA
ENDBRANCH  32  34
ENDBRANCH   1  32
TORSDOF 7
ENDMDL
MODEL 3
REMARK VINA RESULT:    -7.296      2.870      4.949
REMARK INTER + INTRA:         -11.360
REMARK INTER:                 -10.606
REMARK INTRA:                  -0.754
REMARK UNBOUND:                -1.078
REMARK  Name = 
REMARK  8 active torsions:
REMARK  status: ('A' for Active; 'I' for Inactive)
REMARK    1  A    between atoms: C_1  and  O_2
REMARK    2  A    between atoms: O_2  and  C_3
REMARK    3  A    between atoms: C_3  and  C_4
REMARK    4  A    between atoms: C_4  and  N_5
REMARK    5  A    between atoms: C_4  and  C_18
REMARK    6  A    between atoms: C_6  and  C_8
REMARK    7  A    between atoms: C_21  and  C_22
REMARK    8  A    between atoms: C_22  and  N_23
REMARK                            x       y       z     vdW  Elec       q    Type
REMARK                         _______ _______ _______ _____ _____    ______ ____
ROOT
ATOM      1  C   UNL     1      47.615   7.222  12.933  0.00  0.00    +0.000 C 
ENDROOT
BRANCH   1   2
ATOM      2  C   UNL     1      46.664   6.260  12.232  0.00  0.00    +0.000 A 
ATOM      3  C   UNL     1      46.306   6.454  10.893  0.00  0.00    +0.000 A 
ATOM      4  C   UNL     1      45.474   5.537  10.241  0.00  0.00    +0.000 A 
ATOM      5  C   UNL     1      44.984   4.410  10.916  0.00  0.00    +0.000 A 
ATOM      6  C   UNL     1      45.333   4.218  12.256  0.00  0.00    +0.000 A 
ATOM      7  C   UNL     1      46.150   5.140  12.906  0.00  0.00    +0.000 A 
BRANCH   5   8
ATOM      8  C   UNL     1      44.112   3.399  10.213  0.00  0.00    +0.000 C 
BRANCH   8   9
ATOM      9  N   UNL     1      44.889   2.203   9.915  0.00  0.00    +0.000 N 
ATOM     10  C   UNL     1      45.544   2.264   8.674  0.00  0.00    +0.000 A 
ATOM     11  C   UNL     1      46.340   1.197   8.247  0.00  0.00    +0.000 A 
ATOM     12  N   UNL     1      47.023   1.183   7.072  0.00  0.00    +0.000 NA
ATOM     13  C   UNL     1      46.899   2.303   6.331  0.00  0.00    +0.000 A 
ATOM     14  C   UNL     1      46.126   3.372   6.741  0.00  0.00    +0.000 A 
ATOM     15  N   UNL     1      45.444   3.373   7.908  0.00  0.00    +0.000 NA
ATOM     16  H   UNL     1      44.328   1.358   9.973  0.00  0.00    +0.000 HD
ENDBRANCH   8   9
ENDBRANCH   5   8
ENDBRANCH   1   2
BRANCH   1  17
ATOM     17  N   UNL     1      47.682   6.882  14.350  0.00  0.00    +0.000 N 
ATOM     18  C   UNL     1      48.833   6.929  15.088  0.00  0.00    +0.000 C 
ATOM     19  O   UNL     1      49.887   7.382  14.652  0.00  0.00    +0.000 OA
ATOM     20  H   UNL     1      46.885   6.382  14.721  0.00  0.00    +0.000 HD
BRANCH  18  21
ATOM     21  C   UNL     1      48.727   6.423  16.466  0.00  0.00    +0.000 A 
ATOM     22  C   UNL     1      48.952   7.279  17.536  0.00  0.00    +0.000 A 
ATOM     23  S   UNL     1      48.816   6.522  19.058  0.00  0.00    +0.000 S 
ATOM     24  C   UNL     1      48.500   5.012  18.342  0.00  0.00    +0.000 A 
ATOM     25  N   UNL     1      48.339   3.896  19.100  0.00  0.00    +0.000 NA
ATOM     26  C   UNL     1      48.152   2.812  18.429  0.00  0.00    +0.000 A 
ATOM     27  N   UNL     1      48.083   2.744  17.063  0.00  0.00    +0.000 N 
ATOM     28  C   UNL     1      48.128   3.861  16.266  0.00  0.00    +0.000 A 
ATOM     29  O   UNL     1      47.867   3.787  15.069  0.00  0.00    +0.000 OA
ATOM     30  C   UNL     1      48.433   5.095  16.962  0.00  0.00    +0.000 A 
ATOM     31  H   UNL     1      47.872   1.873  16.598  0.00  0.00    +0.000 HD
ENDBRANCH  18  21
ENDBRANCH   1  17
BRANCH   1  32
ATOM     32  C   UNL     1      47.136   8.682  12.743  0.00  0.00    +0.000 C 
BRANCH  32  34
ATOM     33  C   UNL     1      45.008   9.576  12.266  0.00  0.00    +0.000 C 
ATOM     34  O   UNL     1      45.788   8.843  13.202  0.00  0.00    +0.000 OA
ENDBRANCH  32  34
ENDBRANCH   1  32
TORSDOF 7
ENDMDL
MODEL 4
REMARK VINA RESULT:    -6.991      3.353      5.787
REMARK INTER + INTRA:         -10.931
REMARK INTER:                 -10.303
REMARK INTRA:                  -0.628
REMARK UNBOUND:                -1.078
REMARK  Name = 
REMARK  8 active torsions:
REMARK  status: ('A' for Active; 'I' for Inactive)
REMARK    1  A    between atoms: C_1  and  O_2
REMARK    2  A    between atoms: O_2  and  C_3
REMARK    3  A    between atoms: C_3  and  C_4
REMARK    4  A    between atoms: C_4  and  N_5
REMARK    5  A    between atoms: C_4  and  C_18
REMARK    6  A    between atoms: C_6  and  C_8
REMARK    7  A    between atoms: C_21  and  C_22
REMARK    8  A    between atoms: C_22  and  N_23
REMARK                            x       y       z     vdW  Elec       q    Type
REMARK                         _______ _______ _______ _____ _____    ______ ____
ROOT
ATOM      1  C   UNL     1      48.231   7.042  13.253  0.00  0.00    +0.000 C 
ENDROOT
BRANCH   1   2
ATOM      2  C   UNL     1      47.046   6.278  12.676  0.00  0.00    +0.000 A 
ATOM      3  C   UNL     1      46.255   6.837  11.666  0.00  0.00    +0.000 A 
ATOM      4  C   UNL     1      45.200   6.107  11.106  0.00  0.00    +0.000 A 
ATOM      5  C   UNL     1      44.916   4.807  11.545  0.00  0.00    +0.000 A 
ATOM      6  C   UNL     1      45.699   4.250  12.560  0.00  0.00    +0.000 A 
ATOM      7  C   UNL     1      46.739   4.983  13.125  0.00  0.00    +0.000 A 
BRANCH   5   8
ATOM      8  C   UNL     1      43.802   4.001  10.926  0.00  0.00    +0.000 C 
BRANCH   8   9
ATOM      9  N   UNL     1      44.308   2.698  10.512  0.00  0.00    +0.000 N 
ATOM     10  C   UNL     1      45.044   2.747   9.317  0.00  0.00    +0.000 A 
ATOM     11  C   UNL     1      45.607   1.579   8.792  0.00  0.00    +0.000 A 
ATOM     12  N   UNL     1      46.349   1.539   7.654  0.00  0.00    +0.000 NA
ATOM     13  C   UNL     1      46.532   2.734   7.056  0.00  0.00    +0.000 A 
ATOM     14  C   UNL     1      45.994   3.900   7.564  0.00  0.00    +0.000 A 
ATOM     15  N   UNL     1      45.250   3.928   8.693  0.00  0.00    +0.000 NA
ATOM     16  H   UNL     1      43.569   2.006  10.439  0.00  0.00    +0.000 HD
ENDBRANCH   8   9
ENDBRANCH   5   8
ENDBRANCH   1   2
BRANCH   1  17
ATOM     17  N   UNL     1      48.097   7.110  14.704  0.00  0.00    +0.000 N 
ATOM     18  C   UNL     1      49.137   6.920  15.573  0.00  0.00    +0.000 C 
ATOM     19  O   UNL     1      50.301   6.798  15.203  0.00  0.00    +0.000 OA
ATOM     20  H   UNL     1      47.151   7.076  15.061  0.00  0.00    +0.000 HD
BRANCH  18  21
ATOM     21  C   UNL     1      48.779   6.898  17.000  0.00  0.00    +0.000 A 
ATOM     22  C   UNL     1      48.420   8.075  17.641  0.00  0.00    +0.000 A 
ATOM     23  S   UNL     1      48.064   7.873  19.296  0.00  0.00    +0.000 S 
ATOM     24  C   UNL     1      48.425   6.212  19.227  0.00  0.00    +0.000 A 
ATOM     25  N   UNL     1      48.377   5.437  20.343  0.00  0.00    +0.000 NA
ATOM     26  C   UNL     1      48.719   4.208  20.159  0.00  0.00    +0.000 A 
ATOM     27  N   UNL     1      49.079   3.673  18.952  0.00  0.00    +0.000 N 
ATOM     28  C   UNL     1      49.033   4.391  17.783  0.00  0.00    +0.000 A 
ATOM     29  O   UNL     1      49.171   3.832  16.699  0.00  0.00    +0.000 OA
ATOM     30  C   UNL     1      48.749   5.803  17.946  0.00  0.00    +0.000 A 
ATOM     31  H   UNL     1      49.276   2.686  18.861  0.00  0.00    +0.000 HD
ENDBRANCH  18  21
ENDBRANCH   1  17
BRANCH   1  32
ATOM     32  C   UNL     1      48.301   8.462  12.642  0.00  0.00    +0.000 C 
BRANCH  32  34
ATOM     33  C   UNL     1      50.499   8.070  11.886  0.00  0.00    +0.000 C 
ATOM     34  O   UNL     1      49.192   8.493  11.520  0.00  0.00    +0.000 OA
ENDBRANCH  32  34
ENDBRANCH   1  32
TORSDOF 7
ENDMDL
MODEL 5
REMARK VINA RESULT:    -6.977      2.841      5.396
REMARK INTER + INTRA:         -10.910
REMARK INTER:                  -9.832
REMARK INTRA:                  -1.078
REMARK UNBOUND:                -1.078
REMARK  Name = 
REMARK  8 active torsions:
REMARK  status: ('A' for Active; 'I' for Inactive)
REMARK    1  A    between atoms: C_1  and  O_2
REMARK    2  A    between atoms: O_2  and  C_3
REMARK    3  A    between atoms: C_3  and  C_4
REMARK    4  A    between atoms: C_4  and  N_5
REMARK    5  A    between atoms: C_4  and  C_18
REMARK    6  A    between atoms: C_6  and  C_8
REMARK    7  A    between atoms: C_21  and  C_22
REMARK    8  A    between atoms: C_22  and  N_23
REMARK                            x       y       z     vdW  Elec       q    Type
REMARK                         _______ _______ _______ _____ _____    ______ ____
ROOT
ATOM      1  C   UNL     1      47.058   5.213  14.746  0.00  0.00    +0.000 C 
ENDROOT
BRANCH   1   2
ATOM      2  C   UNL     1      46.226   4.902  13.509  0.00  0.00    +0.000 A 
ATOM      3  C   UNL     1      45.719   5.932  12.707  0.00  0.00    +0.000 A 
ATOM      4  C   UNL     1      44.999   5.637  11.545  0.00  0.00    +0.000 A 
ATOM      5  C   UNL     1      44.771   4.308  11.161  0.00  0.00    +0.000 A 
ATOM      6  C   UNL     1      45.269   3.277  11.964  0.00  0.00    +0.000 A 
ATOM      7  C   UNL     1      45.973   3.574  13.128  0.00  0.00    +0.000 A 
BRANCH   5   8
ATOM      8  C   UNL     1      44.024   3.980   9.893  0.00  0.00    +0.000 C 
BRANCH   8   9
ATOM      9  N   UNL     1      44.787   4.441   8.740  0.00  0.00    +0.000 N 
ATOM     10  C   UNL     1      45.583   3.435   8.167  0.00  0.00    +0.000 A 
ATOM     11  C   UNL     1      46.369   3.716   7.045  0.00  0.00    +0.000 A 
ATOM     12  N   UNL     1      47.151   2.798   6.417  0.00  0.00    +0.000 NA
ATOM     13  C   UNL     1      47.105   1.559   6.947  0.00  0.00    +0.000 A 
ATOM     14  C   UNL     1      46.328   1.259   8.049  0.00  0.00    +0.000 A 
ATOM     15  N   UNL     1      45.559   2.181   8.671  0.00  0.00    +0.000 NA
ATOM     16  H   UNL     1      45.355   5.254   8.957  0.00  0.00    +0.000 HD
ENDBRANCH   8   9
ENDBRANCH   5   8
ENDBRANCH   1   2
BRANCH   1  17
ATOM     17  N   UNL     1      48.252   5.951  14.348  0.00  0.00    +0.000 N 
ATOM     18  C   UNL     1      48.864   6.887  15.135  0.00  0.00    +0.000 C 
ATOM     19  O   UNL     1      48.534   7.099  16.299  0.00  0.00    +0.000 OA
ATOM     20  H   UNL     1      48.485   5.914  13.364  0.00  0.00    +0.000 HD
BRANCH  18  21
ATOM     21  C   UNL     1      49.977   7.618  14.508  0.00  0.00    +0.000 A 
ATOM     22  C   UNL     1      51.226   7.625  15.112  0.00  0.00    +0.000 A 
ATOM     23  S   UNL     1      52.390   8.541  14.267  0.00  0.00    +0.000 S 
ATOM     24  C   UNL     1      51.253   9.003  13.090  0.00  0.00    +0.000 A 
ATOM     25  N   UNL     1      51.590   9.854  12.086  0.00  0.00    +0.000 NA
ATOM     26  C   UNL     1      50.621  10.158  11.290  0.00  0.00    +0.000 A 
ATOM     27  N   UNL     1      49.348   9.665  11.391  0.00  0.00    +0.000 N 
ATOM     28  C   UNL     1      48.995   8.719  12.321  0.00  0.00    +0.000 A 
ATOM     29  O   UNL     1      47.906   8.157  12.259  0.00  0.00    +0.000 OA
ATOM     30  C   UNL     1      50.019   8.414  13.301  0.00  0.00    +0.000 A 
ATOM     31  H   UNL     1      48.649   9.893  10.699  0.00  0.00    +0.000 HD
ENDBRANCH  18  21
ENDBRANCH   1  17
BRANCH   1  32
ATOM     32  C   UNL     1      47.442   3.903  15.476  0.00  0.00    +0.000 C 
BRANCH  32  34
ATOM     33  C   UNL     1      47.424   3.103  17.693  0.00  0.00    +0.000 C 
ATOM     34  O   UNL     1      46.667   3.737  16.670  0.00  0.00    +0.000 OA
ENDBRANCH  32  34
ENDBRANCH   1  32
TORSDOF 7
ENDMDL
MODEL 6
REMARK VINA RESULT:    -6.918      2.953      5.127
REMARK INTER + INTRA:         -10.827
REMARK INTER:                  -9.709
REMARK INTRA:                  -1.118
REMARK UNBOUND:                -1.078
REMARK  Name = 
REMARK  8 active torsions:
REMARK  status: ('A' for Active; 'I' for Inactive)
REMARK    1  A    between atoms: C_1  and  O_2
REMARK    2  A    between atoms: O_2  and  C_3
REMARK    3  A    between atoms: C_3  and  C_4
REMARK    4  A    between atoms: C_4  and  N_5
REMARK    5  A    between atoms: C_4  and  C_18
REMARK    6  A    between atoms: C_6  and  C_8
REMARK    7  A    between atoms: C_21  and  C_22
REMARK    8  A    between atoms: C_22  and  N_23
REMARK                            x       y       z     vdW  Elec       q    Type
REMARK                         _______ _______ _______ _____ _____    ______ ____
ROOT
ATOM      1  C   UNL     1      46.917   5.744  14.116  0.00  0.00    +0.000 C 
ENDROOT
BRANCH   1   2
ATOM      2  C   UNL     1      46.204   5.094  12.937  0.00  0.00    +0.000 A 
ATOM      3  C   UNL     1      45.962   5.811  11.760  0.00  0.00    +0.000 A 
ATOM      4  C   UNL     1      45.353   5.191  10.664  0.00  0.00    +0.000 A 
ATOM      5  C   UNL     1      44.973   3.842  10.724  0.00  0.00    +0.000 A 
ATOM      6  C   UNL     1      45.206   3.126  11.901  0.00  0.00    +0.000 A 
ATOM      7  C   UNL     1      45.800   3.749  12.995  0.00  0.00    +0.000 A 
BRANCH   5   8
ATOM      8  C   UNL     1      44.344   3.157   9.537  0.00  0.00    +0.000 C 
BRANCH   8   9
ATOM      9  N   UNL     1      45.076   1.933   9.232  0.00  0.00    +0.000 N 
ATOM     10  C   UNL     1      45.960   2.074   8.149  0.00  0.00    +0.000 A 
ATOM     11  C   UNL     1      46.744   0.990   7.739  0.00  0.00    +0.000 A 
ATOM     12  N   UNL     1      47.638   1.045   6.717  0.00  0.00    +0.000 NA
ATOM     13  C   UNL     1      47.740   2.250   6.119  0.00  0.00    +0.000 A 
ATOM     14  C   UNL     1      46.983   3.334   6.516  0.00  0.00    +0.000 A 
ATOM     15  N   UNL     1      46.090   3.267   7.530  0.00  0.00    +0.000 NA
ATOM     16  H   UNL     1      44.454   1.145   9.075  0.00  0.00    +0.000 HD
ENDBRANCH   8   9
ENDBRANCH   5   8
ENDBRANCH   1   2
BRANCH   1  17
ATOM     17  N   UNL     1      48.113   6.427  13.635  0.00  0.00    +0.000 N 
ATOM     18  C   UNL     1      48.267   7.787  13.645  0.00  0.00    +0.000 C 
ATOM     19  O   UNL     1      47.460   8.545  14.176  0.00  0.00    +0.000 OA
ATOM     20  H   UNL     1      48.743   5.870  13.073  0.00  0.00    +0.000 HD
BRANCH  18  21
ATOM     21  C   UNL     1      49.487   8.295  12.998  0.00  0.00    +0.000 A 
ATOM     22  C   UNL     1      49.407   8.903  11.753  0.00  0.00    +0.000 A 
ATOM     23  S   UNL     1      50.915   9.407  11.139  0.00  0.00    +0.000 S 
ATOM     24  C   UNL     1      51.737   8.786  12.493  0.00  0.00    +0.000 A 
ATOM     25  N   UNL     1      53.092   8.837  12.576  0.00  0.00    +0.000 NA
ATOM     26  C   UNL     1      53.588   8.289  13.632  0.00  0.00    +0.000 A 
ATOM     27  N   UNL     1      52.848   7.716  14.632  0.00  0.00    +0.000 N 
ATOM     28  C   UNL     1      51.476   7.742  14.642  0.00  0.00    +0.000 A 
ATOM     29  O   UNL     1      50.851   7.398  15.640  0.00  0.00    +0.000 OA
ATOM     30  C   UNL     1      50.867   8.260  13.432  0.00  0.00    +0.000 A 
ATOM     31  H   UNL     1      53.294   7.359  15.464  0.00  0.00    +0.000 HD
ENDBRANCH  18  21
ENDBRANCH   1  17
BRANCH   1  32
ATOM     32  C   UNL     1      47.284   4.677  15.174  0.00  0.00    +0.000 C 
BRANCH  32  34
ATOM     33  C   UNL     1      48.403   4.610  17.248  0.00  0.00    +0.000 C 
ATOM     34  O   UNL     1      48.460   5.058  15.900  0.00  0.00    +0.000 OA
ENDBRANCH  32  34
ENDBRANCH   1  32
TORSDOF 7
ENDMDL
MODEL 7
REMARK VINA RESULT:    -6.880      4.715      9.633
REMARK INTER + INTRA:         -10.774
REMARK INTER:                  -9.523
REMARK INTRA:                  -1.251
REMARK UNBOUND:                -1.078
REMARK  Name = 
REMARK  8 active torsions:
REMARK  status: ('A' for Active; 'I' for Inactive)
REMARK    1  A    between atoms: C_1  and  O_2
REMARK    2  A    between atoms: O_2  and  C_3
REMARK    3  A    between atoms: C_3  and  C_4
REMARK    4  A    between atoms: C_4  and  N_5
REMARK    5  A    between atoms: C_4  and  C_18
REMARK    6  A    between atoms: C_6  and  C_8
REMARK    7  A    between atoms: C_21  and  C_22
REMARK    8  A    between atoms: C_22  and  N_23
REMARK                            x       y       z     vdW  Elec       q    Type
REMARK                         _______ _______ _______ _____ _____    ______ ____
ROOT
ATOM      1  C   UNL     1      48.117   7.301  13.552  0.00  0.00    +0.000 C 
ENDROOT
BRANCH   1   2
ATOM      2  C   UNL     1      48.500   6.538  14.813  0.00  0.00    +0.000 A 
ATOM      3  C   UNL     1      47.740   5.447  15.251  0.00  0.00    +0.000 A 
ATOM      4  C   UNL     1      48.128   4.720  16.381  0.00  0.00    +0.000 A 
ATOM      5  C   UNL     1      49.282   5.070  17.096  0.00  0.00    +0.000 A 
ATOM      6  C   UNL     1      50.039   6.164  16.666  0.00  0.00    +0.000 A 
ATOM      7  C   UNL     1      49.643   6.894  15.549  0.00  0.00    +0.000 A 
BRANCH   5   8
ATOM      8  C   UNL     1      49.726   4.273  18.298  0.00  0.00    +0.000 C 
BRANCH   8   9
ATOM      9  N   UNL     1      49.940   2.883  17.914  0.00  0.00    +0.000 N 
ATOM     10  C   UNL     1      51.298   2.544  17.803  0.00  0.00    +0.000 A 
ATOM     11  C   UNL     1      51.670   1.242  17.452  0.00  0.00    +0.000 A 
ATOM     12  N   UNL     1      52.958   0.824  17.342  0.00  0.00    +0.000 NA
ATOM     13  C   UNL     1      53.884   1.764  17.621  0.00  0.00    +0.000 A 
ATOM     14  C   UNL     1      53.537   3.052  17.980  0.00  0.00    +0.000 A 
ATOM     15  N   UNL     1      52.252   3.460  18.078  0.00  0.00    +0.000 NA
ATOM     16  H   UNL     1      49.448   2.643  17.058  0.00  0.00    +0.000 HD
ENDBRANCH   8   9
ENDBRANCH   5   8
ENDBRANCH   1   2
BRANCH   1  17
ATOM     17  N   UNL     1      47.452   6.392  12.625  0.00  0.00    +0.000 N 
ATOM     18  C   UNL     1      46.380   6.745  11.851  0.00  0.00    +0.000 C 
ATOM     19  O   UNL     1      45.962   7.897  11.778  0.00  0.00    +0.000 OA
ATOM     20  H   UNL     1      47.667   5.410  12.741  0.00  0.00    +0.000 HD
BRANCH  18  21
ATOM     21  C   UNL     1      45.766   5.655  11.078  0.00  0.00    +0.000 A 
ATOM     22  C   UNL     1      45.878   5.640   9.694  0.00  0.00    +0.000 A 
ATOM     23  S   UNL     1      45.085   4.323   8.957  0.00  0.00    +0.000 S 
ATOM     24  C   UNL     1      44.519   3.752  10.456  0.00  0.00    +0.000 A 
ATOM     25  N   UNL     1      43.711   2.663  10.532  0.00  0.00    +0.000 NA
ATOM     26  C   UNL     1      43.318   2.366  11.724  0.00  0.00    +0.000 A 
ATOM     27  N   UNL     1      43.683   3.046  12.855  0.00  0.00    +0.000 N 
ATOM     28  C   UNL     1      44.585   4.080  12.835  0.00  0.00    +0.000 A 
ATOM     29  O   UNL     1      45.038   4.535  13.881  0.00  0.00    +0.000 OA
ATOM     30  C   UNL     1      44.984   4.517  11.512  0.00  0.00    +0.000 A 
ATOM     31  H   UNL     1      43.391   2.726  13.767  0.00  0.00    +0.000 HD
ENDBRANCH  18  21
ENDBRANCH   1  17
BRANCH   1  32
ATOM     32  C   UNL     1      49.375   7.924  12.900  0.00  0.00    +0.000 C 
BRANCH  32  34
ATOM     33  C   UNL     1      48.948   9.767  11.493  0.00  0.00    +0.000 C 
ATOM     34  O   UNL     1      49.255   9.350  12.817  0.00  0.00    +0.000 OA
ENDBRANCH  32  34
ENDBRANCH   1  32
TORSDOF 7
ENDMDL
MODEL 8
REMARK VINA RESULT:    -6.759      3.283      5.734
REMARK INTER + INTRA:         -10.603
REMARK INTER:                  -9.614
REMARK INTRA:                  -0.989
REMARK UNBOUND:                -1.078
REMARK  Name = 
REMARK  8 active torsions:
REMARK  status: ('A' for Active; 'I' for Inactive)
REMARK    1  A    between atoms: C_1  and  O_2
REMARK    2  A    between atoms: O_2  and  C_3
REMARK    3  A    between atoms: C_3  and  C_4
REMARK    4  A    between atoms: C_4  and  N_5
REMARK    5  A    between atoms: C_4  and  C_18
REMARK    6  A    between atoms: C_6  and  C_8
REMARK    7  A    between atoms: C_21  and  C_22
REMARK    8  A    between atoms: C_22  and  N_23
REMARK                            x       y       z     vdW  Elec       q    Type
REMARK                         _______ _______ _______ _____ _____    ______ ____
ROOT
ATOM      1  C   UNL     1      47.143   6.413  13.679  0.00  0.00    +0.000 C 
ENDROOT
BRANCH   1   2
ATOM      2  C   UNL     1      46.350   5.609  12.656  0.00  0.00    +0.000 A 
ATOM      3  C   UNL     1      46.145   6.098  11.361  0.00  0.00    +0.000 A 
ATOM      4  C   UNL     1      45.461   5.330  10.413  0.00  0.00    +0.000 A 
ATOM      5  C   UNL     1      44.968   4.059  10.740  0.00  0.00    +0.000 A 
ATOM      6  C   UNL     1      45.164   3.571  12.036  0.00  0.00    +0.000 A 
ATOM      7  C   UNL     1      45.834   4.343  12.982  0.00  0.00    +0.000 A 
BRANCH   5   8
ATOM      8  C   UNL     1      44.257   3.211   9.716  0.00  0.00    +0.000 C 
BRANCH   8   9
ATOM      9  N   UNL     1      45.037   2.010   9.445  0.00  0.00    +0.000 N 
ATOM     10  C   UNL     1      45.799   2.101   8.267  0.00  0.00    +0.000 A 
ATOM     11  C   UNL     1      46.612   1.033   7.874  0.00  0.00    +0.000 A 
ATOM     12  N   UNL     1      47.394   1.045   6.762  0.00  0.00    +0.000 NA
ATOM     13  C   UNL     1      47.353   2.192   6.054  0.00  0.00    +0.000 A 
ATOM     14  C   UNL     1      46.566   3.262   6.432  0.00  0.00    +0.000 A 
ATOM     15  N   UNL     1      45.784   3.237   7.535  0.00  0.00    +0.000 NA
ATOM     16  H   UNL     1      44.460   1.175   9.423  0.00  0.00    +0.000 HD
ENDBRANCH   8   9
ENDBRANCH   5   8
ENDBRANCH   1   2
BRANCH   1  17
ATOM     17  N   UNL     1      48.220   7.123  13.000  0.00  0.00    +0.000 N 
ATOM     18  C   UNL     1      48.449   8.465  13.135  0.00  0.00    +0.000 C 
ATOM     19  O   UNL     1      47.841   9.168  13.937  0.00  0.00    +0.000 OA
ATOM     20  H   UNL     1      48.661   6.628  12.235  0.00  0.00    +0.000 HD
BRANCH  18  21
ATOM     21  C   UNL     1      49.500   9.023  12.269  0.00  0.00    +0.000 A 
ATOM     22  C   UNL     1      50.770   8.464  12.276  0.00  0.00    +0.000 A 
ATOM     23  S   UNL     1      51.870   9.249  11.236  0.00  0.00    +0.000 S 
ATOM     24  C   UNL     1      50.701  10.396  10.775  0.00  0.00    +0.000 A 
ATOM     25  N   UNL     1      51.012  11.413   9.929  0.00  0.00    +0.000 NA
ATOM     26  C   UNL     1      50.046  12.236   9.700  0.00  0.00    +0.000 A 
ATOM     27  N   UNL     1      48.785  12.121  10.220  0.00  0.00    +0.000 N 
ATOM     28  C   UNL     1      48.399  11.050  10.987  0.00  0.00    +0.000 A 
ATOM     29  O   UNL     1      47.218  10.878  11.272  0.00  0.00    +0.000 OA
ATOM     30  C   UNL     1      49.470  10.145  11.355  0.00  0.00    +0.000 A 
ATOM     31  H   UNL     1      48.055  12.764   9.953  0.00  0.00    +0.000 HD
ENDBRANCH  18  21
ENDBRANCH   1  17
BRANCH   1  32
ATOM     32  C   UNL     1      47.708   5.477  14.774  0.00  0.00    +0.000 C 
BRANCH  32  34
ATOM     33  C   UNL     1      48.926   6.201  16.657  0.00  0.00    +0.000 C 
ATOM     34  O   UNL     1      48.968   5.956  15.257  0.00  0.00    +0.000 OA
ENDBRANCH  32  34
ENDBRANCH   1  32
TORSDOF 7
ENDMDL
MODEL 9
REMARK VINA RESULT:    -6.634      5.844     12.037
REMARK INTER + INTRA:         -10.426
REMARK INTER:                  -9.646
REMARK INTRA:                  -0.780
REMARK UNBOUND:                -1.078
REMARK  Name = 
REMARK  8 active torsions:
REMARK  status: ('A' for Active; 'I' for Inactive)
REMARK    1  A    between atoms: C_1  and  O_2
REMARK    2  A    between atoms: O_2  and  C_3
REMARK    3  A    between atoms: C_3  and  C_4
REMARK    4  A    between atoms: C_4  and  N_5
REMARK    5  A    between atoms: C_4  and  C_18
REMARK    6  A    between atoms: C_6  and  C_8
REMARK    7  A    between atoms: C_21  and  C_22
REMARK    8  A    between atoms: C_22  and  N_23
REMARK                            x       y       z     vdW  Elec       q    Type
REMARK                         _______ _______ _______ _____ _____    ______ ____
ROOT
ATOM      1  C   UNL     1      48.185   4.574  16.306  0.00  0.00    +0.000 C 
ENDROOT
BRANCH   1   2
ATOM      2  C   UNL     1      48.274   5.449  17.549  0.00  0.00    +0.000 A 
ATOM      3  C   UNL     1      49.324   6.361  17.711  0.00  0.00    +0.000 A 
ATOM      4  C   UNL     1      49.370   7.197  18.832  0.00  0.00    +0.000 A 
ATOM      5  C   UNL     1      48.369   7.138  19.812  0.00  0.00    +0.000 A 
ATOM      6  C   UNL     1      47.324   6.223  19.656  0.00  0.00    +0.000 A 
ATOM      7  C   UNL     1      47.287   5.382  18.547  0.00  0.00    +0.000 A 
BRANCH   5   8
ATOM      8  C   UNL     1      48.393   8.058  21.007  0.00  0.00    +0.000 C 
BRANCH   8   9
ATOM      9  N   UNL     1      47.068   8.628  21.215  0.00  0.00    +0.000 N 
ATOM     10  C   UNL     1      46.940   9.929  20.699  0.00  0.00    +0.000 A 
ATOM     11  C   UNL     1      45.723  10.611  20.810  0.00  0.00    +0.000 A 
ATOM     12  N   UNL     1      45.508  11.861  20.322  0.00  0.00    +0.000 NA
ATOM     13  C   UNL     1      46.563  12.411  19.688  0.00  0.00    +0.000 A 
ATOM     14  C   UNL     1      47.769  11.750  19.559  0.00  0.00    +0.000 A 
ATOM     15  N   UNL     1      47.976  10.509  20.055  0.00  0.00    +0.000 NA
ATOM     16  H   UNL     1      46.793   8.611  22.192  0.00  0.00    +0.000 HD
ENDBRANCH   8   9
ENDBRANCH   5   8
ENDBRANCH   1   2
BRANCH   1  17
ATOM     17  N   UNL     1      47.227   5.159  15.375  0.00  0.00    +0.000 N 
ATOM     18  C   UNL     1      47.107   4.776  14.067  0.00  0.00    +0.000 C 
ATOM     19  O   UNL     1      47.711   3.818  13.595  0.00  0.00    +0.000 OA
ATOM     20  H   UNL     1      46.803   6.030  15.669  0.00  0.00    +0.000 HD
BRANCH  18  21
ATOM     21  C   UNL     1      46.176   5.573  13.252  0.00  0.00    +0.000 A 
ATOM     22  C   UNL     1      46.440   6.915  13.015  0.00  0.00    +0.000 A 
ATOM     23  S   UNL     1      45.247   7.692  12.077  0.00  0.00    +0.000 S 
ATOM     24  C   UNL     1      44.308   6.276  11.997  0.00  0.00    +0.000 A 
ATOM     25  N   UNL     1      43.100   6.269  11.374  0.00  0.00    +0.000 NA
ATOM     26  C   UNL     1      42.473   5.144  11.427  0.00  0.00    +0.000 A 
ATOM     27  N   UNL     1      42.957   4.011  12.026  0.00  0.00    +0.000 N 
ATOM     28  C   UNL     1      44.216   3.944  12.567  0.00  0.00    +0.000 A 
ATOM     29  O   UNL     1      44.691   2.867  12.916  0.00  0.00    +0.000 OA
ATOM     30  C   UNL     1      44.927   5.206  12.620  0.00  0.00    +0.000 A 
ATOM     31  H   UNL     1      42.444   3.143  11.979  0.00  0.00    +0.000 HD
ENDBRANCH  18  21
ENDBRANCH   1  17
BRANCH   1  32
ATOM     32  C   UNL     1      47.764   3.135  16.693  0.00  0.00    +0.000 C 
BRANCH  32  34
ATOM     33  C   UNL     1      49.923   2.238  16.997  0.00  0.00    +0.000 C 
ATOM     34  O   UNL     1      48.726   2.179  16.231  0.00  0.00    +0.000 OA
ENDBRANCH  32  34
ENDBRANCH   1  32
TORSDOF 7
ENDMDL
