MODEL 1
REMARK VINA RESULT:    -7.870      0.000      0.000
REMARK INTER + INTRA:         -10.162
REMARK INTER:                 -10.170
REMARK INTRA:                   0.008
REMARK UNBOUND:                 0.008
REMARK  Name = 
REMARK  6 active torsions:
REMARK  status: ('A' for Active; 'I' for Inactive)
REMARK    1  A    between atoms: C_1  and  O_2
REMARK    2  A    between atoms: O_2  and  C_3
REMARK    3  A    between atoms: C_6  and  O_7
REMARK    4  A    between atoms: O_7  and  C_8
REMARK    5  A    between atoms: C_8  and  C_9
REMARK    6  A    between atoms: C_13  and  C_14
REMARK                            x       y       z     vdW  Elec       q    Type
REMARK                         _______ _______ _______ _____ _____    ______ ____
ROOT
ATOM      1  C   UNL     1      45.337   5.281  12.100  0.00  0.00    +0.000 A 
ATOM      2  C   UNL     1      46.063   6.267  11.415  0.00  0.00    +0.000 A 
ATOM      3  C   UNL     1      47.260   6.770  11.914  0.00  0.00    +0.000 A 
ATOM      4  C   UNL     1      47.748   6.306  13.132  0.00  0.00    +0.000 A 
ATOM      5  C   UNL     1      47.054   5.338  13.877  0.00  0.00    +0.000 A 
ATOM      6  C   UNL     1      45.863   4.820  13.324  0.00  0.00    +0.000 A 
ENDROOT
BRANCH   5   7
ATOM      7  C   UNL     1      47.517   4.943  15.224  0.00  0.00    +0.000 A 
ATOM      8  C   UNL     1      48.437   5.724  15.939  0.00  0.00    +0.000 A 
ATOM      9  N   UNL     1      48.893   5.464  17.191  0.00  0.00    +0.000 NA
ATOM     10  C   UNL     1      48.392   4.356  17.782  0.00  0.00    +0.000 A 
ATOM     11  C   UNL     1      47.487   3.512  17.177  0.00  0.00    +0.000 A 
ATOM     12  F   UNL     1      47.025   2.433  17.818  0.00  0.00    +0.000 F 
ATOM     13  C   UNL     1      47.047   3.800  15.887  0.00  0.00    +0.000 A 
ENDBRANCH   5   7
BRANCH   1  14
ATOM     14  C   UNL     1      43.991   4.835  11.562  0.00  0.00    +0.000 C 
ATOM     15  C   UNL     1      42.778   5.157  12.430  0.00  0.00    +0.000 C 
ATOM     16  C   UNL     1      42.921   5.793  11.087  0.00  0.00    +0.000 C 
BRANCH  14  17
ATOM     17  O   UNL     1      43.941   3.481  11.050  0.00  0.00    +0.000 OA
BRANCH  17  21
ATOM     18  C   UNL     1      45.985   3.128   7.566  0.00  0.00    +0.000 A 
ATOM     19  C   UNL     1      45.872   2.032   8.417  0.00  0.00    +0.000 A 
ATOM     20  N   UNL     1      45.177   2.068   9.581  0.00  0.00    +0.000 NA
ATOM     21  C   UNL     1      44.586   3.255   9.850  0.00  0.00    +0.000 A 
ATOM     22  C   UNL     1      44.668   4.338   8.982  0.00  0.00    +0.000 A 
ATOM     23  N   UNL     1      45.370   4.304   7.825  0.00  0.00    +0.000 NA
BRANCH  18  25
ATOM     24  C   UNL     1      47.898   2.143   6.670  0.00  0.00    +0.000 C 
ATOM     25  O   UNL     1      46.776   2.996   6.447  0.00  0.00    +0.000 OA
ENDBRANCH  18  25
ENDBRANCH  17  21
ENDBRANCH  14  17
ENDBRANCH   1  14
TORSDOF 5
ENDMDL
MODEL 2
REMARK VINA RESULT:    -7.609      2.740      3.618
REMARK INTER + INTRA:          -9.825
REMARK INTER:                  -9.407
REMARK INTRA:                  -0.419
REMARK UNBOUND:                 0.008
REMARK  Name = 
REMARK  6 active torsions:
REMARK  status: ('A' for Active; 'I' for Inactive)
REMARK    1  A    between atoms: C_1  and  O_2
REMARK    2  A    between atoms: O_2  and  C_3
REMARK    3  A    between atoms: C_6  and  O_7
REMARK    4  A    between atoms: O_7  and  C_8
REMARK    5  A    between atoms: C_8  and  C_9
REMARK    6  A    between atoms: C_13  and  C_14
REMARK                            x       y       z     vdW  Elec       q    Type
REMARK                         _______ _______ _______ _____ _____    ______ ____
ROOT
ATOM      1  C   UNL     1      45.035   4.809  12.223  0.00  0.00    +0.000 A 
ATOM      2  C   UNL     1      45.458   3.635  12.864  0.00  0.00    +0.000 A 
ATOM      3  C   UNL     1      46.684   3.561  13.516  0.00  0.00    +0.000 A 
ATOM      4  C   UNL     1      47.530   4.667  13.521  0.00  0.00    +0.000 A 
ATOM      5  C   UNL     1      47.174   5.862  12.876  0.00  0.00    +0.000 A 
ATOM      6  C   UNL     1      45.906   5.917  12.257  0.00  0.00    +0.000 A 
ENDROOT
BRANCH   5   7
ATOM      7  C   UNL     1      48.129   6.987  12.783  0.00  0.00    +0.000 A 
ATOM      8  C   UNL     1      49.237   7.078  13.639  0.00  0.00    +0.000 A 
ATOM      9  N   UNL     1      50.185   8.049  13.607  0.00  0.00    +0.000 NA
ATOM     10  C   UNL     1      50.031   8.993  12.651  0.00  0.00    +0.000 A 
ATOM     11  C   UNL     1      48.982   9.008  11.758  0.00  0.00    +0.000 A 
ATOM     12  F   UNL     1      48.889   9.967  10.830  0.00  0.00    +0.000 F 
ATOM     13  C   UNL     1      48.019   8.003  11.823  0.00  0.00    +0.000 A 
ENDBRANCH   5   7
BRANCH   1  14
ATOM     14  C   UNL     1      43.733   4.808  11.445  0.00  0.00    +0.000 C 
ATOM     15  C   UNL     1      42.496   5.277  12.205  0.00  0.00    +0.000 C 
ATOM     16  C   UNL     1      42.998   6.068  11.042  0.00  0.00    +0.000 C 
BRANCH  14  17
ATOM     17  O   UNL     1      43.468   3.612  10.673  0.00  0.00    +0.000 OA
BRANCH  17  21
ATOM     18  C   UNL     1      46.215   3.106   7.734  0.00  0.00    +0.000 A 
ATOM     19  C   UNL     1      45.779   2.008   8.471  0.00  0.00    +0.000 A 
ATOM     20  N   UNL     1      44.839   2.098   9.445  0.00  0.00    +0.000 NA
ATOM     21  C   UNL     1      44.345   3.342   9.641  0.00  0.00    +0.000 A 
ATOM     22  C   UNL     1      44.754   4.431   8.880  0.00  0.00    +0.000 A 
ATOM     23  N   UNL     1      45.698   4.343   7.914  0.00  0.00    +0.000 NA
BRANCH  18  25
ATOM     24  C   UNL     1      47.791   1.601   6.907  0.00  0.00    +0.000 C 
ATOM     25  O   UNL     1      47.225   2.908   6.819  0.00  0.00    +0.000 OA
ENDBRANCH  18  25
ENDBRANCH  17  21
ENDBRANCH  14  17
ENDBRANCH   1  14
TORSDOF 5
ENDMDL
MODEL 3
REMARK VINA RESULT:    -7.523      3.044      7.386
REMARK INTER + INTRA:          -9.714
REMARK INTER:                  -9.306
REMARK INTRA:                  -0.408
REMARK UNBOUND:                 0.008
REMARK  Name = 
REMARK  6 active torsions:
REMARK  status: ('A' for Active; 'I' for Inactive)
REMARK    1  A    between atoms: C_1  and  O_2
REMARK    2  A    between atoms: O_2  and  C_3
REMARK    3  A    between atoms: C_6  and  O_7
REMARK    4  A    between atoms: O_7  and  C_8
REMARK    5  A    between atoms: C_8  and  C_9
REMARK    6  A    between atoms: C_13  and  C_14
REMARK                            x       y       z     vdW  Elec       q    Type
REMARK                         _______ _______ _______ _____ _____    ______ ____
ROOT
ATOM      1  C   UNL     1      45.463   6.238  11.757  0.00  0.00    +0.000 A 
ATOM      2  C   UNL     1      44.074   6.344  11.934  0.00  0.00    +0.000 A 
ATOM      3  C   UNL     1      43.185   5.570  11.196  0.00  0.00    +0.000 A 
ATOM      4  C   UNL     1      43.671   4.680  10.242  0.00  0.00    +0.000 A 
ATOM      5  C   UNL     1      45.049   4.548  10.002  0.00  0.00    +0.000 A 
ATOM      6  C   UNL     1      45.927   5.319  10.795  0.00  0.00    +0.000 A 
ENDROOT
BRANCH   5   7
ATOM      7  C   UNL     1      45.548   3.692   8.904  0.00  0.00    +0.000 A 
ATOM      8  C   UNL     1      46.040   4.246   7.713  0.00  0.00    +0.000 A 
ATOM      9  N   UNL     1      46.551   3.549   6.666  0.00  0.00    +0.000 NA
ATOM     10  C   UNL     1      46.589   2.205   6.816  0.00  0.00    +0.000 A 
ATOM     11  C   UNL     1      46.132   1.550   7.939  0.00  0.00    +0.000 A 
ATOM     12  F   UNL     1      46.203   0.217   8.028  0.00  0.00    +0.000 F 
ATOM     13  C   UNL     1      45.603   2.294   8.991  0.00  0.00    +0.000 A 
ENDBRANCH   5   7
BRANCH   1  14
ATOM     14  C   UNL     1      46.385   7.171  12.518  0.00  0.00    +0.000 C 
ATOM     15  C   UNL     1      46.560   8.569  11.932  0.00  0.00    +0.000 C 
ATOM     16  C   UNL     1      45.906   8.397  13.264  0.00  0.00    +0.000 C 
BRANCH  14  17
ATOM     17  O   UNL     1      47.651   6.600  12.929  0.00  0.00    +0.000 OA
BRANCH  17  21
ATOM     18  C   UNL     1      47.694   4.369  16.315  0.00  0.00    +0.000 A 
ATOM     19  C   UNL     1      48.450   5.536  16.245  0.00  0.00    +0.000 A 
ATOM     20  N   UNL     1      48.458   6.348  15.158  0.00  0.00    +0.000 NA
ATOM     21  C   UNL     1      47.660   5.941  14.143  0.00  0.00    +0.000 A 
ATOM     22  C   UNL     1      46.878   4.796  14.228  0.00  0.00    +0.000 A 
ATOM     23  N   UNL     1      46.877   3.982  15.309  0.00  0.00    +0.000 NA
BRANCH  18  25
ATOM     24  C   UNL     1      48.995   2.777  17.413  0.00  0.00    +0.000 C 
ATOM     25  O   UNL     1      47.821   3.587  17.441  0.00  0.00    +0.000 OA
ENDBRANCH  18  25
ENDBRANCH  17  21
ENDBRANCH  14  17
ENDBRANCH   1  14
TORSDOF 5
ENDMDL
MODEL 4
REMARK VINA RESULT:    -7.005      4.388      7.382
REMARK INTER + INTRA:          -9.044
REMARK INTER:                  -8.519
REMARK INTRA:                  -0.526
REMARK UNBOUND:                 0.008
REMARK  Name = 
REMARK  6 active torsions:
REMARK  status: ('A' for Active; 'I' for Inactive)
REMARK    1  A    between atoms: C_1  and  O_2
REMARK    2  A    between atoms: O_2  and  C_3
REMARK    3  A    between atoms: C_6  and  O_7
REMARK    4  A    between atoms: O_7  and  C_8
REMARK    5  A    between atoms: C_8  and  C_9
REMARK    6  A    between atoms: C_13  and  C_14
REMARK                            x       y       z     vdW  Elec       q    Type
REMARK                         _______ _______ _______ _____ _____    ______ ____
ROOT
ATOM      1  C   UNL     1      45.151   6.419  11.693  0.00  0.00    +0.000 A 
ATOM      2  C   UNL     1      43.805   6.224  12.042  0.00  0.00    +0.000 A 
ATOM      3  C   UNL     1      43.043   5.212  11.469  0.00  0.00    +0.000 A 
ATOM      4  C   UNL     1      43.612   4.379  10.509  0.00  0.00    +0.000 A 
ATOM      5  C   UNL     1      44.946   4.539  10.101  0.00  0.00    +0.000 A 
ATOM      6  C   UNL     1      45.704   5.551  10.730  0.00  0.00    +0.000 A 
ENDROOT
BRANCH   5   7
ATOM      7  C   UNL     1      45.503   3.730   8.996  0.00  0.00    +0.000 A 
ATOM      8  C   UNL     1      46.031   4.333   7.844  0.00  0.00    +0.000 A 
ATOM      9  N   UNL     1      46.595   3.680   6.796  0.00  0.00    +0.000 NA
ATOM     10  C   UNL     1      46.651   2.332   6.902  0.00  0.00    +0.000 A 
ATOM     11  C   UNL     1      46.163   1.632   7.984  0.00  0.00    +0.000 A 
ATOM     12  F   UNL     1      46.254   0.299   8.031  0.00  0.00    +0.000 F 
ATOM     13  C   UNL     1      45.580   2.331   9.038  0.00  0.00    +0.000 A 
ENDBRANCH   5   7
BRANCH   1  14
ATOM     14  C   UNL     1      45.910   7.595  12.276  0.00  0.00    +0.000 C 
ATOM     15  C   UNL     1      46.989   7.258  13.301  0.00  0.00    +0.000 C 
ATOM     16  C   UNL     1      47.371   7.871  11.993  0.00  0.00    +0.000 C 
BRANCH  14  17
ATOM     17  O   UNL     1      45.096   8.715  12.701  0.00  0.00    +0.000 OA
BRANCH  17  21
ATOM     18  C   UNL     1      44.688  11.583   9.865  0.00  0.00    +0.000 A 
ATOM     19  C   UNL     1      43.833  10.485   9.866  0.00  0.00    +0.000 A 
ATOM     20  N   UNL     1      43.890   9.505  10.803  0.00  0.00    +0.000 NA
ATOM     21  C   UNL     1      44.840   9.683  11.750  0.00  0.00    +0.000 A 
ATOM     22  C   UNL     1      45.669  10.798  11.768  0.00  0.00    +0.000 A 
ATOM     23  N   UNL     1      45.618  11.771  10.829  0.00  0.00    +0.000 NA
BRANCH  18  25
ATOM     24  C   UNL     1      43.907  11.926   7.695  0.00  0.00    +0.000 C 
ATOM     25  O   UNL     1      44.584  12.479   8.823  0.00  0.00    +0.000 OA
ENDBRANCH  18  25
ENDBRANCH  17  21
ENDBRANCH  14  17
ENDBRANCH   1  14
TORSDOF 5
ENDMDL
MODEL 5
REMARK VINA RESULT:    -6.829      3.519      8.060
REMARK INTER + INTRA:          -8.817
REMARK INTER:                  -8.443
REMARK INTRA:                  -0.374
REMARK UNBOUND:                 0.008
REMARK  Name = 
REMARK  6 active torsions:
REMARK  status: ('A' for Active; 'I' for Inactive)
REMARK    1  A    between atoms: C_1  and  O_2
REMARK    2  A    between atoms: O_2  and  C_3
REMARK    3  A    between atoms: C_6  and  O_7
REMARK    4  A    between atoms: O_7  and  C_8
REMARK    5  A    between atoms: C_8  and  C_9
REMARK    6  A    between atoms: C_13  and  C_14
REMARK                            x       y       z     vdW  Elec       q    Type
REMARK                         _______ _______ _______ _____ _____    ______ ____
ROOT
ATOM      1  C   UNL     1      47.075   7.257  12.885  0.00  0.00    +0.000 A 
ATOM      2  C   UNL     1      46.224   8.373  12.847  0.00  0.00    +0.000 A 
ATOM      3  C   UNL     1      45.033   8.357  12.131  0.00  0.00    +0.000 A 
ATOM      4  C   UNL     1      44.675   7.219  11.412  0.00  0.00    +0.000 A 
ATOM      5  C   UNL     1      45.496   6.080  11.391  0.00  0.00    +0.000 A 
ATOM      6  C   UNL     1      46.679   6.114  12.161  0.00  0.00    +0.000 A 
ENDROOT
BRANCH   5   7
ATOM      7  C   UNL     1      45.168   4.924  10.529  0.00  0.00    +0.000 A 
ATOM      8  C   UNL     1      44.404   3.850  11.008  0.00  0.00    +0.000 A 
ATOM      9  N   UNL     1      44.022   2.765  10.286  0.00  0.00    +0.000 NA
ATOM     10  C   UNL     1      44.417   2.750   8.992  0.00  0.00    +0.000 A 
ATOM     11  C   UNL     1      45.172   3.747   8.414  0.00  0.00    +0.000 A 
ATOM     12  F   UNL     1      45.525   3.675   7.126  0.00  0.00    +0.000 F 
ATOM     13  C   UNL     1      45.557   4.842   9.185  0.00  0.00    +0.000 A 
ENDBRANCH   5   7
BRANCH   1  14
ATOM     14  C   UNL     1      48.407   7.358  13.603  0.00  0.00    +0.000 C 
ATOM     15  C   UNL     1      49.539   8.028  12.830  0.00  0.00    +0.000 C 
ATOM     16  C   UNL     1      49.008   8.665  14.072  0.00  0.00    +0.000 C 
BRANCH  14  17
ATOM     17  O   UNL     1      48.852   6.150  14.266  0.00  0.00    +0.000 OA
BRANCH  17  21
ATOM     18  C   UNL     1      47.844   5.391  18.119  0.00  0.00    +0.000 A 
ATOM     19  C   UNL     1      48.593   6.523  17.810  0.00  0.00    +0.000 A 
ATOM     20  N   UNL     1      48.939   6.857  16.541  0.00  0.00    +0.000 NA
ATOM     21  C   UNL     1      48.486   6.007  15.590  0.00  0.00    +0.000 A 
ATOM     22  C   UNL     1      47.707   4.898  15.897  0.00  0.00    +0.000 A 
ATOM     23  N   UNL     1      47.370   4.560  17.164  0.00  0.00    +0.000 NA
BRANCH  18  25
ATOM     24  C   UNL     1      47.723   6.274  20.274  0.00  0.00    +0.000 C 
ATOM     25  O   UNL     1      47.615   5.115  19.449  0.00  0.00    +0.000 OA
ENDBRANCH  18  25
ENDBRANCH  17  21
ENDBRANCH  14  17
ENDBRANCH   1  14
TORSDOF 5
ENDMDL
MODEL 6
REMARK VINA RESULT:    -6.715      3.069      3.735
REMARK INTER + INTRA:          -8.670
REMARK INTER:                  -9.072
REMARK INTRA:                   0.402
REMARK UNBOUND:                 0.008
REMARK  Name = 
REMARK  6 active torsions:
REMARK  status: ('A' for Active; 'I' for Inactive)
REMARK    1  A    between atoms: C_1  and  O_2
REMARK    2  A    between atoms: O_2  and  C_3
REMARK    3  A    between atoms: C_6  and  O_7
REMARK    4  A    between atoms: O_7  and  C_8
REMARK    5  A    between atoms: C_8  and  C_9
REMARK    6  A    between atoms: C_13  and  C_14
REMARK                            x       y       z     vdW  Elec       q    Type
REMARK                         _______ _______ _______ _____ _____    ______ ____
ROOT
ATOM      1  C   UNL     1      44.807   5.679  11.471  0.00  0.00    +0.000 A 
ATOM      2  C   UNL     1      43.906   6.746  11.329  0.00  0.00    +0.000 A 
ATOM      3  C   UNL     1      44.313   8.068  11.476  0.00  0.00    +0.000 A 
ATOM      4  C   UNL     1      45.639   8.350  11.794  0.00  0.00    +0.000 A 
ATOM      5  C   UNL     1      46.581   7.325  11.974  0.00  0.00    +0.000 A 
ATOM      6  C   UNL     1      46.146   5.996  11.778  0.00  0.00    +0.000 A 
ENDROOT
BRANCH   5   7
ATOM      7  C   UNL     1      47.955   7.629  12.430  0.00  0.00    +0.000 A 
ATOM      8  C   UNL     1      48.248   7.815  13.789  0.00  0.00    +0.000 A 
ATOM      9  N   UNL     1      49.479   8.061  14.307  0.00  0.00    +0.000 NA
ATOM     10  C   UNL     1      50.494   8.115  13.415  0.00  0.00    +0.000 A 
ATOM     11  C   UNL     1      50.325   7.950  12.057  0.00  0.00    +0.000 A 
ATOM     12  F   UNL     1      51.373   8.009  11.227  0.00  0.00    +0.000 F 
ATOM     13  C   UNL     1      49.048   7.710  11.556  0.00  0.00    +0.000 A 
ENDBRANCH   5   7
BRANCH   1  14
ATOM     14  C   UNL     1      44.294   4.254  11.395  0.00  0.00    +0.000 C 
ATOM     15  C   UNL     1      45.110   3.204  12.142  0.00  0.00    +0.000 C 
ATOM     16  C   UNL     1      43.714   3.509  12.577  0.00  0.00    +0.000 C 
BRANCH  14  17
ATOM     17  O   UNL     1      43.914   3.798  10.074  0.00  0.00    +0.000 OA
BRANCH  17  21
ATOM     18  C   UNL     1      46.751   2.785   7.361  0.00  0.00    +0.000 A 
ATOM     19  C   UNL     1      46.459   4.127   7.589  0.00  0.00    +0.000 A 
ATOM     20  N   UNL     1      45.546   4.540   8.504  0.00  0.00    +0.000 NA
ATOM     21  C   UNL     1      44.945   3.542   9.192  0.00  0.00    +0.000 A 
ATOM     22  C   UNL     1      45.264   2.205   8.990  0.00  0.00    +0.000 A 
ATOM     23  N   UNL     1      46.168   1.793   8.071  0.00  0.00    +0.000 NA
BRANCH  18  25
ATOM     24  C   UNL     1      47.571   1.115   5.956  0.00  0.00    +0.000 C 
ATOM     25  O   UNL     1      47.644   2.482   6.356  0.00  0.00    +0.000 OA
ENDBRANCH  18  25
ENDBRANCH  17  21
ENDBRANCH  14  17
ENDBRANCH   1  14
TORSDOF 5
ENDMDL
MODEL 7
REMARK VINA RESULT:    -6.532      3.345      7.783
REMARK INTER + INTRA:          -8.433
REMARK INTER:                  -8.005
REMARK INTRA:                  -0.428
REMARK UNBOUND:                 0.008
REMARK  Name = 
REMARK  6 active torsions:
REMARK  status: ('A' for Active; 'I' for Inactive)
REMARK    1  A    between atoms: C_1  and  O_2
REMARK    2  A    between atoms: O_2  and  C_3
REMARK    3  A    between atoms: C_6  and  O_7
REMARK    4  A    between atoms: O_7  and  C_8
REMARK    5  A    between atoms: C_8  and  C_9
REMARK    6  A    between atoms: C_13  and  C_14
REMARK                            x       y       z     vdW  Elec       q    Type
REMARK                         _______ _______ _______ _____ _____    ______ ____
ROOT
ATOM      1  C   UNL     1      47.565   7.779  12.502  0.00  0.00    +0.000 A 
ATOM      2  C   UNL     1      46.671   8.840  12.712  0.00  0.00    +0.000 A 
ATOM      3  C   UNL     1      45.321   8.729  12.396  0.00  0.00    +0.000 A 
ATOM      4  C   UNL     1      44.838   7.548  11.837  0.00  0.00    +0.000 A 
ATOM      5  C   UNL     1      45.688   6.460  11.581  0.00  0.00    +0.000 A 
ATOM      6  C   UNL     1      47.045   6.591  11.950  0.00  0.00    +0.000 A 
ENDROOT
BRANCH   5   7
ATOM      7  C   UNL     1      45.191   5.259  10.878  0.00  0.00    +0.000 A 
ATOM      8  C   UNL     1      45.530   5.003   9.540  0.00  0.00    +0.000 A 
ATOM      9  N   UNL     1      45.154   3.914   8.822  0.00  0.00    +0.000 NA
ATOM     10  C   UNL     1      44.397   3.007   9.480  0.00  0.00    +0.000 A 
ATOM     11  C   UNL     1      44.001   3.153  10.792  0.00  0.00    +0.000 A 
ATOM     12  F   UNL     1      43.256   2.215  11.388  0.00  0.00    +0.000 F 
ATOM     13  C   UNL     1      44.394   4.287  11.498  0.00  0.00    +0.000 A 
ENDBRANCH   5   7
BRANCH   1  14
ATOM     14  C   UNL     1      49.043   7.983  12.775  0.00  0.00    +0.000 C 
ATOM     15  C   UNL     1      49.896   8.403  11.581  0.00  0.00    +0.000 C 
ATOM     16  C   UNL     1      49.722   9.335  12.735  0.00  0.00    +0.000 C 
BRANCH  14  17
ATOM     17  O   UNL     1      49.684   6.944  13.554  0.00  0.00    +0.000 OA
BRANCH  17  21
ATOM     18  C   UNL     1      48.574   7.111  17.450  0.00  0.00    +0.000 A 
ATOM     19  C   UNL     1      48.538   5.896  16.771  0.00  0.00    +0.000 A 
ATOM     20  N   UNL     1      48.926   5.759  15.478  0.00  0.00    +0.000 NA
ATOM     21  C   UNL     1      49.365   6.899  14.897  0.00  0.00    +0.000 A 
ATOM     22  C   UNL     1      49.434   8.105  15.586  0.00  0.00    +0.000 A 
ATOM     23  N   UNL     1      49.039   8.242  16.873  0.00  0.00    +0.000 NA
BRANCH  18  25
ATOM     24  C   UNL     1      47.285   6.005  19.047  0.00  0.00    +0.000 C 
ATOM     25  O   UNL     1      48.088   7.143  18.738  0.00  0.00    +0.000 OA
ENDBRANCH  18  25
ENDBRANCH  17  21
ENDBRANCH  14  17
ENDBRANCH   1  14
TORSDOF 5
ENDMDL
MODEL 8
REMARK VINA RESULT:    -6.385      2.397      4.222
REMARK INTER + INTRA:          -8.243
REMARK INTER:                  -7.810
REMARK INTRA:                  -0.433
REMARK UNBOUND:                 0.008
REMARK  Name = 
REMARK  6 active torsions:
REMARK  status: ('A' for Active; 'I' for Inactive)
REMARK    1  A    between atoms: C_1  and  O_2
REMARK    2  A    between atoms: O_2  and  C_3
REMARK    3  A    between atoms: C_6  and  O_7
REMARK    4  A    between atoms: O_7  and  C_8
REMARK    5  A    between atoms: C_8  and  C_9
REMARK    6  A    between atoms: C_13  and  C_14
REMARK                            x       y       z     vdW  Elec       q    Type
REMARK                         _______ _______ _______ _____ _____    ______ ____
ROOT
ATOM      1  C   UNL     1      48.260   7.947  14.012  0.00  0.00    +0.000 A 
ATOM      2  C   UNL     1      48.244   9.111  14.796  0.00  0.00    +0.000 A 
ATOM      3  C   UNL     1      48.448   9.066  16.171  0.00  0.00    +0.000 A 
ATOM      4  C   UNL     1      48.652   7.840  16.799  0.00  0.00    +0.000 A 
ATOM      5  C   UNL     1      48.654   6.639  16.072  0.00  0.00    +0.000 A 
ATOM      6  C   UNL     1      48.484   6.722  14.673  0.00  0.00    +0.000 A 
ENDROOT
BRANCH   5   7
ATOM      7  C   UNL     1      48.749   5.335  16.763  0.00  0.00    +0.000 A 
ATOM      8  C   UNL     1      49.931   4.933  17.404  0.00  0.00    +0.000 A 
ATOM      9  N   UNL     1      50.104   3.776  18.092  0.00  0.00    +0.000 NA
ATOM     10  C   UNL     1      49.025   2.963  18.160  0.00  0.00    +0.000 A 
ATOM     11  C   UNL     1      47.815   3.252  17.568  0.00  0.00    +0.000 A 
ATOM     12  F   UNL     1      46.783   2.408  17.678  0.00  0.00    +0.000 F 
ATOM     13  C   UNL     1      47.673   4.443  16.859  0.00  0.00    +0.000 A 
ENDBRANCH   5   7
BRANCH   1  14
ATOM     14  C   UNL     1      47.938   8.038  12.533  0.00  0.00    +0.000 C 
ATOM     15  C   UNL     1      48.691   9.107  11.746  0.00  0.00    +0.000 C 
ATOM     16  C   UNL     1      48.915   7.663  11.440  0.00  0.00    +0.000 C 
BRANCH  14  17
ATOM     17  O   UNL     1      46.530   8.016  12.197  0.00  0.00    +0.000 OA
BRANCH  17  21
ATOM     18  C   UNL     1      44.639   4.482  11.587  0.00  0.00    +0.000 A 
ATOM     19  C   UNL     1      45.368   5.064  10.554  0.00  0.00    +0.000 A 
ATOM     20  N   UNL     1      46.052   6.227  10.696  0.00  0.00    +0.000 NA
ATOM     21  C   UNL     1      45.982   6.777  11.931  0.00  0.00    +0.000 A 
ATOM     22  C   UNL     1      45.283   6.176  12.972  0.00  0.00    +0.000 A 
ATOM     23  N   UNL     1      44.594   5.020  12.827  0.00  0.00    +0.000 NA
BRANCH  18  25
ATOM     24  C   UNL     1      44.252   2.792  10.029  0.00  0.00    +0.000 C 
ATOM     25  O   UNL     1      43.925   3.338  11.306  0.00  0.00    +0.000 OA
ENDBRANCH  18  25
ENDBRANCH  17  21
ENDBRANCH  14  17
ENDBRANCH   1  14
TORSDOF 5
ENDMDL
MODEL 9
REMARK VINA RESULT:    -6.012      3.960      8.436
REMARK INTER + INTRA:          -7.761
REMARK INTER:                  -7.706
REMARK INTRA:                  -0.055
REMARK UNBOUND:                 0.008
REMARK  Name = 
REMARK  6 active torsions:
REMARK  status: ('A' for Active; 'I' for Inactive)
REMARK    1  A    between atoms: C_1  and  O_2
REMARK    2  A    between atoms: O_2  and  C_3
REMARK    3  A    between atoms: C_6  and  O_7
REMARK    4  A    between atoms: O_7  and  C_8
REMARK    5  A    between atoms: C_8  and  C_9
REMARK    6  A    between atoms: C_13  and  C_14
REMARK                            x       y       z     vdW  Elec       q    Type
REMARK                         _______ _______ _______ _____ _____    ______ ____
ROOT
ATOM      1  C   UNL     1      47.722   5.374  15.226  0.00  0.00    +0.000 A 
ATOM      2  C   UNL     1      48.477   6.467  14.775  0.00  0.00    +0.000 A 
ATOM      3  C   UNL     1      48.254   7.042  13.529  0.00  0.00    +0.000 A 
ATOM      4  C   UNL     1      47.276   6.515  12.691  0.00  0.00    +0.000 A 
ATOM      5  C   UNL     1      46.504   5.407  13.076  0.00  0.00    +0.000 A 
ATOM      6  C   UNL     1      46.728   4.871  14.363  0.00  0.00    +0.000 A 
ENDROOT
BRANCH   5   7
ATOM      7  C   UNL     1      45.553   4.780  12.133  0.00  0.00    +0.000 A 
ATOM      8  C   UNL     1      45.448   5.216  10.804  0.00  0.00    +0.000 A 
ATOM      9  N   UNL     1      44.635   4.683   9.857  0.00  0.00    +0.000 NA
ATOM     10  C   UNL     1      43.879   3.633  10.252  0.00  0.00    +0.000 A 
ATOM     11  C   UNL     1      43.896   3.120  11.531  0.00  0.00    +0.000 A 
ATOM     12  F   UNL     1      43.128   2.075  11.857  0.00  0.00    +0.000 F 
ATOM     13  C   UNL     1      44.734   3.697  12.483  0.00  0.00    +0.000 A 
ENDBRANCH   5   7
BRANCH   1  14
ATOM     14  C   UNL     1      48.068   4.724  16.553  0.00  0.00    +0.000 C 
ATOM     15  C   UNL     1      46.970   3.883  17.196  0.00  0.00    +0.000 C 
ATOM     16  C   UNL     1      48.232   3.232  16.736  0.00  0.00    +0.000 C 
BRANCH  14  17
ATOM     17  O   UNL     1      48.720   5.585  17.518  0.00  0.00    +0.000 OA
BRANCH  17  21
ATOM     18  C   UNL     1      52.221   4.208  19.031  0.00  0.00    +0.000 A 
ATOM     19  C   UNL     1      52.062   4.329  17.653  0.00  0.00    +0.000 A 
ATOM     20  N   UNL     1      50.932   4.813  17.078  0.00  0.00    +0.000 NA
ATOM     21  C   UNL     1      49.968   5.183  17.953  0.00  0.00    +0.000 A 
ATOM     22  C   UNL     1      50.141   5.095  19.329  0.00  0.00    +0.000 A 
ATOM     23  N   UNL     1      51.265   4.604  19.901  0.00  0.00    +0.000 NA
BRANCH  18  25
ATOM     24  C   UNL     1      53.777   2.498  18.732  0.00  0.00    +0.000 C 
ATOM     25  O   UNL     1      53.384   3.636  19.497  0.00  0.00    +0.000 OA
ENDBRANCH  18  25
ENDBRANCH  17  21
ENDBRANCH  14  17
ENDBRANCH   1  14
TORSDOF 5
ENDMDL
