MODEL 1
REMARK VINA RESULT:    -7.699      0.000      0.000
REMARK INTER + INTRA:         -11.395
REMARK INTER:                 -10.400
REMARK INTRA:                  -0.995
REMARK UNBOUND:                -0.995
REMARK  Name = 
REMARK  7 active torsions:
REMARK  status: ('A' for Active; 'I' for Inactive)
REMARK    1  A    between atoms: C_1  and  O_2
REMARK    2  A    between atoms: O_2  and  C_3
REMARK    3  A    between atoms: C_8  and  C_9
REMARK    4  A    between atoms: C_9  and  C_10
REMARK    5  A    between atoms: C_13  and  C_14
REMARK    6  A    between atoms: C_14  and  N_15
REMARK    7  A    between atoms: C_16  and  C_18
REMARK                            x       y       z     vdW  Elec       q    Type
REMARK                         _______ _______ _______ _____ _____    ______ ____
ROOT
ATOM      1  C   UNL     1      47.506   8.569  13.844  0.00  0.00    +0.000 C 
ENDROOT
BRANCH   1   5
ATOM      2  C   UNL     1      45.012   6.507  11.065  0.00  0.00    +0.000 A 
ATOM      3  C   UNL     1      46.308   6.035  11.272  0.00  0.00    +0.000 A 
ATOM      4  C   UNL     1      47.156   6.728  12.137  0.00  0.00    +0.000 A 
ATOM      5  C   UNL     1      46.694   7.868  12.797  0.00  0.00    +0.000 A 
ATOM      6  C   UNL     1      45.418   8.310  12.472  0.00  0.00    +0.000 A 
ATOM      7  N   UNL     1      44.574   7.659  11.638  0.00  0.00    +0.000 NA
BRANCH   2   8
ATOM      8  C   UNL     1      43.965   5.660  10.374  0.00  0.00    +0.000 C 
BRANCH   8  14
ATOM      9  C   UNL     1      44.093   3.139  10.037  0.00  0.00    +0.000 A 
ATOM     10  C   UNL     1      44.651   2.063   9.342  0.00  0.00    +0.000 A 
ATOM     11  C   UNL     1      45.543   2.294   8.299  0.00  0.00    +0.000 A 
ATOM     12  C   UNL     1      45.844   3.601   7.972  0.00  0.00    +0.000 A 
ATOM     13  N   UNL     1      45.321   4.668   8.608  0.00  0.00    +0.000 NA
ATOM     14  C   UNL     1      44.449   4.434   9.633  0.00  0.00    +0.000 A 
BRANCH   9  16
ATOM     15  C   UNL     1      43.790   2.783  12.366  0.00  0.00    +0.000 C 
ATOM     16  O   UNL     1      43.218   3.008  11.081  0.00  0.00    +0.000 OA
ENDBRANCH   9  16
ENDBRANCH   8  14
ENDBRANCH   2   8
ENDBRANCH   1   5
BRANCH   1  17
ATOM     17  N   UNL     1      47.781   7.731  14.980  0.00  0.00    +0.000 N 
ATOM     18  C   UNL     1      49.005   7.119  15.112  0.00  0.00    +0.000 C 
ATOM     19  O   UNL     1      49.917   7.312  14.312  0.00  0.00    +0.000 OA
ATOM     20  H   UNL     1      46.988   7.375  15.504  0.00  0.00    +0.000 HD
BRANCH  18  21
ATOM     21  C   UNL     1      49.189   6.269  16.294  0.00  0.00    +0.000 A 
ATOM     22  C   UNL     1      50.187   6.576  17.211  0.00  0.00    +0.000 A 
ATOM     23  S   UNL     1      50.228   5.521  18.550  0.00  0.00    +0.000 S 
ATOM     24  C   UNL     1      48.954   4.584  17.921  0.00  0.00    +0.000 A 
ATOM     25  N   UNL     1      48.504   3.484  18.577  0.00  0.00    +0.000 NA
ATOM     26  C   UNL     1      47.559   2.848  17.970  0.00  0.00    +0.000 A 
ATOM     27  N   UNL     1      47.019   3.217  16.766  0.00  0.00    +0.000 N 
ATOM     28  C   UNL     1      47.419   4.339  16.080  0.00  0.00    +0.000 A 
ATOM     29  O   UNL     1      46.886   4.671  15.028  0.00  0.00    +0.000 OA
ATOM     30  C   UNL     1      48.490   5.081  16.716  0.00  0.00    +0.000 A 
ATOM     31  H   UNL     1      46.275   2.680  16.344  0.00  0.00    +0.000 HD
ENDBRANCH  18  21
ENDBRANCH   1  17
TORSDOF 6
ENDMDL
MODEL 2
REMARK VINA RESULT:    -7.209      3.103      4.404
REMARK INTER + INTRA:         -10.732
REMARK INTER:                  -9.664
REMARK INTRA:                  -1.069
REMARK UNBOUND:                -0.995
REMARK  Name = 
REMARK  7 active torsions:
REMARK  status: ('A' for Active; 'I' for Inactive)
REMARK    1  A    between atoms: C_1  and  O_2
REMARK    2  A    between atoms: O_2  and  C_3
REMARK    3  A    between atoms: C_8  and  C_9
REMARK    4  A    between atoms: C_9  and  C_10
REMARK    5  A    between atoms: C_13  and  C_14
REMARK    6  A    between atoms: C_14  and  N_15
REMARK    7  A    between atoms: C_16  and  C_18
REMARK                            x       y       z     vdW  Elec       q    Type
REMARK                         _______ _______ _______ _____ _____    ______ ____
ROOT
ATOM      1  C   UNL     1      49.330   6.385  17.309  0.00  0.00    +0.000 C 
ENDROOT
BRANCH   1   5
ATOM      2  C   UNL     1      46.885   4.603  14.302  0.00  0.00    +0.000 A 
ATOM      3  C   UNL     1      47.557   5.787  13.996  0.00  0.00    +0.000 A 
ATOM      4  C   UNL     1      48.319   6.413  14.984  0.00  0.00    +0.000 A 
ATOM      5  C   UNL     1      48.415   5.840  16.253  0.00  0.00    +0.000 A 
ATOM      6  C   UNL     1      47.651   4.706  16.492  0.00  0.00    +0.000 A 
ATOM      7  N   UNL     1      46.904   4.077  15.555  0.00  0.00    +0.000 NA
BRANCH   2   8
ATOM      8  C   UNL     1      46.284   3.736  13.217  0.00  0.00    +0.000 C 
BRANCH   8  14
ATOM      9  C   UNL     1      44.501   3.739  11.399  0.00  0.00    +0.000 A 
ATOM     10  C   UNL     1      43.280   4.238  10.937  0.00  0.00    +0.000 A 
ATOM     11  C   UNL     1      42.552   5.131  11.718  0.00  0.00    +0.000 A 
ATOM     12  C   UNL     1      43.061   5.491  12.949  0.00  0.00    +0.000 A 
ATOM     13  N   UNL     1      44.227   5.025  13.439  0.00  0.00    +0.000 NA
ATOM     14  C   UNL     1      44.940   4.153  12.665  0.00  0.00    +0.000 A 
BRANCH   9  16
ATOM     15  C   UNL     1      44.931   2.639   9.338  0.00  0.00    +0.000 C 
ATOM     16  O   UNL     1      45.290   2.870  10.697  0.00  0.00    +0.000 OA
ENDBRANCH   9  16
ENDBRANCH   8  14
ENDBRANCH   2   8
ENDBRANCH   1   5
BRANCH   1  17
ATOM     17  N   UNL     1      50.277   5.408  17.775  0.00  0.00    +0.000 N 
ATOM     18  C   UNL     1      51.555   5.382  17.270  0.00  0.00    +0.000 C 
ATOM     19  O   UNL     1      51.951   6.217  16.462  0.00  0.00    +0.000 OA
ATOM     20  H   UNL     1      49.909   4.585  18.243  0.00  0.00    +0.000 HD
BRANCH  18  21
ATOM     21  C   UNL     1      52.445   4.338  17.792  0.00  0.00    +0.000 A 
ATOM     22  C   UNL     1      53.660   4.696  18.365  0.00  0.00    +0.000 A 
ATOM     23  S   UNL     1      54.544   3.369  18.969  0.00  0.00    +0.000 S 
ATOM     24  C   UNL     1      53.363   2.267  18.434  0.00  0.00    +0.000 A 
ATOM     25  N   UNL     1      53.519   0.931  18.614  0.00  0.00    +0.000 NA
ATOM     26  C   UNL     1      52.565   0.210  18.129  0.00  0.00    +0.000 A 
ATOM     27  N   UNL     1      51.464   0.707  17.482  0.00  0.00    +0.000 N 
ATOM     28  C   UNL     1      51.246   2.052  17.303  0.00  0.00    +0.000 A 
ATOM     29  O   UNL     1      50.229   2.470  16.763  0.00  0.00    +0.000 OA
ATOM     30  C   UNL     1      52.298   2.904  17.821  0.00  0.00    +0.000 A 
ATOM     31  H   UNL     1      50.747   0.089  17.129  0.00  0.00    +0.000 HD
ENDBRANCH  18  21
ENDBRANCH   1  17
TORSDOF 6
ENDMDL
MODEL 3
REMARK VINA RESULT:    -7.100      1.563      1.884
REMARK INTER + INTRA:         -10.586
REMARK INTER:                  -9.863
REMARK INTRA:                  -0.722
REMARK UNBOUND:                -0.995
REMARK  Name = 
REMARK  7 active torsions:
REMARK  status: ('A' for Active; 'I' for Inactive)
REMARK    1  A    between atoms: C_1  and  O_2
REMARK    2  A    between atoms: O_2  and  C_3
REMARK    3  A    between atoms: C_8  and  C_9
REMARK    4  A    between atoms: C_9  and  C_10
REMARK    5  A    between atoms: C_13  and  C_14
REMARK    6  A    between atoms: C_14  and  N_15
REMARK    7  A    between atoms: C_16  and  C_18
REMARK                            x       y       z     vdW  Elec       q    Type
REMARK                         _______ _______ _______ _____ _____    ______ ____
ROOT
ATOM      1  C   UNL     1      48.237   7.591  13.737  0.00  0.00    +0.000 C 
ENDROOT
BRANCH   1   5
ATOM      2  C   UNL     1      44.892   6.110  11.544  0.00  0.00    +0.000 A 
ATOM      3  C   UNL     1      45.122   7.485  11.555  0.00  0.00    +0.000 A 
ATOM      4  C   UNL     1      46.180   7.994  12.311  0.00  0.00    +0.000 A 
ATOM      5  C   UNL     1      47.002   7.123  13.027  0.00  0.00    +0.000 A 
ATOM      6  C   UNL     1      46.653   5.778  13.021  0.00  0.00    +0.000 A 
ATOM      7  N   UNL     1      45.634   5.258  12.298  0.00  0.00    +0.000 NA
BRANCH   2   8
ATOM      8  C   UNL     1      43.956   5.476  10.537  0.00  0.00    +0.000 C 
BRANCH   8  14
ATOM      9  C   UNL     1      44.154   3.004   9.956  0.00  0.00    +0.000 A 
ATOM     10  C   UNL     1      44.771   2.013   9.189  0.00  0.00    +0.000 A 
ATOM     11  C   UNL     1      45.714   2.362   8.227  0.00  0.00    +0.000 A 
ATOM     12  C   UNL     1      46.005   3.700   8.050  0.00  0.00    +0.000 A 
ATOM     13  N   UNL     1      45.425   4.689   8.759  0.00  0.00    +0.000 NA
ATOM     14  C   UNL     1      44.504   4.339   9.705  0.00  0.00    +0.000 A 
BRANCH   9  16
ATOM     15  C   UNL     1      43.732   2.409  12.216  0.00  0.00    +0.000 C 
ATOM     16  O   UNL     1      43.226   2.756  10.931  0.00  0.00    +0.000 OA
ENDBRANCH   9  16
ENDBRANCH   8  14
ENDBRANCH   2   8
ENDBRANCH   1   5
BRANCH   1  17
ATOM     17  N   UNL     1      48.097   7.552  15.168  0.00  0.00    +0.000 N 
ATOM     18  C   UNL     1      49.073   6.977  15.946  0.00  0.00    +0.000 C 
ATOM     19  O   UNL     1      50.114   6.538  15.463  0.00  0.00    +0.000 OA
ATOM     20  H   UNL     1      47.166   7.682  15.553  0.00  0.00    +0.000 HD
BRANCH  18  21
ATOM     21  C   UNL     1      48.836   6.966  17.395  0.00  0.00    +0.000 A 
ATOM     22  C   UNL     1      48.578   8.160  18.056  0.00  0.00    +0.000 A 
ATOM     23  S   UNL     1      48.271   7.963  19.722  0.00  0.00    +0.000 S 
ATOM     24  C   UNL     1      48.532   6.284  19.627  0.00  0.00    +0.000 A 
ATOM     25  N   UNL     1      48.451   5.500  20.732  0.00  0.00    +0.000 NA
ATOM     26  C   UNL     1      48.706   4.252  20.523  0.00  0.00    +0.000 A 
ATOM     27  N   UNL     1      49.032   3.716  19.304  0.00  0.00    +0.000 N 
ATOM     28  C   UNL     1      49.095   4.464  18.153  0.00  0.00    +0.000 A 
ATOM     29  O   UNL     1      49.342   3.950  17.068  0.00  0.00    +0.000 OA
ATOM     30  C   UNL     1      48.828   5.877  18.339  0.00  0.00    +0.000 A 
ATOM     31  H   UNL     1      49.214   2.728  19.204  0.00  0.00    +0.000 HD
ENDBRANCH  18  21
ENDBRANCH   1  17
TORSDOF 6
ENDMDL
MODEL 4
REMARK VINA RESULT:    -6.937      2.977      7.300
REMARK INTER + INTRA:         -10.364
REMARK INTER:                  -9.139
REMARK INTRA:                  -1.225
REMARK UNBOUND:                -0.995
REMARK  Name = 
REMARK  7 active torsions:
REMARK  status: ('A' for Active; 'I' for Inactive)
REMARK    1  A    between atoms: C_1  and  O_2
REMARK    2  A    between atoms: O_2  and  C_3
REMARK    3  A    between atoms: C_8  and  C_9
REMARK    4  A    between atoms: C_9  and  C_10
REMARK    5  A    between atoms: C_13  and  C_14
REMARK    6  A    between atoms: C_14  and  N_15
REMARK    7  A    between atoms: C_16  and  C_18
REMARK                            x       y       z     vdW  Elec       q    Type
REMARK                         _______ _______ _______ _____ _____    ______ ____
ROOT
ATOM      1  C   UNL     1      48.073   8.320  12.002  0.00  0.00    +0.000 C 
ENDROOT
BRANCH   1   5
ATOM      2  C   UNL     1      49.289   7.382  15.982  0.00  0.00    +0.000 A 
ATOM      3  C   UNL     1      48.283   8.332  15.801  0.00  0.00    +0.000 A 
ATOM      4  C   UNL     1      47.909   8.690  14.505  0.00  0.00    +0.000 A 
ATOM      5  C   UNL     1      48.529   8.084  13.411  0.00  0.00    +0.000 A 
ATOM      6  C   UNL     1      49.573   7.210  13.683  0.00  0.00    +0.000 A 
ATOM      7  N   UNL     1      49.957   6.843  14.928  0.00  0.00    +0.000 NA
BRANCH   2   8
ATOM      8  C   UNL     1      49.541   6.749  17.333  0.00  0.00    +0.000 C 
BRANCH   8  14
ATOM      9  C   UNL     1      48.960   4.273  17.194  0.00  0.00    +0.000 A 
ATOM     10  C   UNL     1      49.387   2.947  17.303  0.00  0.00    +0.000 A 
ATOM     11  C   UNL     1      50.723   2.666  17.577  0.00  0.00    +0.000 A 
ATOM     12  C   UNL     1      51.599   3.723  17.722  0.00  0.00    +0.000 A 
ATOM     13  N   UNL     1      51.232   5.016  17.614  0.00  0.00    +0.000 NA
ATOM     14  C   UNL     1      49.918   5.285  17.350  0.00  0.00    +0.000 A 
BRANCH   9  16
ATOM     15  C   UNL     1      47.138   4.279  15.670  0.00  0.00    +0.000 C 
ATOM     16  O   UNL     1      47.668   4.645  16.940  0.00  0.00    +0.000 OA
ENDBRANCH   9  16
ENDBRANCH   8  14
ENDBRANCH   2   8
ENDBRANCH   1   5
BRANCH   1  17
ATOM     17  N   UNL     1      47.461   7.156  11.420  0.00  0.00    +0.000 N 
ATOM     18  C   UNL     1      46.093   7.029  11.393  0.00  0.00    +0.000 C 
ATOM     19  O   UNL     1      45.350   7.918  11.802  0.00  0.00    +0.000 OA
ATOM     20  H   UNL     1      48.040   6.330  11.305  0.00  0.00    +0.000 HD
BRANCH  18  21
ATOM     21  C   UNL     1      45.560   5.799  10.795  0.00  0.00    +0.000 A 
ATOM     22  C   UNL     1      45.774   5.544   9.446  0.00  0.00    +0.000 A 
ATOM     23  S   UNL     1      45.137   4.050   8.927  0.00  0.00    +0.000 S 
ATOM     24  C   UNL     1      44.502   3.721  10.472  0.00  0.00    +0.000 A 
ATOM     25  N   UNL     1      43.797   2.587  10.712  0.00  0.00    +0.000 NA
ATOM     26  C   UNL     1      43.344   2.482  11.916  0.00  0.00    +0.000 A 
ATOM     27  N   UNL     1      43.537   3.411  12.905  0.00  0.00    +0.000 N 
ATOM     28  C   UNL     1      44.270   4.558  12.719  0.00  0.00    +0.000 A 
ATOM     29  O   UNL     1      44.467   5.349  13.635  0.00  0.00    +0.000 OA
ATOM     30  C   UNL     1      44.790   4.728  11.376  0.00  0.00    +0.000 A 
ATOM     31  H   UNL     1      43.161   3.268  13.831  0.00  0.00    +0.000 HD
ENDBRANCH  18  21
ENDBRANCH   1  17
TORSDOF 6
ENDMDL
MODEL 5
REMARK VINA RESULT:    -6.829      1.226      1.986
REMARK INTER + INTRA:         -10.219
REMARK INTER:                  -8.910
REMARK INTRA:                  -1.309
REMARK UNBOUND:                -0.995
REMARK  Name = 
REMARK  7 active torsions:
REMARK  status: ('A' for Active; 'I' for Inactive)
REMARK    1  A    between atoms: C_1  and  O_2
REMARK    2  A    between atoms: O_2  and  C_3
REMARK    3  A    between atoms: C_8  and  C_9
REMARK    4  A    between atoms: C_9  and  C_10
REMARK    5  A    between atoms: C_13  and  C_14
REMARK    6  A    between atoms: C_14  and  N_15
REMARK    7  A    between atoms: C_16  and  C_18
REMARK                            x       y       z     vdW  Elec       q    Type
REMARK                         _______ _______ _______ _____ _____    ______ ____
ROOT
ATOM      1  C   UNL     1      48.344   8.809  14.579  0.00  0.00    +0.000 C 
ENDROOT
BRANCH   1   5
ATOM      2  C   UNL     1      45.799   7.315  11.499  0.00  0.00    +0.000 A 
ATOM      3  C   UNL     1      47.130   6.899  11.520  0.00  0.00    +0.000 A 
ATOM      4  C   UNL     1      47.992   7.418  12.489  0.00  0.00    +0.000 A 
ATOM      5  C   UNL     1      47.509   8.328  13.430  0.00  0.00    +0.000 A 
ATOM      6  C   UNL     1      46.192   8.746  13.285  0.00  0.00    +0.000 A 
ATOM      7  N   UNL     1      45.335   8.260  12.358  0.00  0.00    +0.000 NA
BRANCH   2   8
ATOM      8  C   UNL     1      44.761   6.590  10.671  0.00  0.00    +0.000 C 
BRANCH   8  14
ATOM      9  C   UNL     1      44.391   4.120  10.172  0.00  0.00    +0.000 A 
ATOM     10  C   UNL     1      43.973   2.868  10.631  0.00  0.00    +0.000 A 
ATOM     11  C   UNL     1      43.568   2.710  11.953  0.00  0.00    +0.000 A 
ATOM     12  C   UNL     1      43.606   3.810  12.786  0.00  0.00    +0.000 A 
ATOM     13  N   UNL     1      44.013   5.032  12.390  0.00  0.00    +0.000 NA
ATOM     14  C   UNL     1      44.405   5.181  11.089  0.00  0.00    +0.000 A 
BRANCH   9  16
ATOM     15  C   UNL     1      45.192   3.247   8.114  0.00  0.00    +0.000 C 
ATOM     16  O   UNL     1      44.794   4.373   8.890  0.00  0.00    +0.000 OA
ENDBRANCH   9  16
ENDBRANCH   8  14
ENDBRANCH   2   8
ENDBRANCH   1   5
BRANCH   1  17
ATOM     17  N   UNL     1      48.444   7.835  15.633  0.00  0.00    +0.000 N 
ATOM     18  C   UNL     1      49.577   7.069  15.766  0.00  0.00    +0.000 C 
ATOM     19  O   UNL     1      50.556   7.226  15.042  0.00  0.00    +0.000 OA
ATOM     20  H   UNL     1      47.581   7.529  16.072  0.00  0.00    +0.000 HD
BRANCH  18  21
ATOM     21  C   UNL     1      49.582   6.089  16.859  0.00  0.00    +0.000 A 
ATOM     22  C   UNL     1      50.505   6.216  17.889  0.00  0.00    +0.000 A 
ATOM     23  S   UNL     1      50.337   5.030  19.103  0.00  0.00    +0.000 S 
ATOM     24  C   UNL     1      49.064   4.273  18.265  0.00  0.00    +0.000 A 
ATOM     25  N   UNL     1      48.472   3.154  18.754  0.00  0.00    +0.000 NA
ATOM     26  C   UNL     1      47.546   2.665  17.999  0.00  0.00    +0.000 A 
ATOM     27  N   UNL     1      47.155   3.199  16.799  0.00  0.00    +0.000 N 
ATOM     28  C   UNL     1      47.702   4.347  16.279  0.00  0.00    +0.000 A 
ATOM     29  O   UNL     1      47.300   4.829  15.227  0.00  0.00    +0.000 OA
ATOM     30  C   UNL     1      48.758   4.928  17.085  0.00  0.00    +0.000 A 
ATOM     31  H   UNL     1      46.417   2.772  16.257  0.00  0.00    +0.000 HD
ENDBRANCH  18  21
ENDBRANCH   1  17
TORSDOF 6
ENDMDL
MODEL 6
REMARK VINA RESULT:    -6.824      2.773      7.755
REMARK INTER + INTRA:         -10.212
REMARK INTER:                  -9.087
REMARK INTRA:                  -1.125
REMARK UNBOUND:                -0.995
REMARK  Name = 
REMARK  7 active torsions:
REMARK  status: ('A' for Active; 'I' for Inactive)
REMARK    1  A    between atoms: C_1  and  O_2
REMARK    2  A    between atoms: O_2  and  C_3
REMARK    3  A    between atoms: C_8  and  C_9
REMARK    4  A    between atoms: C_9  and  C_10
REMARK    5  A    between atoms: C_13  and  C_14
REMARK    6  A    between atoms: C_14  and  N_15
REMARK    7  A    between atoms: C_16  and  C_18
REMARK                            x       y       z     vdW  Elec       q    Type
REMARK                         _______ _______ _______ _____ _____    ______ ____
ROOT
ATOM      1  C   UNL     1      47.470   7.928  12.018  0.00  0.00    +0.000 C 
ENDROOT
BRANCH   1   5
ATOM      2  C   UNL     1      49.533   7.680  15.743  0.00  0.00    +0.000 A 
ATOM      3  C   UNL     1      48.452   8.556  15.639  0.00  0.00    +0.000 A 
ATOM      4  C   UNL     1      47.798   8.690  14.413  0.00  0.00    +0.000 A 
ATOM      5  C   UNL     1      48.219   7.936  13.317  0.00  0.00    +0.000 A 
ATOM      6  C   UNL     1      49.351   7.150  13.489  0.00  0.00    +0.000 A 
ATOM      7  N   UNL     1      50.004   7.000  14.665  0.00  0.00    +0.000 NA
BRANCH   2   8
ATOM      8  C   UNL     1      50.096   7.280  17.090  0.00  0.00    +0.000 C 
BRANCH   8  14
ATOM      9  C   UNL     1      49.505   4.818  17.367  0.00  0.00    +0.000 A 
ATOM     10  C   UNL     1      49.942   3.516  17.619  0.00  0.00    +0.000 A 
ATOM     11  C   UNL     1      51.299   3.257  17.790  0.00  0.00    +0.000 A 
ATOM     12  C   UNL     1      52.185   4.311  17.691  0.00  0.00    +0.000 A 
ATOM     13  N   UNL     1      51.808   5.580  17.437  0.00  0.00    +0.000 NA
ATOM     14  C   UNL     1      50.474   5.828  17.276  0.00  0.00    +0.000 A 
BRANCH   9  16
ATOM     15  C   UNL     1      47.427   4.360  16.313  0.00  0.00    +0.000 C 
ATOM     16  O   UNL     1      48.193   5.169  17.199  0.00  0.00    +0.000 OA
ENDBRANCH   9  16
ENDBRANCH   8  14
ENDBRANCH   2   8
ENDBRANCH   1   5
BRANCH   1  17
ATOM     17  N   UNL     1      46.827   6.668  11.761  0.00  0.00    +0.000 N 
ATOM     18  C   UNL     1      45.467   6.537  11.914  0.00  0.00    +0.000 C 
ATOM     19  O   UNL     1      44.752   7.491  12.210  0.00  0.00    +0.000 OA
ATOM     20  H   UNL     1      47.409   5.836  11.756  0.00  0.00    +0.000 HD
BRANCH  18  21
ATOM     21  C   UNL     1      44.901   5.210  11.647  0.00  0.00    +0.000 A 
ATOM     22  C   UNL     1      44.218   4.540  12.654  0.00  0.00    +0.000 A 
ATOM     23  S   UNL     1      43.578   3.038  12.161  0.00  0.00    +0.000 S 
ATOM     24  C   UNL     1      44.242   3.205  10.602  0.00  0.00    +0.000 A 
ATOM     25  N   UNL     1      44.087   2.234   9.668  0.00  0.00    +0.000 NA
ATOM     26  C   UNL     1      44.672   2.475   8.542  0.00  0.00    +0.000 A 
ATOM     27  N   UNL     1      45.396   3.605   8.267  0.00  0.00    +0.000 N 
ATOM     28  C   UNL     1      45.554   4.629   9.168  0.00  0.00    +0.000 A 
ATOM     29  O   UNL     1      46.166   5.650   8.878  0.00  0.00    +0.000 OA
ATOM     30  C   UNL     1      44.925   4.399  10.455  0.00  0.00    +0.000 A 
ATOM     31  H   UNL     1      45.825   3.738   7.362  0.00  0.00    +0.000 HD
ENDBRANCH  18  21
ENDBRANCH   1  17
TORSDOF 6
ENDMDL
MODEL 7
REMARK VINA RESULT:    -6.801      3.074      7.404
REMARK INTER + INTRA:         -10.182
REMARK INTER:                  -9.004
REMARK INTRA:                  -1.178
REMARK UNBOUND:                -0.995
REMARK  Name = 
REMARK  7 active torsions:
REMARK  status: ('A' for Active; 'I' for Inactive)
REMARK    1  A    between atoms: C_1  and  O_2
REMARK    2  A    between atoms: O_2  and  C_3
REMARK    3  A    between atoms: C_8  and  C_9
REMARK    4  A    between atoms: C_9  and  C_10
REMARK    5  A    between atoms: C_13  and  C_14
REMARK    6  A    between atoms: C_14  and  N_15
REMARK    7  A    between atoms: C_16  and  C_18
REMARK                            x       y       z     vdW  Elec       q    Type
REMARK                         _______ _______ _______ _____ _____    ______ ____
ROOT
ATOM      1  C   UNL     1      48.022   8.710  14.135  0.00  0.00    +0.000 C 
ENDROOT
BRANCH   1   5
ATOM      2  C   UNL     1      49.716   6.554  17.402  0.00  0.00    +0.000 A 
ATOM      3  C   UNL     1      48.937   7.676  17.680  0.00  0.00    +0.000 A 
ATOM      4  C   UNL     1      48.418   8.426  16.623  0.00  0.00    +0.000 A 
ATOM      5  C   UNL     1      48.668   8.034  15.307  0.00  0.00    +0.000 A 
ATOM      6  C   UNL     1      49.518   6.951  15.122  0.00  0.00    +0.000 A 
ATOM      7  N   UNL     1      50.035   6.206  16.127  0.00  0.00    +0.000 NA
BRANCH   2   8
ATOM      8  C   UNL     1      50.066   5.550  18.480  0.00  0.00    +0.000 C 
BRANCH   8  14
ATOM      9  C   UNL     1      49.670   3.149  17.731  0.00  0.00    +0.000 A 
ATOM     10  C   UNL     1      50.214   1.906  17.398  0.00  0.00    +0.000 A 
ATOM     11  C   UNL     1      51.595   1.731  17.387  0.00  0.00    +0.000 A 
ATOM     12  C   UNL     1      52.396   2.811  17.698  0.00  0.00    +0.000 A 
ATOM     13  N   UNL     1      51.913   4.030  18.014  0.00  0.00    +0.000 NA
ATOM     14  C   UNL     1      50.557   4.194  18.027  0.00  0.00    +0.000 A 
BRANCH   9  16
ATOM     15  C   UNL     1      47.646   3.475  16.532  0.00  0.00    +0.000 C 
ATOM     16  O   UNL     1      48.328   3.411  17.780  0.00  0.00    +0.000 OA
ENDBRANCH   9  16
ENDBRANCH   8  14
ENDBRANCH   2   8
ENDBRANCH   1   5
BRANCH   1  17
ATOM     17  N   UNL     1      46.831   8.034  13.697  0.00  0.00    +0.000 N 
ATOM     18  C   UNL     1      46.858   7.231  12.582  0.00  0.00    +0.000 C 
ATOM     19  O   UNL     1      47.896   7.012  11.964  0.00  0.00    +0.000 OA
ATOM     20  H   UNL     1      45.940   8.385  14.036  0.00  0.00    +0.000 HD
BRANCH  18  21
ATOM     21  C   UNL     1      45.591   6.596  12.200  0.00  0.00    +0.000 A 
ATOM     22  C   UNL     1      44.567   7.371  11.671  0.00  0.00    +0.000 A 
ATOM     23  S   UNL     1      43.188   6.470  11.230  0.00  0.00    +0.000 S 
ATOM     24  C   UNL     1      43.889   5.022  11.787  0.00  0.00    +0.000 A 
ATOM     25  N   UNL     1      43.211   3.848  11.727  0.00  0.00    +0.000 NA
ATOM     26  C   UNL     1      43.847   2.836  12.215  0.00  0.00    +0.000 A 
ATOM     27  N   UNL     1      45.106   2.894  12.755  0.00  0.00    +0.000 N 
ATOM     28  C   UNL     1      45.844   4.052  12.808  0.00  0.00    +0.000 A 
ATOM     29  O   UNL     1      46.986   4.064  13.252  0.00  0.00    +0.000 OA
ATOM     30  C   UNL     1      45.165   5.221  12.282  0.00  0.00    +0.000 A 
ATOM     31  H   UNL     1      45.554   2.064  13.115  0.00  0.00    +0.000 HD
ENDBRANCH  18  21
ENDBRANCH   1  17
TORSDOF 6
ENDMDL
MODEL 8
REMARK VINA RESULT:    -6.723      2.198      2.485
REMARK INTER + INTRA:         -10.076
REMARK INTER:                  -9.012
REMARK INTRA:                  -1.064
REMARK UNBOUND:                -0.995
REMARK  Name = 
REMARK  7 active torsions:
REMARK  status: ('A' for Active; 'I' for Inactive)
REMARK    1  A    between atoms: C_1  and  O_2
REMARK    2  A    between atoms: O_2  and  C_3
REMARK    3  A    between atoms: C_8  and  C_9
REMARK    4  A    between atoms: C_9  and  C_10
REMARK    5  A    between atoms: C_13  and  C_14
REMARK    6  A    between atoms: C_14  and  N_15
REMARK    7  A    between atoms: C_16  and  C_18
REMARK                            x       y       z     vdW  Elec       q    Type
REMARK                         _______ _______ _______ _____ _____    ______ ____
ROOT
ATOM      1  C   UNL     1      48.774   7.376  15.386  0.00  0.00    +0.000 C 
ENDROOT
BRANCH   1   5
ATOM      2  C   UNL     1      45.929   6.137  12.459  0.00  0.00    +0.000 A 
ATOM      3  C   UNL     1      46.431   5.182  13.343  0.00  0.00    +0.000 A 
ATOM      4  C   UNL     1      47.402   5.557  14.274  0.00  0.00    +0.000 A 
ATOM      5  C   UNL     1      47.843   6.881  14.320  0.00  0.00    +0.000 A 
ATOM      6  C   UNL     1      47.348   7.744  13.351  0.00  0.00    +0.000 A 
ATOM      7  N   UNL     1      46.406   7.409  12.439  0.00  0.00    +0.000 NA
BRANCH   2   8
ATOM      8  C   UNL     1      44.690   5.870  11.631  0.00  0.00    +0.000 C 
BRANCH   8  14
ATOM      9  C   UNL     1      44.121   3.815  10.239  0.00  0.00    +0.000 A 
ATOM     10  C   UNL     1      44.394   3.033   9.114  0.00  0.00    +0.000 A 
ATOM     11  C   UNL     1      45.380   3.427   8.214  0.00  0.00    +0.000 A 
ATOM     12  C   UNL     1      46.058   4.604   8.458  0.00  0.00    +0.000 A 
ATOM     13  N   UNL     1      45.819   5.395   9.524  0.00  0.00    +0.000 NA
ATOM     14  C   UNL     1      44.853   4.999  10.406  0.00  0.00    +0.000 A 
BRANCH   9  16
ATOM     15  C   UNL     1      43.540   2.502  12.131  0.00  0.00    +0.000 C 
ATOM     16  O   UNL     1      43.181   3.502  11.182  0.00  0.00    +0.000 OA
ENDBRANCH   9  16
ENDBRANCH   8  14
ENDBRANCH   2   8
ENDBRANCH   1   5
BRANCH   1  17
ATOM     17  N   UNL     1      49.726   6.378  15.793  0.00  0.00    +0.000 N 
ATOM     18  C   UNL     1      50.170   6.331  17.093  0.00  0.00    +0.000 C 
ATOM     19  O   UNL     1      49.733   7.086  17.957  0.00  0.00    +0.000 OA
ATOM     20  H   UNL     1      50.265   5.919  15.065  0.00  0.00    +0.000 HD
BRANCH  18  21
ATOM     21  C   UNL     1      51.155   5.290  17.412  0.00  0.00    +0.000 A 
ATOM     22  C   UNL     1      52.437   5.654  17.801  0.00  0.00    +0.000 A 
ATOM     23  S   UNL     1      53.435   4.326  18.188  0.00  0.00    +0.000 S 
ATOM     24  C   UNL     1      52.205   3.218  17.793  0.00  0.00    +0.000 A 
ATOM     25  N   UNL     1      52.416   1.880  17.877  0.00  0.00    +0.000 NA
ATOM     26  C   UNL     1      51.412   1.155  17.514  0.00  0.00    +0.000 A 
ATOM     27  N   UNL     1      50.211   1.650  17.077  0.00  0.00    +0.000 N 
ATOM     28  C   UNL     1      49.940   2.995  17.005  0.00  0.00    +0.000 A 
ATOM     29  O   UNL     1      48.840   3.410  16.656  0.00  0.00    +0.000 OA
ATOM     30  C   UNL     1      51.044   3.852  17.391  0.00  0.00    +0.000 A 
ATOM     31  H   UNL     1      49.459   1.030  16.813  0.00  0.00    +0.000 HD
ENDBRANCH  18  21
ENDBRANCH   1  17
TORSDOF 6
ENDMDL
MODEL 9
REMARK VINA RESULT:    -6.507      3.281      5.442
REMARK INTER + INTRA:          -9.785
REMARK INTER:                  -8.800
REMARK INTRA:                  -0.985
REMARK UNBOUND:                -0.995
REMARK  Name = 
REMARK  7 active torsions:
REMARK  status: ('A' for Active; 'I' for Inactive)
REMARK    1  A    between atoms: C_1  and  O_2
REMARK    2  A    between atoms: O_2  and  C_3
REMARK    3  A    between atoms: C_8  and  C_9
REMARK    4  A    between atoms: C_9  and  C_10
REMARK    5  A    between atoms: C_13  and  C_14
REMARK    6  A    between atoms: C_14  and  N_15
REMARK    7  A    between atoms: C_16  and  C_18
REMARK                            x       y       z     vdW  Elec       q    Type
REMARK                         _______ _______ _______ _____ _____    ______ ____
ROOT
ATOM      1  C   UNL     1      46.022   5.254  13.113  0.00  0.00    +0.000 C 
ENDROOT
BRANCH   1   5
ATOM      2  C   UNL     1      45.189   9.228  11.806  0.00  0.00    +0.000 A 
ATOM      3  C   UNL     1      44.379   8.192  11.341  0.00  0.00    +0.000 A 
ATOM      4  C   UNL     1      44.668   6.879  11.715  0.00  0.00    +0.000 A 
ATOM      5  C   UNL     1      45.748   6.621  12.561  0.00  0.00    +0.000 A 
ATOM      6  C   UNL     1      46.547   7.702  12.912  0.00  0.00    +0.000 A 
ATOM      7  N   UNL     1      46.290   8.985  12.564  0.00  0.00    +0.000 NA
BRANCH   2   8
ATOM      8  C   UNL     1      44.770  10.676  11.674  0.00  0.00    +0.000 C 
BRANCH   8  14
ATOM      9  C   UNL     1      43.098  11.091   9.797  0.00  0.00    +0.000 A 
ATOM     10  C   UNL     1      41.792  11.419   9.425  0.00  0.00    +0.000 A 
ATOM     11  C   UNL     1      40.817  11.610  10.399  0.00  0.00    +0.000 A 
ATOM     12  C   UNL     1      41.174  11.455  11.723  0.00  0.00    +0.000 A 
ATOM     13  N   UNL     1      42.418  11.128  12.127  0.00  0.00    +0.000 NA
ATOM     14  C   UNL     1      43.372  10.947  11.165  0.00  0.00    +0.000 A 
BRANCH   9  16
ATOM     15  C   UNL     1      43.777  10.870   7.532  0.00  0.00    +0.000 C 
ATOM     16  O   UNL     1      44.124  10.897   8.913  0.00  0.00    +0.000 OA
ENDBRANCH   9  16
ENDBRANCH   8  14
ENDBRANCH   2   8
ENDBRANCH   1   5
BRANCH   1  17
ATOM     17  N   UNL     1      46.622   5.298  14.419  0.00  0.00    +0.000 N 
ATOM     18  C   UNL     1      47.235   4.183  14.940  0.00  0.00    +0.000 C 
ATOM     19  O   UNL     1      47.346   3.143  14.297  0.00  0.00    +0.000 OA
ATOM     20  H   UNL     1      46.335   6.045  15.044  0.00  0.00    +0.000 HD
BRANCH  18  21
ATOM     21  C   UNL     1      47.804   4.315  16.287  0.00  0.00    +0.000 A 
ATOM     22  C   UNL     1      47.413   3.434  17.287  0.00  0.00    +0.000 A 
ATOM     23  S   UNL     1      48.209   3.694  18.772  0.00  0.00    +0.000 S 
ATOM     24  C   UNL     1      49.060   5.028  18.146  0.00  0.00    +0.000 A 
ATOM     25  N   UNL     1      49.915   5.740  18.923  0.00  0.00    +0.000 NA
ATOM     26  C   UNL     1      50.466   6.747  18.331  0.00  0.00    +0.000 A 
ATOM     27  N   UNL     1      50.240   7.102  17.027  0.00  0.00    +0.000 N 
ATOM     28  C   UNL     1      49.409   6.394  16.192  0.00  0.00    +0.000 A 
ATOM     29  O   UNL     1      49.263   6.707  15.016  0.00  0.00    +0.000 OA
ATOM     30  C   UNL     1      48.756   5.260  16.816  0.00  0.00    +0.000 A 
ATOM     31  H   UNL     1      50.707   7.899  16.618  0.00  0.00    +0.000 HD
ENDBRANCH  18  21
ENDBRANCH   1  17
TORSDOF 6
ENDMDL
