MODEL 1
REMARK VINA RESULT:    -8.403      0.000      0.000
REMARK INTER + INTRA:         -13.553
REMARK INTER:                 -12.333
REMARK INTRA:                  -1.220
REMARK UNBOUND:                -1.220
REMARK  Name = 
REMARK  8 active torsions:
REMARK  status: ('A' for Active; 'I' for Inactive)
REMARK    1  A    between atoms: C_2  and  C_3
REMARK    2  A    between atoms: C_3  and  C_4
REMARK    3  A    between atoms: C_3  and  N_11
REMARK    4  A    between atoms: C_4  and  C_5
REMARK    5  A    between atoms: N_11  and  C_12
REMARK    6  A    between atoms: C_15  and  C_16
REMARK    7  A    between atoms: C_16  and  N_17
REMARK    8  A    between atoms: C_18  and  C_20
REMARK                            x       y       z     vdW  Elec       q    Type
REMARK                         _______ _______ _______ _____ _____    ______ ____
ROOT
ATOM      1  C   UNL     1      45.246   6.501  11.145  0.00  0.00    +0.000 A 
ATOM      2  C   UNL     1      44.764   7.656  11.768  0.00  0.00    +0.000 A 
ATOM      3  C   UNL     1      45.535   8.367  12.697  0.00  0.00    +0.000 A 
ATOM      4  C   UNL     1      46.817   7.933  13.045  0.00  0.00    +0.000 A 
ATOM      5  C   UNL     1      47.287   6.744  12.481  0.00  0.00    +0.000 A 
ATOM      6  C   UNL     1      46.505   6.035  11.555  0.00  0.00    +0.000 A 
ENDROOT
BRANCH   1   7
ATOM      7  N   UNL     1      44.493   5.734  10.246  0.00  0.00    +0.000 N 
ATOM      8  H   UNL     1      43.493   5.891  10.373  0.00  0.00    +0.000 HD
BRANCH   7   9
ATOM      9  C   UNL     1      44.812   4.300  10.031  0.00  0.00    +0.000 C 
BRANCH   9  11
ATOM     10  N   UNL     1      43.076   2.692  11.492  0.00  0.00    +0.000 NA
ATOM     11  C   UNL     1      43.863   3.421  10.829  0.00  0.00    +0.000 C 
ENDBRANCH   9  11
BRANCH   9  12
ATOM     12  C   UNL     1      44.641   3.933   8.534  0.00  0.00    +0.000 C 
BRANCH  12  13
ATOM     13  C   UNL     1      45.725   3.069   7.917  0.00  0.00    +0.000 A 
ATOM     14  C   UNL     1      45.873   1.737   8.335  0.00  0.00    +0.000 A 
ATOM     15  C   UNL     1      46.791   0.888   7.711  0.00  0.00    +0.000 A 
ATOM     16  C   UNL     1      47.578   1.362   6.666  0.00  0.00    +0.000 A 
ATOM     17  C   UNL     1      47.462   2.689   6.257  0.00  0.00    +0.000 A 
ATOM     18  C   UNL     1      46.540   3.541   6.878  0.00  0.00    +0.000 A 
ENDBRANCH  12  13
ENDBRANCH   9  12
ENDBRANCH   7   9
ENDBRANCH   1   7
BRANCH   4  19
ATOM     19  C   UNL     1      47.647   8.715  14.030  0.00  0.00    +0.000 C 
BRANCH  19  20
ATOM     20  N   UNL     1      47.948   7.944  15.211  0.00  0.00    +0.000 N 
ATOM     21  C   UNL     1      49.189   7.386  15.389  0.00  0.00    +0.000 C 
ATOM     22  O   UNL     1      50.095   7.552  14.576  0.00  0.00    +0.000 OA
ATOM     23  H   UNL     1      47.165   7.621  15.772  0.00  0.00    +0.000 HD
BRANCH  21  24
ATOM     24  C   UNL     1      49.408   6.623  16.626  0.00  0.00    +0.000 A 
ATOM     25  C   UNL     1      50.325   7.086  17.560  0.00  0.00    +0.000 A 
ATOM     26  S   UNL     1      50.456   6.095  18.941  0.00  0.00    +0.000 S 
ATOM     27  C   UNL     1      49.324   4.989  18.322  0.00  0.00    +0.000 A 
ATOM     28  N   UNL     1      49.003   3.859  19.007  0.00  0.00    +0.000 NA
ATOM     29  C   UNL     1      48.154   3.097  18.405  0.00  0.00    +0.000 A 
ATOM     30  N   UNL     1      47.583   3.362  17.191  0.00  0.00    +0.000 N 
ATOM     31  C   UNL     1      47.854   4.506  16.478  0.00  0.00    +0.000 A 
ATOM     32  O   UNL     1      47.293   4.743  15.411  0.00  0.00    +0.000 OA
ATOM     33  C   UNL     1      48.827   5.388  17.092  0.00  0.00    +0.000 A 
ATOM     34  H   UNL     1      46.913   2.730  16.786  0.00  0.00    +0.000 HD
ENDBRANCH  21  24
ENDBRANCH  19  20
ENDBRANCH   4  19
TORSDOF 8
ENDMDL
MODEL 2
REMARK VINA RESULT:    -7.805      1.772      2.377
REMARK INTER + INTRA:         -12.676
REMARK INTER:                 -11.646
REMARK INTRA:                  -1.030
REMARK UNBOUND:                -1.220
REMARK  Name = 
REMARK  8 active torsions:
REMARK  status: ('A' for Active; 'I' for Inactive)
REMARK    1  A    between atoms: C_2  and  C_3
REMARK    2  A    between atoms: C_3  and  C_4
REMARK    3  A    between atoms: C_3  and  N_11
REMARK    4  A    between atoms: C_4  and  C_5
REMARK    5  A    between atoms: N_11  and  C_12
REMARK    6  A    between atoms: C_15  and  C_16
REMARK    7  A    between atoms: C_16  and  N_17
REMARK    8  A    between atoms: C_18  and  C_20
REMARK                            x       y       z     vdW  Elec       q    Type
REMARK                         _______ _______ _______ _____ _____    ______ ____
ROOT
ATOM      1  C   UNL     1      45.264   6.261  11.292  0.00  0.00    +0.000 A 
ATOM      2  C   UNL     1      46.542   5.862  11.696  0.00  0.00    +0.000 A 
ATOM      3  C   UNL     1      47.327   6.656  12.543  0.00  0.00    +0.000 A 
ATOM      4  C   UNL     1      46.860   7.890  13.004  0.00  0.00    +0.000 A 
ATOM      5  C   UNL     1      45.613   8.332  12.555  0.00  0.00    +0.000 A 
ATOM      6  C   UNL     1      44.835   7.533  11.702  0.00  0.00    +0.000 A 
ENDROOT
BRANCH   1   7
ATOM      7  N   UNL     1      44.465   5.522  10.410  0.00  0.00    +0.000 N 
ATOM      8  H   UNL     1      43.473   5.685  10.583  0.00  0.00    +0.000 HD
BRANCH   7   9
ATOM      9  C   UNL     1      44.760   4.090  10.149  0.00  0.00    +0.000 C 
BRANCH   9  11
ATOM     10  N   UNL     1      43.013   2.465  11.579  0.00  0.00    +0.000 NA
ATOM     11  C   UNL     1      43.806   3.202  10.931  0.00  0.00    +0.000 C 
ENDBRANCH   9  11
BRANCH   9  12
ATOM     12  C   UNL     1      44.568   3.770   8.643  0.00  0.00    +0.000 C 
BRANCH  12  13
ATOM     13  C   UNL     1      45.669   2.970   7.973  0.00  0.00    +0.000 A 
ATOM     14  C   UNL     1      45.889   1.636   8.353  0.00  0.00    +0.000 A 
ATOM     15  C   UNL     1      46.823   0.845   7.680  0.00  0.00    +0.000 A 
ATOM     16  C   UNL     1      47.555   1.378   6.624  0.00  0.00    +0.000 A 
ATOM     17  C   UNL     1      47.367   2.708   6.251  0.00  0.00    +0.000 A 
ATOM     18  C   UNL     1      46.429   3.502   6.921  0.00  0.00    +0.000 A 
ENDBRANCH  12  13
ENDBRANCH   9  12
ENDBRANCH   7   9
ENDBRANCH   1   7
BRANCH   4  19
ATOM     19  C   UNL     1      47.703   8.728  13.931  0.00  0.00    +0.000 C 
BRANCH  19  20
ATOM     20  N   UNL     1      47.773   8.160  15.254  0.00  0.00    +0.000 N 
ATOM     21  C   UNL     1      48.885   7.466  15.663  0.00  0.00    +0.000 C 
ATOM     22  O   UNL     1      49.870   7.338  14.939  0.00  0.00    +0.000 OA
ATOM     23  H   UNL     1      46.905   8.070  15.773  0.00  0.00    +0.000 HD
BRANCH  21  24
ATOM     24  C   UNL     1      48.872   6.930  17.031  0.00  0.00    +0.000 A 
ATOM     25  C   UNL     1      49.338   5.643  17.265  0.00  0.00    +0.000 A 
ATOM     26  S   UNL     1      49.265   5.174  18.903  0.00  0.00    +0.000 S 
ATOM     27  C   UNL     1      48.567   6.657  19.353  0.00  0.00    +0.000 A 
ATOM     28  N   UNL     1      48.208   6.899  20.642  0.00  0.00    +0.000 NA
ATOM     29  C   UNL     1      47.664   8.053  20.833  0.00  0.00    +0.000 A 
ATOM     30  N   UNL     1      47.458   8.995  19.863  0.00  0.00    +0.000 N 
ATOM     31  C   UNL     1      47.834   8.807  18.555  0.00  0.00    +0.000 A 
ATOM     32  O   UNL     1      47.680   9.686  17.711  0.00  0.00    +0.000 OA
ATOM     33  C   UNL     1      48.424   7.513  18.273  0.00  0.00    +0.000 A 
ATOM     34  H   UNL     1      47.042   9.884  20.086  0.00  0.00    +0.000 HD
ENDBRANCH  21  24
ENDBRANCH  19  20
ENDBRANCH   4  19
TORSDOF 8
ENDMDL
MODEL 3
REMARK VINA RESULT:    -7.742      1.566      2.056
REMARK INTER + INTRA:         -12.583
REMARK INTER:                 -11.647
REMARK INTRA:                  -0.936
REMARK UNBOUND:                -1.220
REMARK  Name = 
REMARK  8 active torsions:
REMARK  status: ('A' for Active; 'I' for Inactive)
REMARK    1  A    between atoms: C_2  and  C_3
REMARK    2  A    between atoms: C_3  and  C_4
REMARK    3  A    between atoms: C_3  and  N_11
REMARK    4  A    between atoms: C_4  and  C_5
REMARK    5  A    between atoms: N_11  and  C_12
REMARK    6  A    between atoms: C_15  and  C_16
REMARK    7  A    between atoms: C_16  and  N_17
REMARK    8  A    between atoms: C_18  and  C_20
REMARK                            x       y       z     vdW  Elec       q    Type
REMARK                         _______ _______ _______ _____ _____    ______ ____
ROOT
ATOM      1  C   UNL     1      46.076   5.714  11.830  0.00  0.00    +0.000 A 
ATOM      2  C   UNL     1      46.884   6.750  11.353  0.00  0.00    +0.000 A 
ATOM      3  C   UNL     1      47.953   7.256  12.104  0.00  0.00    +0.000 A 
ATOM      4  C   UNL     1      48.241   6.746  13.373  0.00  0.00    +0.000 A 
ATOM      5  C   UNL     1      47.401   5.756  13.892  0.00  0.00    +0.000 A 
ATOM      6  C   UNL     1      46.329   5.259  13.134  0.00  0.00    +0.000 A 
ENDROOT
BRANCH   1   7
ATOM      7  N   UNL     1      44.969   5.210  11.134  0.00  0.00    +0.000 N 
ATOM      8  H   UNL     1      44.099   5.407  11.628  0.00  0.00    +0.000 HD
BRANCH   7   9
ATOM      9  C   UNL     1      44.997   3.836  10.571  0.00  0.00    +0.000 C 
BRANCH   9  11
ATOM     10  N   UNL     1      42.955   2.299  11.669  0.00  0.00    +0.000 NA
ATOM     11  C   UNL     1      43.881   2.996  11.172  0.00  0.00    +0.000 C 
ENDBRANCH   9  11
BRANCH   9  12
ATOM     12  C   UNL     1      44.775   3.882   9.037  0.00  0.00    +0.000 C 
BRANCH  12  13
ATOM     13  C   UNL     1      45.700   3.027   8.191  0.00  0.00    +0.000 A 
ATOM     14  C   UNL     1      46.489   3.631   7.199  0.00  0.00    +0.000 A 
ATOM     15  C   UNL     1      47.426   2.887   6.478  0.00  0.00    +0.000 A 
ATOM     16  C   UNL     1      47.581   1.528   6.733  0.00  0.00    +0.000 A 
ATOM     17  C   UNL     1      46.786   0.908   7.696  0.00  0.00    +0.000 A 
ATOM     18  C   UNL     1      45.849   1.652   8.423  0.00  0.00    +0.000 A 
ENDBRANCH  12  13
ENDBRANCH   9  12
ENDBRANCH   7   9
ENDBRANCH   1   7
BRANCH   4  19
ATOM     19  C   UNL     1      49.405   7.282  14.166  0.00  0.00    +0.000 C 
BRANCH  19  20
ATOM     20  N   UNL     1      49.101   7.372  15.572  0.00  0.00    +0.000 N 
ATOM     21  C   UNL     1      49.882   6.730  16.502  0.00  0.00    +0.000 C 
ATOM     22  O   UNL     1      50.881   6.094  16.178  0.00  0.00    +0.000 OA
ATOM     23  H   UNL     1      48.177   7.702  15.833  0.00  0.00    +0.000 HD
BRANCH  21  24
ATOM     24  C   UNL     1      49.502   6.884  17.913  0.00  0.00    +0.000 A 
ATOM     25  C   UNL     1      49.500   8.149  18.487  0.00  0.00    +0.000 A 
ATOM     26  S   UNL     1      49.029   8.158  20.125  0.00  0.00    +0.000 S 
ATOM     27  C   UNL     1      48.852   6.468  20.141  0.00  0.00    +0.000 A 
ATOM     28  N   UNL     1      48.500   5.812  21.278  0.00  0.00    +0.000 NA
ATOM     29  C   UNL     1      48.432   4.530  21.151  0.00  0.00    +0.000 A 
ATOM     30  N   UNL     1      48.667   3.841  19.993  0.00  0.00    +0.000 N 
ATOM     31  C   UNL     1      48.994   4.464  18.813  0.00  0.00    +0.000 A 
ATOM     32  O   UNL     1      49.155   3.827  17.776  0.00  0.00    +0.000 OA
ATOM     33  C   UNL     1      49.116   5.906  18.902  0.00  0.00    +0.000 A 
ATOM     34  H   UNL     1      48.580   2.839  19.961  0.00  0.00    +0.000 HD
ENDBRANCH  21  24
ENDBRANCH  19  20
ENDBRANCH   4  19
TORSDOF 8
ENDMDL
MODEL 4
REMARK VINA RESULT:    -7.680      2.008      2.284
REMARK INTER + INTRA:         -12.492
REMARK INTER:                 -11.539
REMARK INTRA:                  -0.953
REMARK UNBOUND:                -1.220
REMARK  Name = 
REMARK  8 active torsions:
REMARK  status: ('A' for Active; 'I' for Inactive)
REMARK    1  A    between atoms: C_2  and  C_3
REMARK    2  A    between atoms: C_3  and  C_4
REMARK    3  A    between atoms: C_3  and  N_11
REMARK    4  A    between atoms: C_4  and  C_5
REMARK    5  A    between atoms: N_11  and  C_12
REMARK    6  A    between atoms: C_15  and  C_16
REMARK    7  A    between atoms: C_16  and  N_17
REMARK    8  A    between atoms: C_18  and  C_20
REMARK                            x       y       z     vdW  Elec       q    Type
REMARK                         _______ _______ _______ _____ _____    ______ ____
ROOT
ATOM      1  C   UNL     1      46.473   6.097  11.706  0.00  0.00    +0.000 A 
ATOM      2  C   UNL     1      46.598   5.304  12.851  0.00  0.00    +0.000 A 
ATOM      3  C   UNL     1      47.254   5.767  13.999  0.00  0.00    +0.000 A 
ATOM      4  C   UNL     1      47.821   7.044  14.034  0.00  0.00    +0.000 A 
ATOM      5  C   UNL     1      47.763   7.823  12.875  0.00  0.00    +0.000 A 
ATOM      6  C   UNL     1      47.109   7.348  11.727  0.00  0.00    +0.000 A 
ENDROOT
BRANCH   1   7
ATOM      7  N   UNL     1      45.868   5.657  10.521  0.00  0.00    +0.000 N 
ATOM      8  H   UNL     1      45.598   6.443   9.930  0.00  0.00    +0.000 HD
BRANCH   7   9
ATOM      9  C   UNL     1      44.829   4.597  10.556  0.00  0.00    +0.000 C 
BRANCH   9  11
ATOM     10  N   UNL     1      42.489   5.575  11.698  0.00  0.00    +0.000 NA
ATOM     11  C   UNL     1      43.550   5.131  11.180  0.00  0.00    +0.000 C 
ENDBRANCH   9  11
BRANCH   9  12
ATOM     12  C   UNL     1      44.489   4.134   9.116  0.00  0.00    +0.000 C 
BRANCH  12  13
ATOM     13  C   UNL     1      45.510   3.247   8.428  0.00  0.00    +0.000 A 
ATOM     14  C   UNL     1      45.553   1.876   8.726  0.00  0.00    +0.000 A 
ATOM     15  C   UNL     1      46.410   1.019   8.031  0.00  0.00    +0.000 A 
ATOM     16  C   UNL     1      47.240   1.522   7.035  0.00  0.00    +0.000 A 
ATOM     17  C   UNL     1      47.228   2.885   6.745  0.00  0.00    +0.000 A 
ATOM     18  C   UNL     1      46.368   3.746   7.436  0.00  0.00    +0.000 A 
ENDBRANCH  12  13
ENDBRANCH   9  12
ENDBRANCH   7   9
ENDBRANCH   1   7
BRANCH   4  19
ATOM     19  C   UNL     1      48.506   7.542  15.280  0.00  0.00    +0.000 C 
BRANCH  19  20
ATOM     20  N   UNL     1      49.552   6.648  15.712  0.00  0.00    +0.000 N 
ATOM     21  C   UNL     1      49.593   6.186  17.004  0.00  0.00    +0.000 C 
ATOM     22  O   UNL     1      48.727   6.482  17.824  0.00  0.00    +0.000 OA
ATOM     23  H   UNL     1      50.376   6.571  15.123  0.00  0.00    +0.000 HD
BRANCH  21  24
ATOM     24  C   UNL     1      50.690   5.272  17.352  0.00  0.00    +0.000 A 
ATOM     25  C   UNL     1      51.908   5.794  17.766  0.00  0.00    +0.000 A 
ATOM     26  S   UNL     1      53.071   4.605  18.141  0.00  0.00    +0.000 S 
ATOM     27  C   UNL     1      52.004   3.350  17.723  0.00  0.00    +0.000 A 
ATOM     28  N   UNL     1      52.396   2.050  17.778  0.00  0.00    +0.000 NA
ATOM     29  C   UNL     1      51.494   1.207  17.404  0.00  0.00    +0.000 A 
ATOM     30  N   UNL     1      50.231   1.538  16.996  0.00  0.00    +0.000 N 
ATOM     31  C   UNL     1      49.781   2.835  16.955  0.00  0.00    +0.000 A 
ATOM     32  O   UNL     1      48.628   3.103  16.628  0.00  0.00    +0.000 OA
ATOM     33  C   UNL     1      50.764   3.831  17.335  0.00  0.00    +0.000 A 
ATOM     34  H   UNL     1      49.570   0.826  16.733  0.00  0.00    +0.000 HD
ENDBRANCH  21  24
ENDBRANCH  19  20
ENDBRANCH   4  19
TORSDOF 8
ENDMDL
MODEL 5
REMARK VINA RESULT:    -7.324      3.777      5.090
REMARK INTER + INTRA:         -11.970
REMARK INTER:                 -10.761
REMARK INTRA:                  -1.210
REMARK UNBOUND:                -1.220
REMARK  Name = 
REMARK  8 active torsions:
REMARK  status: ('A' for Active; 'I' for Inactive)
REMARK    1  A    between atoms: C_2  and  C_3
REMARK    2  A    between atoms: C_3  and  C_4
REMARK    3  A    between atoms: C_3  and  N_11
REMARK    4  A    between atoms: C_4  and  C_5
REMARK    5  A    between atoms: N_11  and  C_12
REMARK    6  A    between atoms: C_15  and  C_16
REMARK    7  A    between atoms: C_16  and  N_17
REMARK    8  A    between atoms: C_18  and  C_20
REMARK                            x       y       z     vdW  Elec       q    Type
REMARK                         _______ _______ _______ _____ _____    ______ ____
ROOT
ATOM      1  C   UNL     1      44.983   6.378  11.393  0.00  0.00    +0.000 A 
ATOM      2  C   UNL     1      46.120   5.939  12.078  0.00  0.00    +0.000 A 
ATOM      3  C   UNL     1      46.910   6.817  12.832  0.00  0.00    +0.000 A 
ATOM      4  C   UNL     1      46.592   8.175  12.914  0.00  0.00    +0.000 A 
ATOM      5  C   UNL     1      45.497   8.641  12.181  0.00  0.00    +0.000 A 
ATOM      6  C   UNL     1      44.714   7.756  11.424  0.00  0.00    +0.000 A 
ENDROOT
BRANCH   1   7
ATOM      7  N   UNL     1      44.192   5.545  10.591  0.00  0.00    +0.000 N 
ATOM      8  H   UNL     1      43.212   5.583  10.871  0.00  0.00    +0.000 HD
BRANCH   7   9
ATOM      9  C   UNL     1      44.632   4.161  10.280  0.00  0.00    +0.000 C 
BRANCH   9  11
ATOM     10  N   UNL     1      43.023   2.314  11.596  0.00  0.00    +0.000 NA
ATOM     11  C   UNL     1      43.753   3.152  10.999  0.00  0.00    +0.000 C 
ENDBRANCH   9  11
BRANCH   9  12
ATOM     12  C   UNL     1      44.509   3.890   8.759  0.00  0.00    +0.000 C 
BRANCH  12  13
ATOM     13  C   UNL     1      45.612   3.064   8.124  0.00  0.00    +0.000 A 
ATOM     14  C   UNL     1      45.749   1.709   8.465  0.00  0.00    +0.000 A 
ATOM     15  C   UNL     1      46.687   0.899   7.818  0.00  0.00    +0.000 A 
ATOM     16  C   UNL     1      47.504   1.435   6.828  0.00  0.00    +0.000 A 
ATOM     17  C   UNL     1      47.398   2.785   6.496  0.00  0.00    +0.000 A 
ATOM     18  C   UNL     1      46.457   3.597   7.140  0.00  0.00    +0.000 A 
ENDBRANCH  12  13
ENDBRANCH   9  12
ENDBRANCH   7   9
ENDBRANCH   1   7
BRANCH   4  19
ATOM     19  C   UNL     1      47.436   9.109  13.743  0.00  0.00    +0.000 C 
BRANCH  19  20
ATOM     20  N   UNL     1      48.762   9.261  13.199  0.00  0.00    +0.000 N 
ATOM     21  C   UNL     1      49.021  10.199  12.231  0.00  0.00    +0.000 C 
ATOM     22  O   UNL     1      48.151  10.964  11.822  0.00  0.00    +0.000 OA
ATOM     23  H   UNL     1      49.425   8.509  13.362  0.00  0.00    +0.000 HD
BRANCH  21  24
ATOM     24  C   UNL     1      50.404  10.289  11.741  0.00  0.00    +0.000 A 
ATOM     25  C   UNL     1      51.024  11.529  11.669  0.00  0.00    +0.000 A 
ATOM     26  S   UNL     1      52.626  11.462  11.090  0.00  0.00    +0.000 S 
ATOM     27  C   UNL     1      52.535   9.779  10.872  0.00  0.00    +0.000 A 
ATOM     28  N   UNL     1      53.581   9.083  10.353  0.00  0.00    +0.000 NA
ATOM     29  C   UNL     1      53.362   7.819  10.216  0.00  0.00    +0.000 A 
ATOM     30  N   UNL     1      52.203   7.181  10.562  0.00  0.00    +0.000 N 
ATOM     31  C   UNL     1      51.132   7.838  11.119  0.00  0.00    +0.000 A 
ATOM     32  O   UNL     1      50.119   7.235  11.464  0.00  0.00    +0.000 OA
ATOM     33  C   UNL     1      51.310   9.269  11.269  0.00  0.00    +0.000 A 
ATOM     34  H   UNL     1      52.105   6.186  10.443  0.00  0.00    +0.000 HD
ENDBRANCH  21  24
ENDBRANCH  19  20
ENDBRANCH   4  19
TORSDOF 8
ENDMDL
MODEL 6
REMARK VINA RESULT:    -7.320      2.069      3.123
REMARK INTER + INTRA:         -11.964
REMARK INTER:                 -10.929
REMARK INTRA:                  -1.034
REMARK UNBOUND:                -1.220
REMARK  Name = 
REMARK  8 active torsions:
REMARK  status: ('A' for Active; 'I' for Inactive)
REMARK    1  A    between atoms: C_2  and  C_3
REMARK    2  A    between atoms: C_3  and  C_4
REMARK    3  A    between atoms: C_3  and  N_11
REMARK    4  A    between atoms: C_4  and  C_5
REMARK    5  A    between atoms: N_11  and  C_12
REMARK    6  A    between atoms: C_15  and  C_16
REMARK    7  A    between atoms: C_16  and  N_17
REMARK    8  A    between atoms: C_18  and  C_20
REMARK                            x       y       z     vdW  Elec       q    Type
REMARK                         _______ _______ _______ _____ _____    ______ ____
ROOT
ATOM      1  C   UNL     1      45.298   6.348  11.319  0.00  0.00    +0.000 A 
ATOM      2  C   UNL     1      46.657   6.084  11.512  0.00  0.00    +0.000 A 
ATOM      3  C   UNL     1      47.445   6.868  12.365  0.00  0.00    +0.000 A 
ATOM      4  C   UNL     1      46.897   7.958  13.046  0.00  0.00    +0.000 A 
ATOM      5  C   UNL     1      45.556   8.275  12.812  0.00  0.00    +0.000 A 
ATOM      6  C   UNL     1      44.775   7.487  11.951  0.00  0.00    +0.000 A 
ENDROOT
BRANCH   1   7
ATOM      7  N   UNL     1      44.484   5.620  10.441  0.00  0.00    +0.000 N 
ATOM      8  H   UNL     1      43.496   5.773  10.639  0.00  0.00    +0.000 HD
BRANCH   7   9
ATOM      9  C   UNL     1      44.783   4.195  10.146  0.00  0.00    +0.000 C 
BRANCH   9  11
ATOM     10  N   UNL     1      43.017   2.534  11.510  0.00  0.00    +0.000 NA
ATOM     11  C   UNL     1      43.818   3.287  10.891  0.00  0.00    +0.000 C 
ENDBRANCH   9  11
BRANCH   9  12
ATOM     12  C   UNL     1      44.612   3.916   8.630  0.00  0.00    +0.000 C 
BRANCH  12  13
ATOM     13  C   UNL     1      45.666   3.041   7.978  0.00  0.00    +0.000 A 
ATOM     14  C   UNL     1      45.838   1.718   8.414  0.00  0.00    +0.000 A 
ATOM     15  C   UNL     1      46.726   0.858   7.762  0.00  0.00    +0.000 A 
ATOM     16  C   UNL     1      47.458   1.312   6.669  0.00  0.00    +0.000 A 
ATOM     17  C   UNL     1      47.318   2.631   6.240  0.00  0.00    +0.000 A 
ATOM     18  C   UNL     1      46.426   3.493   6.889  0.00  0.00    +0.000 A 
ENDBRANCH  12  13
ENDBRANCH   9  12
ENDBRANCH   7   9
ENDBRANCH   1   7
BRANCH   4  19
ATOM     19  C   UNL     1      47.748   8.783  13.977  0.00  0.00    +0.000 C 
BRANCH  19  20
ATOM     20  N   UNL     1      48.883   8.042  14.467  0.00  0.00    +0.000 N 
ATOM     21  C   UNL     1      49.117   7.924  15.815  0.00  0.00    +0.000 C 
ATOM     22  O   UNL     1      48.355   8.408  16.648  0.00  0.00    +0.000 OA
ATOM     23  H   UNL     1      49.624   7.828  13.807  0.00  0.00    +0.000 HD
BRANCH  21  24
ATOM     24  C   UNL     1      50.293   7.143  16.223  0.00  0.00    +0.000 A 
ATOM     25  C   UNL     1      50.161   6.173  17.208  0.00  0.00    +0.000 A 
ATOM     26  S   UNL     1      51.612   5.351  17.560  0.00  0.00    +0.000 S 
ATOM     27  C   UNL     1      52.480   6.291  16.441  0.00  0.00    +0.000 A 
ATOM     28  N   UNL     1      53.819   6.122  16.275  0.00  0.00    +0.000 NA
ATOM     29  C   UNL     1      54.351   6.923  15.415  0.00  0.00    +0.000 A 
ATOM     30  N   UNL     1      53.673   7.865  14.693  0.00  0.00    +0.000 N 
ATOM     31  C   UNL     1      52.315   8.050  14.805  0.00  0.00    +0.000 A 
ATOM     32  O   UNL     1      51.721   8.871  14.112  0.00  0.00    +0.000 OA
ATOM     33  C   UNL     1      51.666   7.197  15.781  0.00  0.00    +0.000 A 
ATOM     34  H   UNL     1      54.150   8.447  14.025  0.00  0.00    +0.000 HD
ENDBRANCH  21  24
ENDBRANCH  19  20
ENDBRANCH   4  19
TORSDOF 8
ENDMDL
MODEL 7
REMARK VINA RESULT:    -6.998      2.683      3.575
REMARK INTER + INTRA:         -11.491
REMARK INTER:                 -10.603
REMARK INTRA:                  -0.887
REMARK UNBOUND:                -1.220
REMARK  Name = 
REMARK  8 active torsions:
REMARK  status: ('A' for Active; 'I' for Inactive)
REMARK    1  A    between atoms: C_2  and  C_3
REMARK    2  A    between atoms: C_3  and  C_4
REMARK    3  A    between atoms: C_3  and  N_11
REMARK    4  A    between atoms: C_4  and  C_5
REMARK    5  A    between atoms: N_11  and  C_12
REMARK    6  A    between atoms: C_15  and  C_16
REMARK    7  A    between atoms: C_16  and  N_17
REMARK    8  A    between atoms: C_18  and  C_20
REMARK                            x       y       z     vdW  Elec       q    Type
REMARK                         _______ _______ _______ _____ _____    ______ ____
ROOT
ATOM      1  C   UNL     1      46.587   4.828  13.576  0.00  0.00    +0.000 A 
ATOM      2  C   UNL     1      46.603   4.225  14.837  0.00  0.00    +0.000 A 
ATOM      3  C   UNL     1      47.368   4.744  15.891  0.00  0.00    +0.000 A 
ATOM      4  C   UNL     1      48.157   5.883  15.710  0.00  0.00    +0.000 A 
ATOM      5  C   UNL     1      48.203   6.457  14.437  0.00  0.00    +0.000 A 
ATOM      6  C   UNL     1      47.438   5.928  13.386  0.00  0.00    +0.000 A 
ENDROOT
BRANCH   1   7
ATOM      7  N   UNL     1      45.875   4.317  12.482  0.00  0.00    +0.000 N 
ATOM      8  H   UNL     1      46.452   4.297  11.642  0.00  0.00    +0.000 HD
BRANCH   7   9
ATOM      9  C   UNL     1      44.492   4.782  12.202  0.00  0.00    +0.000 C 
BRANCH   9  11
ATOM     10  N   UNL     1      44.511   7.439  11.382  0.00  0.00    +0.000 NA
ATOM     11  C   UNL     1      44.502   6.234  11.754  0.00  0.00    +0.000 C 
ENDBRANCH   9  11
BRANCH   9  12
ATOM     12  C   UNL     1      43.868   3.943  11.057  0.00  0.00    +0.000 C 
BRANCH  12  13
ATOM     13  C   UNL     1      44.780   3.588   9.898  0.00  0.00    +0.000 A 
ATOM     14  C   UNL     1      45.025   2.240   9.594  0.00  0.00    +0.000 A 
ATOM     15  C   UNL     1      45.774   1.884   8.470  0.00  0.00    +0.000 A 
ATOM     16  C   UNL     1      46.295   2.871   7.640  0.00  0.00    +0.000 A 
ATOM     17  C   UNL     1      46.083   4.215   7.943  0.00  0.00    +0.000 A 
ATOM     18  C   UNL     1      45.330   4.574   9.066  0.00  0.00    +0.000 A 
ENDBRANCH  12  13
ENDBRANCH   9  12
ENDBRANCH   7   9
ENDBRANCH   1   7
BRANCH   4  19
ATOM     19  C   UNL     1      48.960   6.445  16.854  0.00  0.00    +0.000 C 
BRANCH  19  20
ATOM     20  N   UNL     1      49.890   5.479  17.384  0.00  0.00    +0.000 N 
ATOM     21  C   UNL     1      51.222   5.531  17.054  0.00  0.00    +0.000 C 
ATOM     22  O   UNL     1      51.675   6.417  16.333  0.00  0.00    +0.000 OA
ATOM     23  H   UNL     1      49.506   4.632  17.793  0.00  0.00    +0.000 HD
BRANCH  21  24
ATOM     24  C   UNL     1      52.098   4.511  17.647  0.00  0.00    +0.000 A 
ATOM     25  C   UNL     1      53.269   4.901  18.282  0.00  0.00    +0.000 A 
ATOM     26  S   UNL     1      54.167   3.602  18.923  0.00  0.00    +0.000 S 
ATOM     27  C   UNL     1      53.046   2.467  18.338  0.00  0.00    +0.000 A 
ATOM     28  N   UNL     1      53.245   1.133  18.513  0.00  0.00    +0.000 NA
ATOM     29  C   UNL     1      52.330   0.388  17.991  0.00  0.00    +0.000 A 
ATOM     30  N   UNL     1      51.228   0.847  17.325  0.00  0.00    +0.000 N 
ATOM     31  C   UNL     1      50.970   2.186  17.151  0.00  0.00    +0.000 A 
ATOM     32  O   UNL     1      49.950   2.574  16.589  0.00  0.00    +0.000 OA
ATOM     33  C   UNL     1      51.982   3.073  17.691  0.00  0.00    +0.000 A 
ATOM     34  H   UNL     1      50.543   0.208  16.957  0.00  0.00    +0.000 HD
ENDBRANCH  21  24
ENDBRANCH  19  20
ENDBRANCH   4  19
TORSDOF 8
ENDMDL
MODEL 8
REMARK VINA RESULT:    -6.959      3.120      8.478
REMARK INTER + INTRA:         -11.433
REMARK INTER:                  -9.688
REMARK INTRA:                  -1.745
REMARK UNBOUND:                -1.220
REMARK  Name = 
REMARK  8 active torsions:
REMARK  status: ('A' for Active; 'I' for Inactive)
REMARK    1  A    between atoms: C_2  and  C_3
REMARK    2  A    between atoms: C_3  and  C_4
REMARK    3  A    between atoms: C_3  and  N_11
REMARK    4  A    between atoms: C_4  and  C_5
REMARK    5  A    between atoms: N_11  and  C_12
REMARK    6  A    between atoms: C_15  and  C_16
REMARK    7  A    between atoms: C_16  and  N_17
REMARK    8  A    between atoms: C_18  and  C_20
REMARK                            x       y       z     vdW  Elec       q    Type
REMARK                         _______ _______ _______ _____ _____    ______ ____
ROOT
ATOM      1  C   UNL     1      49.461   8.249  15.943  0.00  0.00    +0.000 A 
ATOM      2  C   UNL     1      50.061   7.396  15.012  0.00  0.00    +0.000 A 
ATOM      3  C   UNL     1      49.555   7.251  13.713  0.00  0.00    +0.000 A 
ATOM      4  C   UNL     1      48.416   7.950  13.306  0.00  0.00    +0.000 A 
ATOM      5  C   UNL     1      47.766   8.756  14.246  0.00  0.00    +0.000 A 
ATOM      6  C   UNL     1      48.277   8.890  15.547  0.00  0.00    +0.000 A 
ENDROOT
BRANCH   1   7
ATOM      7  N   UNL     1      49.905   8.389  17.264  0.00  0.00    +0.000 N 
ATOM      8  H   UNL     1      50.722   8.997  17.318  0.00  0.00    +0.000 HD
BRANCH   7   9
ATOM      9  C   UNL     1      50.032   7.200  18.144  0.00  0.00    +0.000 C 
BRANCH   9  11
ATOM     10  N   UNL     1      50.683   7.977  20.734  0.00  0.00    +0.000 NA
ATOM     11  C   UNL     1      50.388   7.624  19.560  0.00  0.00    +0.000 C 
ENDBRANCH   9  11
BRANCH   9  12
ATOM     12  C   UNL     1      48.683   6.436  18.210  0.00  0.00    +0.000 C 
BRANCH  12  13
ATOM     13  C   UNL     1      48.688   5.003  17.714  0.00  0.00    +0.000 A 
ATOM     14  C   UNL     1      47.687   4.570  16.829  0.00  0.00    +0.000 A 
ATOM     15  C   UNL     1      47.727   3.289  16.274  0.00  0.00    +0.000 A 
ATOM     16  C   UNL     1      48.764   2.420  16.601  0.00  0.00    +0.000 A 
ATOM     17  C   UNL     1      49.751   2.826  17.497  0.00  0.00    +0.000 A 
ATOM     18  C   UNL     1      49.716   4.110  18.052  0.00  0.00    +0.000 A 
ENDBRANCH  12  13
ENDBRANCH   9  12
ENDBRANCH   7   9
ENDBRANCH   1   7
BRANCH   4  19
ATOM     19  C   UNL     1      47.890   7.804  11.901  0.00  0.00    +0.000 C 
BRANCH  19  20
ATOM     20  N   UNL     1      47.135   6.587  11.734  0.00  0.00    +0.000 N 
ATOM     21  C   UNL     1      45.765   6.593  11.816  0.00  0.00    +0.000 C 
ATOM     22  O   UNL     1      45.133   7.631  11.994  0.00  0.00    +0.000 OA
ATOM     23  H   UNL     1      47.640   5.708  11.805  0.00  0.00    +0.000 HD
BRANCH  21  24
ATOM     24  C   UNL     1      45.078   5.308  11.625  0.00  0.00    +0.000 A 
ATOM     25  C   UNL     1      44.381   4.741  12.683  0.00  0.00    +0.000 A 
ATOM     26  S   UNL     1      43.635   3.258  12.297  0.00  0.00    +0.000 S 
ATOM     27  C   UNL     1      44.252   3.297  10.714  0.00  0.00    +0.000 A 
ATOM     28  N   UNL     1      44.016   2.278   9.846  0.00  0.00    +0.000 NA
ATOM     29  C   UNL     1      44.570   2.426   8.690  0.00  0.00    +0.000 A 
ATOM     30  N   UNL     1      45.325   3.502   8.313  0.00  0.00    +0.000 N 
ATOM     31  C   UNL     1      45.564   4.569   9.146  0.00  0.00    +0.000 A 
ATOM     32  O   UNL     1      46.206   5.545   8.769  0.00  0.00    +0.000 OA
ATOM     33  C   UNL     1      44.990   4.444  10.472  0.00  0.00    +0.000 A 
ATOM     34  H   UNL     1      45.715   3.561   7.388  0.00  0.00    +0.000 HD
ENDBRANCH  21  24
ENDBRANCH  19  20
ENDBRANCH   4  19
TORSDOF 8
ENDMDL
MODEL 9
REMARK VINA RESULT:    -6.790      3.622      8.607
REMARK INTER + INTRA:         -11.186
REMARK INTER:                  -9.033
REMARK INTRA:                  -2.153
REMARK UNBOUND:                -1.220
REMARK  Name = 
REMARK  8 active torsions:
REMARK  status: ('A' for Active; 'I' for Inactive)
REMARK    1  A    between atoms: C_2  and  C_3
REMARK    2  A    between atoms: C_3  and  C_4
REMARK    3  A    between atoms: C_3  and  N_11
REMARK    4  A    between atoms: C_4  and  C_5
REMARK    5  A    between atoms: N_11  and  C_12
REMARK    6  A    between atoms: C_15  and  C_16
REMARK    7  A    between atoms: C_16  and  N_17
REMARK    8  A    between atoms: C_18  and  C_20
REMARK                            x       y       z     vdW  Elec       q    Type
REMARK                         _______ _______ _______ _____ _____    ______ ____
ROOT
ATOM      1  C   UNL     1      50.526   7.015  18.234  0.00  0.00    +0.000 A 
ATOM      2  C   UNL     1      50.898   6.527  16.978  0.00  0.00    +0.000 A 
ATOM      3  C   UNL     1      50.269   6.961  15.804  0.00  0.00    +0.000 A 
ATOM      4  C   UNL     1      49.230   7.894  15.850  0.00  0.00    +0.000 A 
ATOM      5  C   UNL     1      48.801   8.340  17.104  0.00  0.00    +0.000 A 
ATOM      6  C   UNL     1      49.433   7.896  18.276  0.00  0.00    +0.000 A 
ENDROOT
BRANCH   1   7
ATOM      7  N   UNL     1      51.095   6.574  19.436  0.00  0.00    +0.000 N 
ATOM      8  H   UNL     1      52.011   6.995  19.588  0.00  0.00    +0.000 HD
BRANCH   7   9
ATOM      9  C   UNL     1      51.073   5.134  19.795  0.00  0.00    +0.000 C 
BRANCH   9  11
ATOM     10  N   UNL     1      52.247   4.737  22.285  0.00  0.00    +0.000 NA
ATOM     11  C   UNL     1      51.714   4.917  21.156  0.00  0.00    +0.000 C 
ENDBRANCH   9  11
BRANCH   9  12
ATOM     12  C   UNL     1      49.610   4.626  19.881  0.00  0.00    +0.000 C 
BRANCH  12  13
ATOM     13  C   UNL     1      48.994   4.105  18.596  0.00  0.00    +0.000 A 
ATOM     14  C   UNL     1      49.636   3.080  17.883  0.00  0.00    +0.000 A 
ATOM     15  C   UNL     1      49.039   2.510  16.756  0.00  0.00    +0.000 A 
ATOM     16  C   UNL     1      47.797   2.962  16.322  0.00  0.00    +0.000 A 
ATOM     17  C   UNL     1      47.159   3.997  17.004  0.00  0.00    +0.000 A 
ATOM     18  C   UNL     1      47.753   4.568  18.135  0.00  0.00    +0.000 A 
ENDBRANCH  12  13
ENDBRANCH   9  12
ENDBRANCH   7   9
ENDBRANCH   1   7
BRANCH   4  19
ATOM     19  C   UNL     1      48.572   8.370  14.581  0.00  0.00    +0.000 C 
BRANCH  19  20
ATOM     20  N   UNL     1      47.497   7.500  14.173  0.00  0.00    +0.000 N 
ATOM     21  C   UNL     1      47.713   6.496  13.262  0.00  0.00    +0.000 C 
ATOM     22  O   UNL     1      48.827   6.278  12.792  0.00  0.00    +0.000 OA
ATOM     23  H   UNL     1      46.549   7.798  14.379  0.00  0.00    +0.000 HD
BRANCH  21  24
ATOM     24  C   UNL     1      46.562   5.653  12.912  0.00  0.00    +0.000 A 
ATOM     25  C   UNL     1      46.626   4.283  13.130  0.00  0.00    +0.000 A 
ATOM     26  S   UNL     1      45.209   3.449  12.681  0.00  0.00    +0.000 S 
ATOM     27  C   UNL     1      44.473   4.882  12.138  0.00  0.00    +0.000 A 
ATOM     28  N   UNL     1      43.232   4.864  11.581  0.00  0.00    +0.000 NA
ATOM     29  C   UNL     1      42.811   6.018  11.187  0.00  0.00    +0.000 A 
ATOM     30  N   UNL     1      43.503   7.191  11.310  0.00  0.00    +0.000 N 
ATOM     31  C   UNL     1      44.745   7.261  11.894  0.00  0.00    +0.000 A 
ATOM     32  O   UNL     1      45.327   8.334  12.033  0.00  0.00    +0.000 OA
ATOM     33  C   UNL     1      45.285   5.988  12.329  0.00  0.00    +0.000 A 
ATOM     34  H   UNL     1      43.106   8.060  10.995  0.00  0.00    +0.000 HD
ENDBRANCH  21  24
ENDBRANCH  19  20
ENDBRANCH   4  19
TORSDOF 8
ENDMDL
