MODEL 1
REMARK VINA RESULT:    -5.823      0.000      0.000
REMARK INTER + INTRA:          -7.890
REMARK INTER:                  -7.525
REMARK INTRA:                  -0.366
REMARK UNBOUND:                -0.366
REMARK  Name = 
REMARK  6 active torsions:
REMARK  status: ('A' for Active; 'I' for Inactive)
REMARK    1  A    between atoms: N_1  and  C_2
REMARK    2  A    between atoms: C_2  and  C_3
REMARK    3  A    between atoms: C_7  and  C_8
REMARK    4  A    between atoms: C_9  and  C_10
REMARK    5  A    between atoms: C_15  and  C_16
REMARK    6  A    between atoms: C_16  and  N_17
REMARK                            x       y       z     vdW  Elec       q    Type
REMARK                         _______ _______ _______ _____ _____    ______ ____
ROOT
ATOM      1  C   UNL     1      46.959   4.794  14.323  0.00  0.00    +0.000 C 
ATOM      2  C   UNL     1      46.741   3.995  15.381  0.00  0.00    +0.000 C 
ENDROOT
BRANCH   2   3
ATOM      3  C   UNL     1      47.699   3.826  16.486  0.00  0.00    +0.000 A 
ATOM      4  C   UNL     1      48.752   2.905  16.422  0.00  0.00    +0.000 A 
ATOM      5  C   UNL     1      49.627   2.763  17.499  0.00  0.00    +0.000 A 
ATOM      6 CL   UNL     1      50.928   1.640  17.393  0.00  0.00    +0.000 Cl
ATOM      7  C   UNL     1      49.461   3.524  18.652  0.00  0.00    +0.000 A 
ATOM      8  C   UNL     1      48.403   4.439  18.749  0.00  0.00    +0.000 A 
ATOM      9  C   UNL     1      47.524   4.576  17.661  0.00  0.00    +0.000 A 
BRANCH   8  10
ATOM     10  C   UNL     1      48.239   5.281  19.987  0.00  0.00    +0.000 C 
BRANCH  10  11
ATOM     11  N   UNL     1      48.095   4.458  21.182  0.00  0.00    +0.000 NA
ATOM     12  H   UNL     1      47.898   3.498  20.901  0.00  0.00    +0.000 HD
ATOM     13  H   UNL     1      47.283   4.774  21.709  0.00  0.00    +0.000 HD
ENDBRANCH  10  11
ENDBRANCH   8  10
ENDBRANCH   2   3
BRANCH   1  18
ATOM     14  C   UNL     1      44.543   4.150  11.465  0.00  0.00    +0.000 A 
ATOM     15  C   UNL     1      44.369   5.471  11.065  0.00  0.00    +0.000 A 
ATOM     16  N   UNL     1      44.966   6.527  11.657  0.00  0.00    +0.000 NA
ATOM     17  C   UNL     1      45.777   6.253  12.706  0.00  0.00    +0.000 A 
ATOM     18  C   UNL     1      46.022   4.975  13.207  0.00  0.00    +0.000 A 
ATOM     19  C   UNL     1      45.395   3.912  12.552  0.00  0.00    +0.000 A 
BRANCH  14  20
ATOM     20  C   UNL     1      43.863   3.023  10.746  0.00  0.00    +0.000 C 
BRANCH  20  21
ATOM     21  N   UNL     1      43.063   2.212  11.659  0.00  0.00    +0.000 NA
ATOM     22  H   UNL     1      42.106   2.558  11.662  0.00  0.00    +0.000 HD
ATOM     23  H   UNL     1      43.417   2.332  12.607  0.00  0.00    +0.000 HD
ENDBRANCH  20  21
ENDBRANCH  14  20
ENDBRANCH   1  18
TORSDOF 6
ENDMDL
MODEL 2
REMARK VINA RESULT:    -5.810      2.831      7.924
REMARK INTER + INTRA:          -7.874
REMARK INTER:                  -7.510
REMARK INTRA:                  -0.364
REMARK UNBOUND:                -0.366
REMARK  Name = 
REMARK  6 active torsions:
REMARK  status: ('A' for Active; 'I' for Inactive)
REMARK    1  A    between atoms: N_1  and  C_2
REMARK    2  A    between atoms: C_2  and  C_3
REMARK    3  A    between atoms: C_7  and  C_8
REMARK    4  A    between atoms: C_9  and  C_10
REMARK    5  A    between atoms: C_15  and  C_16
REMARK    6  A    between atoms: C_16  and  N_17
REMARK                            x       y       z     vdW  Elec       q    Type
REMARK                         _______ _______ _______ _____ _____    ______ ____
ROOT
ATOM      1  C   UNL     1      46.764   4.022  15.208  0.00  0.00    +0.000 C 
ATOM      2  C   UNL     1      47.007   4.887  14.209  0.00  0.00    +0.000 C 
ENDROOT
BRANCH   2   3
ATOM      3  C   UNL     1      46.052   5.168  13.124  0.00  0.00    +0.000 A 
ATOM      4  C   UNL     1      45.721   6.475  12.746  0.00  0.00    +0.000 A 
ATOM      5  C   UNL     1      44.798   6.698  11.724  0.00  0.00    +0.000 A 
ATOM      6 CL   UNL     1      44.418   8.311  11.260  0.00  0.00    +0.000 Cl
ATOM      7  C   UNL     1      44.187   5.629  11.076  0.00  0.00    +0.000 A 
ATOM      8  C   UNL     1      44.487   4.311  11.449  0.00  0.00    +0.000 A 
ATOM      9  C   UNL     1      45.416   4.093  12.480  0.00  0.00    +0.000 A 
BRANCH   8  10
ATOM     10  C   UNL     1      43.844   3.153  10.730  0.00  0.00    +0.000 C 
BRANCH  10  11
ATOM     11  N   UNL     1      43.063   2.323  11.638  0.00  0.00    +0.000 NA
ATOM     12  H   UNL     1      42.179   2.789  11.836  0.00  0.00    +0.000 HD
ATOM     13  H   UNL     1      43.553   2.248  12.527  0.00  0.00    +0.000 HD
ENDBRANCH  10  11
ENDBRANCH   8  10
ENDBRANCH   2   3
BRANCH   1  18
ATOM     14  C   UNL     1      48.682   4.123  18.485  0.00  0.00    +0.000 A 
ATOM     15  C   UNL     1      49.587   3.106  18.203  0.00  0.00    +0.000 A 
ATOM     16  N   UNL     1      49.605   2.404  17.050  0.00  0.00    +0.000 NA
ATOM     17  C   UNL     1      48.668   2.732  16.129  0.00  0.00    +0.000 A 
ATOM     18  C   UNL     1      47.701   3.722  16.298  0.00  0.00    +0.000 A 
ATOM     19  C   UNL     1      47.733   4.433  17.501  0.00  0.00    +0.000 A 
BRANCH  14  20
ATOM     20  C   UNL     1      48.733   4.876  19.781  0.00  0.00    +0.000 C 
BRANCH  20  21
ATOM     21  N   UNL     1      48.458   4.003  20.918  0.00  0.00    +0.000 NA
ATOM     22  H   UNL     1      47.531   4.210  21.283  0.00  0.00    +0.000 HD
ATOM     23  H   UNL     1      49.116   4.216  21.667  0.00  0.00    +0.000 HD
ENDBRANCH  20  21
ENDBRANCH  14  20
ENDBRANCH   1  18
TORSDOF 6
ENDMDL
MODEL 3
REMARK VINA RESULT:    -5.744      2.955      7.827
REMARK INTER + INTRA:          -7.789
REMARK INTER:                  -7.414
REMARK INTRA:                  -0.375
REMARK UNBOUND:                -0.366
REMARK  Name = 
REMARK  6 active torsions:
REMARK  status: ('A' for Active; 'I' for Inactive)
REMARK    1  A    between atoms: N_1  and  C_2
REMARK    2  A    between atoms: C_2  and  C_3
REMARK    3  A    between atoms: C_7  and  C_8
REMARK    4  A    between atoms: C_9  and  C_10
REMARK    5  A    between atoms: C_15  and  C_16
REMARK    6  A    between atoms: C_16  and  N_17
REMARK                            x       y       z     vdW  Elec       q    Type
REMARK                         _______ _______ _______ _____ _____    ______ ____
ROOT
ATOM      1  C   UNL     1      46.751   4.133  15.243  0.00  0.00    +0.000 C 
ATOM      2  C   UNL     1      46.975   4.998  14.239  0.00  0.00    +0.000 C 
ENDROOT
BRANCH   2   3
ATOM      3  C   UNL     1      46.025   5.232  13.139  0.00  0.00    +0.000 A 
ATOM      4  C   UNL     1      45.670   6.523  12.726  0.00  0.00    +0.000 A 
ATOM      5  C   UNL     1      44.752   6.702  11.691  0.00  0.00    +0.000 A 
ATOM      6 CL   UNL     1      44.343   8.295  11.184  0.00  0.00    +0.000 Cl
ATOM      7  C   UNL     1      44.170   5.605  11.064  0.00  0.00    +0.000 A 
ATOM      8  C   UNL     1      44.493   4.303  11.471  0.00  0.00    +0.000 A 
ATOM      9  C   UNL     1      45.417   4.130  12.515  0.00  0.00    +0.000 A 
BRANCH   8  10
ATOM     10  C   UNL     1      43.882   3.115  10.774  0.00  0.00    +0.000 C 
BRANCH  10  11
ATOM     11  N   UNL     1      43.064   2.321  11.682  0.00  0.00    +0.000 NA
ATOM     12  H   UNL     1      42.624   1.566  11.158  0.00  0.00    +0.000 HD
ATOM     13  H   UNL     1      42.306   2.899  12.041  0.00  0.00    +0.000 HD
ENDBRANCH  10  11
ENDBRANCH   8  10
ENDBRANCH   2   3
BRANCH   1  18
ATOM     14  C   UNL     1      49.569   2.738  17.373  0.00  0.00    +0.000 A 
ATOM     15  C   UNL     1      49.286   3.440  18.541  0.00  0.00    +0.000 A 
ATOM     16  N   UNL     1      48.270   4.319  18.670  0.00  0.00    +0.000 NA
ATOM     17  C   UNL     1      47.495   4.512  17.576  0.00  0.00    +0.000 A 
ATOM     18  C   UNL     1      47.685   3.879  16.348  0.00  0.00    +0.000 A 
ATOM     19  C   UNL     1      48.738   2.966  16.267  0.00  0.00    +0.000 A 
BRANCH  14  20
ATOM     20  C   UNL     1      50.704   1.760  17.307  0.00  0.00    +0.000 C 
BRANCH  20  21
ATOM     21  N   UNL     1      51.840   2.203  18.109  0.00  0.00    +0.000 NA
ATOM     22  H   UNL     1      51.571   2.217  19.091  0.00  0.00    +0.000 HD
ATOM     23  H   UNL     1      52.067   3.165  17.859  0.00  0.00    +0.000 HD
ENDBRANCH  20  21
ENDBRANCH  14  20
ENDBRANCH   1  18
TORSDOF 6
ENDMDL
MODEL 4
REMARK VINA RESULT:    -5.703      1.809      2.384
REMARK INTER + INTRA:          -7.736
REMARK INTER:                  -7.351
REMARK INTRA:                  -0.385
REMARK UNBOUND:                -0.366
REMARK  Name = 
REMARK  6 active torsions:
REMARK  status: ('A' for Active; 'I' for Inactive)
REMARK    1  A    between atoms: N_1  and  C_2
REMARK    2  A    between atoms: C_2  and  C_3
REMARK    3  A    between atoms: C_7  and  C_8
REMARK    4  A    between atoms: C_9  and  C_10
REMARK    5  A    between atoms: C_15  and  C_16
REMARK    6  A    between atoms: C_16  and  N_17
REMARK                            x       y       z     vdW  Elec       q    Type
REMARK                         _______ _______ _______ _____ _____    ______ ____
ROOT
ATOM      1  C   UNL     1      47.020   4.754  14.127  0.00  0.00    +0.000 C 
ATOM      2  C   UNL     1      46.763   3.940  15.166  0.00  0.00    +0.000 C 
ENDROOT
BRANCH   2   3
ATOM      3  C   UNL     1      47.636   3.827  16.346  0.00  0.00    +0.000 A 
ATOM      4  C   UNL     1      47.439   4.606  17.493  0.00  0.00    +0.000 A 
ATOM      5  C   UNL     1      48.300   4.480  18.584  0.00  0.00    +0.000 A 
ATOM      6 CL   UNL     1      48.030   5.432  19.992  0.00  0.00    +0.000 Cl
ATOM      7  C   UNL     1      49.369   3.591  18.543  0.00  0.00    +0.000 A 
ATOM      8  C   UNL     1      49.599   2.813  17.400  0.00  0.00    +0.000 A 
ATOM      9  C   UNL     1      48.729   2.946  16.304  0.00  0.00    +0.000 A 
BRANCH   8  10
ATOM     10  C   UNL     1      50.742   1.831  17.366  0.00  0.00    +0.000 C 
BRANCH  10  11
ATOM     11  N   UNL     1      51.884   2.309  18.135  0.00  0.00    +0.000 NA
ATOM     12  H   UNL     1      52.723   1.825  17.818  0.00  0.00    +0.000 HD
ATOM     13  H   UNL     1      51.759   2.056  19.113  0.00  0.00    +0.000 HD
ENDBRANCH  10  11
ENDBRANCH   8  10
ENDBRANCH   2   3
BRANCH   1  18
ATOM     14  C   UNL     1      44.659   3.999  11.249  0.00  0.00    +0.000 A 
ATOM     15  C   UNL     1      44.699   5.250  10.642  0.00  0.00    +0.000 A 
ATOM     16  N   UNL     1      45.419   6.295  11.103  0.00  0.00    +0.000 NA
ATOM     17  C   UNL     1      46.135   6.083  12.233  0.00  0.00    +0.000 A 
ATOM     18  C   UNL     1      46.167   4.881  12.938  0.00  0.00    +0.000 A 
ATOM     19  C   UNL     1      45.420   3.823  12.413  0.00  0.00    +0.000 A 
BRANCH  14  20
ATOM     20  C   UNL     1      43.853   2.876  10.668  0.00  0.00    +0.000 C 
BRANCH  20  21
ATOM     21  N   UNL     1      43.074   2.190  11.694  0.00  0.00    +0.000 NA
ATOM     22  H   UNL     1      42.626   2.881  12.293  0.00  0.00    +0.000 HD
ATOM     23  H   UNL     1      43.707   1.660  12.292  0.00  0.00    +0.000 HD
ENDBRANCH  20  21
ENDBRANCH  14  20
ENDBRANCH   1  18
TORSDOF 6
ENDMDL
MODEL 5
REMARK VINA RESULT:    -5.602      5.683      8.409
REMARK INTER + INTRA:          -7.605
REMARK INTER:                  -7.200
REMARK INTRA:                  -0.405
REMARK UNBOUND:                -0.366
REMARK  Name = 
REMARK  6 active torsions:
REMARK  status: ('A' for Active; 'I' for Inactive)
REMARK    1  A    between atoms: N_1  and  C_2
REMARK    2  A    between atoms: C_2  and  C_3
REMARK    3  A    between atoms: C_7  and  C_8
REMARK    4  A    between atoms: C_9  and  C_10
REMARK    5  A    between atoms: C_15  and  C_16
REMARK    6  A    between atoms: C_16  and  N_17
REMARK                            x       y       z     vdW  Elec       q    Type
REMARK                         _______ _______ _______ _____ _____    ______ ____
ROOT
ATOM      1  C   UNL     1      47.218   6.870  11.656  0.00  0.00    +0.000 C 
ATOM      2  C   UNL     1      45.976   6.746  11.159  0.00  0.00    +0.000 C 
ENDROOT
BRANCH   2   3
ATOM      3  C   UNL     1      45.432   5.484  10.631  0.00  0.00    +0.000 A 
ATOM      4  C   UNL     1      44.637   4.634  11.410  0.00  0.00    +0.000 A 
ATOM      5  C   UNL     1      44.156   3.438  10.878  0.00  0.00    +0.000 A 
ATOM      6 CL   UNL     1      43.163   2.417  11.845  0.00  0.00    +0.000 Cl
ATOM      7  C   UNL     1      44.467   3.068   9.574  0.00  0.00    +0.000 A 
ATOM      8  C   UNL     1      45.277   3.891   8.779  0.00  0.00    +0.000 A 
ATOM      9  C   UNL     1      45.760   5.094   9.322  0.00  0.00    +0.000 A 
BRANCH   8  10
ATOM     10  C   UNL     1      45.592   3.502   7.358  0.00  0.00    +0.000 C 
BRANCH  10  11
ATOM     11  N   UNL     1      46.813   4.142   6.884  0.00  0.00    +0.000 NA
ATOM     12  H   UNL     1      47.245   4.646   7.657  0.00  0.00    +0.000 HD
ATOM     13  H   UNL     1      46.574   4.842   6.184  0.00  0.00    +0.000 HD
ENDBRANCH  10  11
ENDBRANCH   8  10
ENDBRANCH   2   3
BRANCH   1  18
ATOM     14  C   UNL     1      47.815  10.530  12.475  0.00  0.00    +0.000 A 
ATOM     15  C   UNL     1      49.023  10.377  13.148  0.00  0.00    +0.000 A 
ATOM     16  N   UNL     1      49.632   9.190  13.353  0.00  0.00    +0.000 NA
ATOM     17  C   UNL     1      49.002   8.095  12.864  0.00  0.00    +0.000 A 
ATOM     18  C   UNL     1      47.785   8.118  12.183  0.00  0.00    +0.000 A 
ATOM     19  C   UNL     1      47.201   9.371  11.981  0.00  0.00    +0.000 A 
BRANCH  14  20
ATOM     20  C   UNL     1      47.205  11.884  12.267  0.00  0.00    +0.000 C 
BRANCH  20  21
ATOM     21  N   UNL     1      45.748  11.814  12.222  0.00  0.00    +0.000 NA
ATOM     22  H   UNL     1      45.456  11.525  11.291  0.00  0.00    +0.000 HD
ATOM     23  H   UNL     1      45.367  12.748  12.367  0.00  0.00    +0.000 HD
ENDBRANCH  20  21
ENDBRANCH  14  20
ENDBRANCH   1  18
TORSDOF 6
ENDMDL
MODEL 6
REMARK VINA RESULT:    -5.535      5.859      7.372
REMARK INTER + INTRA:          -7.519
REMARK INTER:                  -7.177
REMARK INTRA:                  -0.342
REMARK UNBOUND:                -0.366
REMARK  Name = 
REMARK  6 active torsions:
REMARK  status: ('A' for Active; 'I' for Inactive)
REMARK    1  A    between atoms: N_1  and  C_2
REMARK    2  A    between atoms: C_2  and  C_3
REMARK    3  A    between atoms: C_7  and  C_8
REMARK    4  A    between atoms: C_9  and  C_10
REMARK    5  A    between atoms: C_15  and  C_16
REMARK    6  A    between atoms: C_16  and  N_17
REMARK                            x       y       z     vdW  Elec       q    Type
REMARK                         _______ _______ _______ _____ _____    ______ ____
ROOT
ATOM      1  C   UNL     1      45.711   5.442   9.582  0.00  0.00    +0.000 C 
ATOM      2  C   UNL     1      45.550   5.663  10.898  0.00  0.00    +0.000 C 
ENDROOT
BRANCH   2   3
ATOM      3  C   UNL     1      45.516   7.007  11.499  0.00  0.00    +0.000 A 
ATOM      4  C   UNL     1      46.368   7.373  12.548  0.00  0.00    +0.000 A 
ATOM      5  C   UNL     1      46.292   8.650  13.103  0.00  0.00    +0.000 A 
ATOM      6 CL   UNL     1      47.361   9.088  14.378  0.00  0.00    +0.000 Cl
ATOM      7  C   UNL     1      45.363   9.572  12.631  0.00  0.00    +0.000 A 
ATOM      8  C   UNL     1      44.485   9.224  11.595  0.00  0.00    +0.000 A 
ATOM      9  C   UNL     1      44.566   7.935  11.042  0.00  0.00    +0.000 A 
BRANCH   8  10
ATOM     10  C   UNL     1      43.496  10.232  11.066  0.00  0.00    +0.000 C 
BRANCH  10  11
ATOM     11  N   UNL     1      42.759  10.878  12.144  0.00  0.00    +0.000 NA
ATOM     12  H   UNL     1      42.400  10.163  12.776  0.00  0.00    +0.000 HD
ATOM     13  H   UNL     1      41.945  11.351  11.757  0.00  0.00    +0.000 HD
ENDBRANCH  10  11
ENDBRANCH   8  10
ENDBRANCH   2   3
BRANCH   1  18
ATOM     14  C   UNL     1      46.392   2.563   7.200  0.00  0.00    +0.000 A 
ATOM     15  C   UNL     1      45.654   1.590   7.866  0.00  0.00    +0.000 A 
ATOM     16  N   UNL     1      44.976   1.806   9.014  0.00  0.00    +0.000 NA
ATOM     17  C   UNL     1      45.040   3.057   9.527  0.00  0.00    +0.000 A 
ATOM     18  C   UNL     1      45.754   4.112   8.959  0.00  0.00    +0.000 A 
ATOM     19  C   UNL     1      46.425   3.846   7.764  0.00  0.00    +0.000 A 
BRANCH  14  20
ATOM     20  C   UNL     1      47.104   2.257   5.916  0.00  0.00    +0.000 C 
BRANCH  20  21
ATOM     21  N   UNL     1      48.540   2.488   6.033  0.00  0.00    +0.000 NA
ATOM     22  H   UNL     1      48.796   3.297   5.469  0.00  0.00    +0.000 HD
ATOM     23  H   UNL     1      49.038   1.692   5.636  0.00  0.00    +0.000 HD
ENDBRANCH  20  21
ENDBRANCH  14  20
ENDBRANCH   1  18
TORSDOF 6
ENDMDL
MODEL 7
REMARK VINA RESULT:    -5.442      2.845      7.719
REMARK INTER + INTRA:          -7.399
REMARK INTER:                  -7.044
REMARK INTRA:                  -0.355
REMARK UNBOUND:                -0.366
REMARK  Name = 
REMARK  6 active torsions:
REMARK  status: ('A' for Active; 'I' for Inactive)
REMARK    1  A    between atoms: N_1  and  C_2
REMARK    2  A    between atoms: C_2  and  C_3
REMARK    3  A    between atoms: C_7  and  C_8
REMARK    4  A    between atoms: C_9  and  C_10
REMARK    5  A    between atoms: C_15  and  C_16
REMARK    6  A    between atoms: C_16  and  N_17
REMARK                            x       y       z     vdW  Elec       q    Type
REMARK                         _______ _______ _______ _____ _____    ______ ____
ROOT
ATOM      1  C   UNL     1      46.710   4.231  15.337  0.00  0.00    +0.000 C 
ATOM      2  C   UNL     1      47.048   4.595  14.088  0.00  0.00    +0.000 C 
ENDROOT
BRANCH   2   3
ATOM      3  C   UNL     1      46.069   4.813  13.010  0.00  0.00    +0.000 A 
ATOM      4  C   UNL     1      45.546   3.755  12.256  0.00  0.00    +0.000 A 
ATOM      5  C   UNL     1      44.634   4.006  11.232  0.00  0.00    +0.000 A 
ATOM      6 CL   UNL     1      43.987   2.692  10.329  0.00  0.00    +0.000 Cl
ATOM      7  C   UNL     1      44.240   5.308  10.938  0.00  0.00    +0.000 A 
ATOM      8  C   UNL     1      44.764   6.386  11.665  0.00  0.00    +0.000 A 
ATOM      9  C   UNL     1      45.684   6.126  12.695  0.00  0.00    +0.000 A 
BRANCH   8  10
ATOM     10  C   UNL     1      44.317   7.794  11.363  0.00  0.00    +0.000 C 
BRANCH  10  11
ATOM     11  N   UNL     1      42.911   7.842  10.984  0.00  0.00    +0.000 NA
ATOM     12  H   UNL     1      42.357   7.381  11.705  0.00  0.00    +0.000 HD
ATOM     13  H   UNL     1      42.776   7.304  10.131  0.00  0.00    +0.000 HD
ENDBRANCH  10  11
ENDBRANCH   8  10
ENDBRANCH   2   3
BRANCH   1  18
ATOM     14  C   UNL     1      49.567   2.878  17.441  0.00  0.00    +0.000 A 
ATOM     15  C   UNL     1      49.318   3.617  18.593  0.00  0.00    +0.000 A 
ATOM     16  N   UNL     1      48.312   4.508  18.720  0.00  0.00    +0.000 NA
ATOM     17  C   UNL     1      47.514   4.675  17.639  0.00  0.00    +0.000 A 
ATOM     18  C   UNL     1      47.668   4.003  16.427  0.00  0.00    +0.000 A 
ATOM     19  C   UNL     1      48.712   3.078  16.349  0.00  0.00    +0.000 A 
BRANCH  14  20
ATOM     20  C   UNL     1      50.693   1.888  17.379  0.00  0.00    +0.000 C 
BRANCH  20  21
ATOM     21  N   UNL     1      51.836   2.327  18.173  0.00  0.00    +0.000 NA
ATOM     22  H   UNL     1      52.235   1.525  18.656  0.00  0.00    +0.000 HD
ATOM     23  H   UNL     1      51.512   2.967  18.896  0.00  0.00    +0.000 HD
ENDBRANCH  20  21
ENDBRANCH  14  20
ENDBRANCH   1  18
TORSDOF 6
ENDMDL
MODEL 8
REMARK VINA RESULT:    -5.292      5.216      6.644
REMARK INTER + INTRA:          -7.204
REMARK INTER:                  -6.812
REMARK INTRA:                  -0.392
REMARK UNBOUND:                -0.366
REMARK  Name = 
REMARK  6 active torsions:
REMARK  status: ('A' for Active; 'I' for Inactive)
REMARK    1  A    between atoms: N_1  and  C_2
REMARK    2  A    between atoms: C_2  and  C_3
REMARK    3  A    between atoms: C_7  and  C_8
REMARK    4  A    between atoms: C_9  and  C_10
REMARK    5  A    between atoms: C_15  and  C_16
REMARK    6  A    between atoms: C_16  and  N_17
REMARK                            x       y       z     vdW  Elec       q    Type
REMARK                         _______ _______ _______ _____ _____    ______ ____
ROOT
ATOM      1  C   UNL     1      46.127   6.798  11.802  0.00  0.00    +0.000 C 
ATOM      2  C   UNL     1      47.460   6.964  11.755  0.00  0.00    +0.000 C 
ENDROOT
BRANCH   2   3
ATOM      3  C   UNL     1      48.118   8.281  11.779  0.00  0.00    +0.000 A 
ATOM      4  C   UNL     1      49.509   8.418  11.686  0.00  0.00    +0.000 A 
ATOM      5  C   UNL     1      50.095   9.682  11.731  0.00  0.00    +0.000 A 
ATOM      6 CL   UNL     1      51.804   9.832  11.594  0.00  0.00    +0.000 Cl
ATOM      7  C   UNL     1      49.309  10.821  11.879  0.00  0.00    +0.000 A 
ATOM      8  C   UNL     1      47.917  10.710  11.994  0.00  0.00    +0.000 A 
ATOM      9  C   UNL     1      47.333   9.433  11.950  0.00  0.00    +0.000 A 
BRANCH   8  10
ATOM     10  C   UNL     1      47.064  11.946  12.129  0.00  0.00    +0.000 C 
BRANCH  10  11
ATOM     11  N   UNL     1      45.646  11.617  12.189  0.00  0.00    +0.000 NA
ATOM     12  H   UNL     1      45.355  11.237  11.290  0.00  0.00    +0.000 HD
ATOM     13  H   UNL     1      45.110  12.471  12.326  0.00  0.00    +0.000 HD
ENDBRANCH  10  11
ENDBRANCH   8  10
ENDBRANCH   2   3
BRANCH   1  18
ATOM     14  C   UNL     1      44.567   3.535  10.642  0.00  0.00    +0.000 A 
ATOM     15  C   UNL     1      44.063   3.121  11.871  0.00  0.00    +0.000 A 
ATOM     16  N   UNL     1      44.204   3.814  13.021  0.00  0.00    +0.000 NA
ATOM     17  C   UNL     1      44.886   4.981  12.943  0.00  0.00    +0.000 A 
ATOM     18  C   UNL     1      45.448   5.496  11.775  0.00  0.00    +0.000 A 
ATOM     19  C   UNL     1      45.262   4.752  10.607  0.00  0.00    +0.000 A 
BRANCH  14  20
ATOM     20  C   UNL     1      44.355   2.723   9.399  0.00  0.00    +0.000 C 
BRANCH  20  21
ATOM     21  N   UNL     1      45.412   1.733   9.220  0.00  0.00    +0.000 NA
ATOM     22  H   UNL     1      45.293   0.989   9.906  0.00  0.00    +0.000 HD
ATOM     23  H   UNL     1      46.311   2.167   9.420  0.00  0.00    +0.000 HD
ENDBRANCH  20  21
ENDBRANCH  14  20
ENDBRANCH   1  18
TORSDOF 6
ENDMDL
MODEL 9
REMARK VINA RESULT:    -5.250      4.756      7.096
REMARK INTER + INTRA:          -7.150
REMARK INTER:                  -6.734
REMARK INTRA:                  -0.416
REMARK UNBOUND:                -0.366
REMARK  Name = 
REMARK  6 active torsions:
REMARK  status: ('A' for Active; 'I' for Inactive)
REMARK    1  A    between atoms: N_1  and  C_2
REMARK    2  A    between atoms: C_2  and  C_3
REMARK    3  A    between atoms: C_7  and  C_8
REMARK    4  A    between atoms: C_9  and  C_10
REMARK    5  A    between atoms: C_15  and  C_16
REMARK    6  A    between atoms: C_16  and  N_17
REMARK                            x       y       z     vdW  Elec       q    Type
REMARK                         _______ _______ _______ _____ _____    ______ ____
ROOT
ATOM      1  C   UNL     1      45.141   8.855  12.043  0.00  0.00    +0.000 C 
ATOM      2  C   UNL     1      44.608   7.796  11.410  0.00  0.00    +0.000 C 
ENDROOT
BRANCH   2   3
ATOM      3  C   UNL     1      44.940   6.400  11.737  0.00  0.00    +0.000 A 
ATOM      4  C   UNL     1      44.485   5.327  10.960  0.00  0.00    +0.000 A 
ATOM      5  C   UNL     1      44.807   4.017  11.314  0.00  0.00    +0.000 A 
ATOM      6 CL   UNL     1      44.256   2.713  10.335  0.00  0.00    +0.000 Cl
ATOM      7  C   UNL     1      45.572   3.758  12.447  0.00  0.00    +0.000 A 
ATOM      8  C   UNL     1      46.023   4.813  13.253  0.00  0.00    +0.000 A 
ATOM      9  C   UNL     1      45.693   6.130  12.891  0.00  0.00    +0.000 A 
BRANCH   8  10
ATOM     10  C   UNL     1      46.873   4.533  14.465  0.00  0.00    +0.000 C 
BRANCH  10  11
ATOM     11  N   UNL     1      47.390   3.171  14.456  0.00  0.00    +0.000 NA
ATOM     12  H   UNL     1      48.409   3.202  14.434  0.00  0.00    +0.000 HD
ATOM     13  H   UNL     1      47.099   2.708  13.597  0.00  0.00    +0.000 HD
ENDBRANCH  10  11
ENDBRANCH   8  10
ENDBRANCH   2   3
BRANCH   1  18
ATOM     14  C   UNL     1      43.356  12.030  10.967  0.00  0.00    +0.000 A 
ATOM     15  C   UNL     1      44.433  12.902  11.092  0.00  0.00    +0.000 A 
ATOM     16  N   UNL     1      45.665  12.532  11.500  0.00  0.00    +0.000 NA
ATOM     17  C   UNL     1      45.833  11.223  11.805  0.00  0.00    +0.000 A 
ATOM     18  C   UNL     1      44.830  10.257  11.732  0.00  0.00    +0.000 A 
ATOM     19  C   UNL     1      43.576  10.683  11.288  0.00  0.00    +0.000 A 
BRANCH  14  20
ATOM     20  C   UNL     1      42.018  12.508  10.487  0.00  0.00    +0.000 C 
BRANCH  20  21
ATOM     21  N   UNL     1      41.320  11.473   9.731  0.00  0.00    +0.000 NA
ATOM     22  H   UNL     1      40.347  11.439  10.030  0.00  0.00    +0.000 HD
ATOM     23  H   UNL     1      41.723  10.566   9.961  0.00  0.00    +0.000 HD
ENDBRANCH  20  21
ENDBRANCH  14  20
ENDBRANCH   1  18
TORSDOF 6
ENDMDL
