MODEL 1
REMARK VINA RESULT:    -8.795      0.000      0.000
REMARK INTER + INTRA:         -13.559
REMARK INTER:                 -12.394
REMARK INTRA:                  -1.165
REMARK UNBOUND:                -1.165
REMARK  Name = 
REMARK  8 active torsions:
REMARK  status: ('A' for Active; 'I' for Inactive)
REMARK    1  A    between atoms: C_1  and  C_2
REMARK    2  A    between atoms: C_2  and  N_3
REMARK    3  A    between atoms: C_2  and  C_25
REMARK    4  A    between atoms: N_3  and  C_4
REMARK    5  A    between atoms: C_4  and  C_5
REMARK    6  A    between atoms: C_9  and  C_10
REMARK    7  A    between atoms: C_10  and  N_11
REMARK    8  A    between atoms: C_12  and  C_14
REMARK                            x       y       z     vdW  Elec       q    Type
REMARK                         _______ _______ _______ _____ _____    ______ ____
ROOT
ATOM      1  C   UNL     1      45.836   5.863  11.720  0.00  0.00    +0.000 A 
ATOM      2  C   UNL     1      46.772   6.905  11.659  0.00  0.00    +0.000 A 
ATOM      3  C   UNL     1      47.749   7.041  12.643  0.00  0.00    +0.000 A 
ATOM      4  C   UNL     1      47.775   6.164  13.725  0.00  0.00    +0.000 A 
ATOM      5  C   UNL     1      46.819   5.147  13.833  0.00  0.00    +0.000 A 
ATOM      6  C   UNL     1      45.895   4.965  12.796  0.00  0.00    +0.000 A 
ENDROOT
BRANCH   1   7
ATOM      7  C   UNL     1      44.758   5.745  10.667  0.00  0.00    +0.000 C 
BRANCH   7   8
ATOM      8  N   UNL     1      45.301   5.175   9.434  0.00  0.00    +0.000 NA
ATOM      9  H   UNL     1      45.212   5.867   8.690  0.00  0.00    +0.000 HD
BRANCH   8  11
ATOM     10  C   UNL     1      44.053   3.146  10.167  0.00  0.00    +0.000 C 
ATOM     11  C   UNL     1      44.632   3.946   8.995  0.00  0.00    +0.000 C 
BRANCH  11  12
ATOM     12  C   UNL     1      45.590   3.043   8.234  0.00  0.00    +0.000 A 
ATOM     13  C   UNL     1      46.487   3.519   7.269  0.00  0.00    +0.000 A 
ATOM     14  C   UNL     1      47.408   2.652   6.687  0.00  0.00    +0.000 A 
ATOM     15  C   UNL     1      47.410   1.328   7.092  0.00  0.00    +0.000 A 
ATOM     16  N   UNL     1      46.554   0.822   8.006  0.00  0.00    +0.000 NA
ATOM     17  C   UNL     1      45.671   1.688   8.553  0.00  0.00    +0.000 A 
ENDBRANCH  11  12
ENDBRANCH   8  11
ENDBRANCH   7   8
ENDBRANCH   1   7
BRANCH   5  18
ATOM     18  C   UNL     1      46.746   4.300  15.071  0.00  0.00    +0.000 C 
BRANCH  18  19
ATOM     19  N   UNL     1      47.979   4.312  15.806  0.00  0.00    +0.000 N 
ATOM     20  C   UNL     1      48.016   4.424  17.169  0.00  0.00    +0.000 C 
ATOM     21  O   UNL     1      47.004   4.557  17.850  0.00  0.00    +0.000 OA
ATOM     22  H   UNL     1      48.827   4.449  15.268  0.00  0.00    +0.000 HD
BRANCH  20  23
ATOM     23  C   UNL     1      49.339   4.293  17.786  0.00  0.00    +0.000 A 
ATOM     24  C   UNL     1      49.792   5.278  18.653  0.00  0.00    +0.000 A 
ATOM     25  S   UNL     1      51.333   4.956  19.305  0.00  0.00    +0.000 S 
ATOM     26  C   UNL     1      51.463   3.508  18.425  0.00  0.00    +0.000 A 
ATOM     27  N   UNL     1      52.579   2.737  18.511  0.00  0.00    +0.000 NA
ATOM     28  C   UNL     1      52.550   1.673  17.778  0.00  0.00    +0.000 A 
ATOM     29  N   UNL     1      51.504   1.306  16.975  0.00  0.00    +0.000 N 
ATOM     30  C   UNL     1      50.333   2.027  16.892  0.00  0.00    +0.000 A 
ATOM     31  O   UNL     1      49.383   1.614  16.243  0.00  0.00    +0.000 OA
ATOM     32  C   UNL     1      50.332   3.253  17.670  0.00  0.00    +0.000 A 
ATOM     33  H   UNL     1      51.532   0.448  16.447  0.00  0.00    +0.000 HD
ENDBRANCH  20  23
ENDBRANCH  18  19
ENDBRANCH   5  18
TORSDOF 7
ENDMDL
MODEL 2
REMARK VINA RESULT:    -8.332      2.114      2.883
REMARK INTER + INTRA:         -12.906
REMARK INTER:                 -11.598
REMARK INTRA:                  -1.308
REMARK UNBOUND:                -1.165
REMARK  Name = 
REMARK  8 active torsions:
REMARK  status: ('A' for Active; 'I' for Inactive)
REMARK    1  A    between atoms: C_1  and  C_2
REMARK    2  A    between atoms: C_2  and  N_3
REMARK    3  A    between atoms: C_2  and  C_25
REMARK    4  A    between atoms: N_3  and  C_4
REMARK    5  A    between atoms: C_4  and  C_5
REMARK    6  A    between atoms: C_9  and  C_10
REMARK    7  A    between atoms: C_10  and  N_11
REMARK    8  A    between atoms: C_12  and  C_14
REMARK                            x       y       z     vdW  Elec       q    Type
REMARK                         _______ _______ _______ _____ _____    ______ ____
ROOT
ATOM      1  C   UNL     1      45.916   6.515  11.560  0.00  0.00    +0.000 A 
ATOM      2  C   UNL     1      45.048   7.611  11.671  0.00  0.00    +0.000 A 
ATOM      3  C   UNL     1      45.514   8.843  12.127  0.00  0.00    +0.000 A 
ATOM      4  C   UNL     1      46.843   8.982  12.520  0.00  0.00    +0.000 A 
ATOM      5  C   UNL     1      47.715   7.889  12.466  0.00  0.00    +0.000 A 
ATOM      6  C   UNL     1      47.260   6.679  11.926  0.00  0.00    +0.000 A 
ENDROOT
BRANCH   1   7
ATOM      7  C   UNL     1      45.394   5.174  11.100  0.00  0.00    +0.000 C 
BRANCH   7   8
ATOM      8  N   UNL     1      45.251   5.147   9.644  0.00  0.00    +0.000 NA
ATOM      9  H   UNL     1      44.720   5.966   9.354  0.00  0.00    +0.000 HD
BRANCH   8  11
ATOM     10  C   UNL     1      43.962   3.101  10.248  0.00  0.00    +0.000 C 
ATOM     11  C   UNL     1      44.569   3.955   9.129  0.00  0.00    +0.000 C 
BRANCH  11  12
ATOM     12  C   UNL     1      45.522   3.081   8.330  0.00  0.00    +0.000 A 
ATOM     13  C   UNL     1      46.395   3.588   7.359  0.00  0.00    +0.000 A 
ATOM     14  C   UNL     1      47.314   2.744   6.741  0.00  0.00    +0.000 A 
ATOM     15  C   UNL     1      47.337   1.412   7.115  0.00  0.00    +0.000 A 
ATOM     16  N   UNL     1      46.504   0.876   8.033  0.00  0.00    +0.000 NA
ATOM     17  C   UNL     1      45.623   1.720   8.616  0.00  0.00    +0.000 A 
ENDBRANCH  11  12
ENDBRANCH   8  11
ENDBRANCH   7   8
ENDBRANCH   1   7
BRANCH   5  18
ATOM     18  C   UNL     1      49.102   7.993  13.032  0.00  0.00    +0.000 C 
BRANCH  18  19
ATOM     19  N   UNL     1      49.266   7.188  14.209  0.00  0.00    +0.000 N 
ATOM     20  C   UNL     1      48.904   7.630  15.453  0.00  0.00    +0.000 C 
ATOM     21  O   UNL     1      48.450   8.753  15.650  0.00  0.00    +0.000 OA
ATOM     22  H   UNL     1      49.853   6.367  14.120  0.00  0.00    +0.000 HD
BRANCH  20  23
ATOM     23  C   UNL     1      49.013   6.649  16.537  0.00  0.00    +0.000 A 
ATOM     24  C   UNL     1      49.804   6.933  17.641  0.00  0.00    +0.000 A 
ATOM     25  S   UNL     1      49.795   5.703  18.821  0.00  0.00    +0.000 S 
ATOM     26  C   UNL     1      48.762   4.734  17.881  0.00  0.00    +0.000 A 
ATOM     27  N   UNL     1      48.374   3.505  18.312  0.00  0.00    +0.000 NA
ATOM     28  C   UNL     1      47.603   2.871  17.493  0.00  0.00    +0.000 A 
ATOM     29  N   UNL     1      47.177   3.358  16.286  0.00  0.00    +0.000 N 
ATOM     30  C   UNL     1      47.501   4.616  15.828  0.00  0.00    +0.000 A 
ATOM     31  O   UNL     1      47.018   5.054  14.793  0.00  0.00    +0.000 OA
ATOM     32  C   UNL     1      48.399   5.354  16.698  0.00  0.00    +0.000 A 
ATOM     33  H   UNL     1      46.551   2.824  15.703  0.00  0.00    +0.000 HD
ENDBRANCH  20  23
ENDBRANCH  18  19
ENDBRANCH   5  18
TORSDOF 7
ENDMDL
MODEL 3
REMARK VINA RESULT:    -8.152      1.801      2.858
REMARK INTER + INTRA:         -12.652
REMARK INTER:                 -11.463
REMARK INTRA:                  -1.190
REMARK UNBOUND:                -1.165
REMARK  Name = 
REMARK  8 active torsions:
REMARK  status: ('A' for Active; 'I' for Inactive)
REMARK    1  A    between atoms: C_1  and  C_2
REMARK    2  A    between atoms: C_2  and  N_3
REMARK    3  A    between atoms: C_2  and  C_25
REMARK    4  A    between atoms: N_3  and  C_4
REMARK    5  A    between atoms: C_4  and  C_5
REMARK    6  A    between atoms: C_9  and  C_10
REMARK    7  A    between atoms: C_10  and  N_11
REMARK    8  A    between atoms: C_12  and  C_14
REMARK                            x       y       z     vdW  Elec       q    Type
REMARK                         _______ _______ _______ _____ _____    ______ ____
ROOT
ATOM      1  C   UNL     1      46.133   6.022  11.702  0.00  0.00    +0.000 A 
ATOM      2  C   UNL     1      47.116   7.021  11.691  0.00  0.00    +0.000 A 
ATOM      3  C   UNL     1      48.075   7.085  12.701  0.00  0.00    +0.000 A 
ATOM      4  C   UNL     1      48.034   6.179  13.758  0.00  0.00    +0.000 A 
ATOM      5  C   UNL     1      47.031   5.205  13.816  0.00  0.00    +0.000 A 
ATOM      6  C   UNL     1      46.125   5.094  12.753  0.00  0.00    +0.000 A 
ENDROOT
BRANCH   1   7
ATOM      7  C   UNL     1      45.077   5.983  10.622  0.00  0.00    +0.000 C 
BRANCH   7   8
ATOM      8  N   UNL     1      45.600   5.352   9.410  0.00  0.00    +0.000 NA
ATOM      9  H   UNL     1      45.610   6.044   8.662  0.00  0.00    +0.000 HD
BRANCH   8  11
ATOM     10  C   UNL     1      44.114   3.474  10.102  0.00  0.00    +0.000 C 
ATOM     11  C   UNL     1      44.822   4.196   8.950  0.00  0.00    +0.000 C 
BRANCH  11  12
ATOM     12  C   UNL     1      45.708   3.190   8.233  0.00  0.00    +0.000 A 
ATOM     13  C   UNL     1      46.665   3.556   7.277  0.00  0.00    +0.000 A 
ATOM     14  C   UNL     1      47.514   2.593   6.739  0.00  0.00    +0.000 A 
ATOM     15  C   UNL     1      47.385   1.286   7.175  0.00  0.00    +0.000 A 
ATOM     16  N   UNL     1      46.468   0.885   8.082  0.00  0.00    +0.000 NA
ATOM     17  C   UNL     1      45.658   1.843   8.587  0.00  0.00    +0.000 A 
ENDBRANCH  11  12
ENDBRANCH   8  11
ENDBRANCH   7   8
ENDBRANCH   1   7
BRANCH   5  18
ATOM     18  C   UNL     1      46.890   4.328  15.027  0.00  0.00    +0.000 C 
BRANCH  18  19
ATOM     19  N   UNL     1      47.586   4.862  16.163  0.00  0.00    +0.000 N 
ATOM     20  C   UNL     1      48.541   4.149  16.837  0.00  0.00    +0.000 C 
ATOM     21  O   UNL     1      48.839   2.996  16.538  0.00  0.00    +0.000 OA
ATOM     22  H   UNL     1      47.199   5.700  16.580  0.00  0.00    +0.000 HD
BRANCH  20  23
ATOM     23  C   UNL     1      49.252   4.873  17.894  0.00  0.00    +0.000 A 
ATOM     24  C   UNL     1      50.640   4.910  17.884  0.00  0.00    +0.000 A 
ATOM     25  S   UNL     1      51.307   5.818  19.163  0.00  0.00    +0.000 S 
ATOM     26  C   UNL     1      49.766   6.164  19.793  0.00  0.00    +0.000 A 
ATOM     27  N   UNL     1      49.624   6.899  20.927  0.00  0.00    +0.000 NA
ATOM     28  C   UNL     1      48.401   7.072  21.301  0.00  0.00    +0.000 A 
ATOM     29  N   UNL     1      47.305   6.584  20.641  0.00  0.00    +0.000 N 
ATOM     30  C   UNL     1      47.394   5.877  19.462  0.00  0.00    +0.000 A 
ATOM     31  O   UNL     1      46.389   5.546  18.848  0.00  0.00    +0.000 OA
ATOM     32  C   UNL     1      48.753   5.624  19.019  0.00  0.00    +0.000 A 
ATOM     33  H   UNL     1      46.372   6.777  20.970  0.00  0.00    +0.000 HD
ENDBRANCH  20  23
ENDBRANCH  18  19
ENDBRANCH   5  18
TORSDOF 7
ENDMDL
MODEL 4
REMARK VINA RESULT:    -7.770      2.431      3.408
REMARK INTER + INTRA:         -12.114
REMARK INTER:                 -10.660
REMARK INTRA:                  -1.454
REMARK UNBOUND:                -1.165
REMARK  Name = 
REMARK  8 active torsions:
REMARK  status: ('A' for Active; 'I' for Inactive)
REMARK    1  A    between atoms: C_1  and  C_2
REMARK    2  A    between atoms: C_2  and  N_3
REMARK    3  A    between atoms: C_2  and  C_25
REMARK    4  A    between atoms: N_3  and  C_4
REMARK    5  A    between atoms: C_4  and  C_5
REMARK    6  A    between atoms: C_9  and  C_10
REMARK    7  A    between atoms: C_10  and  N_11
REMARK    8  A    between atoms: C_12  and  C_14
REMARK                            x       y       z     vdW  Elec       q    Type
REMARK                         _______ _______ _______ _____ _____    ______ ____
ROOT
ATOM      1  C   UNL     1      45.359   7.492  11.891  0.00  0.00    +0.000 A 
ATOM      2  C   UNL     1      45.101   8.869  11.945  0.00  0.00    +0.000 A 
ATOM      3  C   UNL     1      46.148   9.785  12.026  0.00  0.00    +0.000 A 
ATOM      4  C   UNL     1      47.464   9.334  12.101  0.00  0.00    +0.000 A 
ATOM      5  C   UNL     1      47.742   7.962  12.101  0.00  0.00    +0.000 A 
ATOM      6  C   UNL     1      46.691   7.052  11.931  0.00  0.00    +0.000 A 
ENDROOT
BRANCH   1   7
ATOM      7  C   UNL     1      44.217   6.504  11.839  0.00  0.00    +0.000 C 
BRANCH   7   8
ATOM      8  N   UNL     1      44.713   5.132  11.940  0.00  0.00    +0.000 NA
ATOM      9  H   UNL     1      45.695   5.121  11.668  0.00  0.00    +0.000 HD
BRANCH   8  11
ATOM     10  C   UNL     1      43.586   2.911  11.871  0.00  0.00    +0.000 C 
ATOM     11  C   UNL     1      43.996   4.169  11.098  0.00  0.00    +0.000 C 
BRANCH  11  12
ATOM     12  C   UNL     1      44.843   3.741   9.911  0.00  0.00    +0.000 A 
ATOM     13  C   UNL     1      45.027   2.401   9.545  0.00  0.00    +0.000 A 
ATOM     14  C   UNL     1      45.730   2.087   8.384  0.00  0.00    +0.000 A 
ATOM     15  C   UNL     1      46.228   3.126   7.617  0.00  0.00    +0.000 A 
ATOM     16  N   UNL     1      46.089   4.430   7.939  0.00  0.00    +0.000 NA
ATOM     17  C   UNL     1      45.402   4.704   9.072  0.00  0.00    +0.000 A 
ENDBRANCH  11  12
ENDBRANCH   8  11
ENDBRANCH   7   8
ENDBRANCH   1   7
BRANCH   5  18
ATOM     18  C   UNL     1      49.141   7.469  12.336  0.00  0.00    +0.000 C 
BRANCH  18  19
ATOM     19  N   UNL     1      49.256   6.742  13.568  0.00  0.00    +0.000 N 
ATOM     20  C   UNL     1      49.314   7.366  14.784  0.00  0.00    +0.000 C 
ATOM     21  O   UNL     1      49.308   8.588  14.901  0.00  0.00    +0.000 OA
ATOM     22  H   UNL     1      49.507   5.762  13.495  0.00  0.00    +0.000 HD
BRANCH  20  23
ATOM     23  C   UNL     1      49.302   6.487  15.956  0.00  0.00    +0.000 A 
ATOM     24  C   UNL     1      50.193   6.717  16.996  0.00  0.00    +0.000 A 
ATOM     25  S   UNL     1      50.024   5.625  18.293  0.00  0.00    +0.000 S 
ATOM     26  C   UNL     1      48.779   4.785  17.496  0.00  0.00    +0.000 A 
ATOM     27  N   UNL     1      48.197   3.697  18.063  0.00  0.00    +0.000 NA
ATOM     28  C   UNL     1      47.277   3.147  17.343  0.00  0.00    +0.000 A 
ATOM     29  N   UNL     1      46.880   3.592  16.110  0.00  0.00    +0.000 N 
ATOM     30  C   UNL     1      47.404   4.719  15.515  0.00  0.00    +0.000 A 
ATOM     31  O   UNL     1      46.953   5.143  14.460  0.00  0.00    +0.000 OA
ATOM     32  C   UNL     1      48.470   5.351  16.271  0.00  0.00    +0.000 A 
ATOM     33  H   UNL     1      46.135   3.135  15.608  0.00  0.00    +0.000 HD
ENDBRANCH  20  23
ENDBRANCH  18  19
ENDBRANCH   5  18
TORSDOF 7
ENDMDL
MODEL 5
REMARK VINA RESULT:    -7.554      2.305      2.953
REMARK INTER + INTRA:         -11.811
REMARK INTER:                 -10.731
REMARK INTRA:                  -1.080
REMARK UNBOUND:                -1.165
REMARK  Name = 
REMARK  8 active torsions:
REMARK  status: ('A' for Active; 'I' for Inactive)
REMARK    1  A    between atoms: C_1  and  C_2
REMARK    2  A    between atoms: C_2  and  N_3
REMARK    3  A    between atoms: C_2  and  C_25
REMARK    4  A    between atoms: N_3  and  C_4
REMARK    5  A    between atoms: C_4  and  C_5
REMARK    6  A    between atoms: C_9  and  C_10
REMARK    7  A    between atoms: C_10  and  N_11
REMARK    8  A    between atoms: C_12  and  C_14
REMARK                            x       y       z     vdW  Elec       q    Type
REMARK                         _______ _______ _______ _____ _____    ______ ____
ROOT
ATOM      1  C   UNL     1      45.636   6.563  11.646  0.00  0.00    +0.000 A 
ATOM      2  C   UNL     1      45.137   7.871  11.721  0.00  0.00    +0.000 A 
ATOM      3  C   UNL     1      45.887   8.884  12.314  0.00  0.00    +0.000 A 
ATOM      4  C   UNL     1      47.127   8.593  12.879  0.00  0.00    +0.000 A 
ATOM      5  C   UNL     1      47.622   7.285  12.861  0.00  0.00    +0.000 A 
ATOM      6  C   UNL     1      46.901   6.290  12.187  0.00  0.00    +0.000 A 
ENDROOT
BRANCH   1   7
ATOM      7  C   UNL     1      44.800   5.463  11.033  0.00  0.00    +0.000 C 
BRANCH   7   8
ATOM      8  N   UNL     1      45.322   5.087   9.720  0.00  0.00    +0.000 NA
ATOM      9  H   UNL     1      45.229   5.885   9.092  0.00  0.00    +0.000 HD
BRANCH   8  11
ATOM     10  C   UNL     1      43.959   3.044  10.145  0.00  0.00    +0.000 C 
ATOM     11  C   UNL     1      44.639   3.943   9.106  0.00  0.00    +0.000 C 
BRANCH  11  12
ATOM     12  C   UNL     1      45.611   3.090   8.306  0.00  0.00    +0.000 A 
ATOM     13  C   UNL     1      46.500   3.623   7.364  0.00  0.00    +0.000 A 
ATOM     14  C   UNL     1      47.434   2.796   6.744  0.00  0.00    +0.000 A 
ATOM     15  C   UNL     1      47.455   1.456   7.088  0.00  0.00    +0.000 A 
ATOM     16  N   UNL     1      46.608   0.896   7.978  0.00  0.00    +0.000 NA
ATOM     17  C   UNL     1      45.712   1.724   8.563  0.00  0.00    +0.000 A 
ENDBRANCH  11  12
ENDBRANCH   8  11
ENDBRANCH   7   8
ENDBRANCH   1   7
BRANCH   5  18
ATOM     18  C   UNL     1      48.881   6.937  13.603  0.00  0.00    +0.000 C 
BRANCH  18  19
ATOM     19  N   UNL     1      48.652   6.784  15.011  0.00  0.00    +0.000 N 
ATOM     20  C   UNL     1      49.225   7.610  15.940  0.00  0.00    +0.000 C 
ATOM     21  O   UNL     1      49.998   8.513  15.634  0.00  0.00    +0.000 OA
ATOM     22  H   UNL     1      48.225   5.914  15.310  0.00  0.00    +0.000 HD
BRANCH  20  23
ATOM     23  C   UNL     1      48.796   7.409  17.326  0.00  0.00    +0.000 A 
ATOM     24  C   UNL     1      48.192   8.452  18.016  0.00  0.00    +0.000 A 
ATOM     25  S   UNL     1      47.727   8.041  19.603  0.00  0.00    +0.000 S 
ATOM     26  C   UNL     1      48.349   6.468  19.436  0.00  0.00    +0.000 A 
ATOM     27  N   UNL     1      48.294   5.583  20.466  0.00  0.00    +0.000 NA
ATOM     28  C   UNL     1      48.816   4.430  20.208  0.00  0.00    +0.000 A 
ATOM     29  N   UNL     1      49.380   4.079  19.010  0.00  0.00    +0.000 N 
ATOM     30  C   UNL     1      49.414   4.922  17.922  0.00  0.00    +0.000 A 
ATOM     31  O   UNL     1      49.834   4.537  16.839  0.00  0.00    +0.000 OA
ATOM     32  C   UNL     1      48.872   6.245  18.175  0.00  0.00    +0.000 A 
ATOM     33  H   UNL     1      49.747   3.152  18.862  0.00  0.00    +0.000 HD
ENDBRANCH  20  23
ENDBRANCH  18  19
ENDBRANCH   5  18
TORSDOF 7
ENDMDL
MODEL 6
REMARK VINA RESULT:    -7.433      1.583      2.056
REMARK INTER + INTRA:         -11.640
REMARK INTER:                 -10.447
REMARK INTRA:                  -1.193
REMARK UNBOUND:                -1.165
REMARK  Name = 
REMARK  8 active torsions:
REMARK  status: ('A' for Active; 'I' for Inactive)
REMARK    1  A    between atoms: C_1  and  C_2
REMARK    2  A    between atoms: C_2  and  N_3
REMARK    3  A    between atoms: C_2  and  C_25
REMARK    4  A    between atoms: N_3  and  C_4
REMARK    5  A    between atoms: C_4  and  C_5
REMARK    6  A    between atoms: C_9  and  C_10
REMARK    7  A    between atoms: C_10  and  N_11
REMARK    8  A    between atoms: C_12  and  C_14
REMARK                            x       y       z     vdW  Elec       q    Type
REMARK                         _______ _______ _______ _____ _____    ______ ____
ROOT
ATOM      1  C   UNL     1      46.625   5.802  12.730  0.00  0.00    +0.000 A 
ATOM      2  C   UNL     1      47.159   6.462  11.614  0.00  0.00    +0.000 A 
ATOM      3  C   UNL     1      48.219   7.356  11.758  0.00  0.00    +0.000 A 
ATOM      4  C   UNL     1      48.728   7.634  13.025  0.00  0.00    +0.000 A 
ATOM      5  C   UNL     1      48.176   7.025  14.158  0.00  0.00    +0.000 A 
ATOM      6  C   UNL     1      47.170   6.064  13.995  0.00  0.00    +0.000 A 
ENDROOT
BRANCH   1   7
ATOM      7  C   UNL     1      45.453   4.862  12.568  0.00  0.00    +0.000 C 
BRANCH   7   8
ATOM      8  N   UNL     1      44.568   5.318  11.497  0.00  0.00    +0.000 NA
ATOM      9  H   UNL     1      43.827   5.885  11.906  0.00  0.00    +0.000 HD
BRANCH   8  11
ATOM     10  C   UNL     1      43.551   3.046  11.615  0.00  0.00    +0.000 C 
ATOM     11  C   UNL     1      43.943   4.235  10.730  0.00  0.00    +0.000 C 
BRANCH  11  12
ATOM     12  C   UNL     1      44.873   3.727   9.640  0.00  0.00    +0.000 A 
ATOM     13  C   UNL     1      45.082   2.366   9.385  0.00  0.00    +0.000 A 
ATOM     14  C   UNL     1      45.865   1.974   8.303  0.00  0.00    +0.000 A 
ATOM     15  C   UNL     1      46.416   2.957   7.500  0.00  0.00    +0.000 A 
ATOM     16  N   UNL     1      46.254   4.280   7.717  0.00  0.00    +0.000 NA
ATOM     17  C   UNL     1      45.489   4.630   8.775  0.00  0.00    +0.000 A 
ENDBRANCH  11  12
ENDBRANCH   8  11
ENDBRANCH   7   8
ENDBRANCH   1   7
BRANCH   5  18
ATOM     18  C   UNL     1      48.616   7.437  15.534  0.00  0.00    +0.000 C 
BRANCH  18  19
ATOM     19  N   UNL     1      49.721   6.652  16.005  0.00  0.00    +0.000 N 
ATOM     20  C   UNL     1      49.688   5.986  17.199  0.00  0.00    +0.000 C 
ATOM     21  O   UNL     1      48.729   6.043  17.963  0.00  0.00    +0.000 OA
ATOM     22  H   UNL     1      50.605   6.779  15.525  0.00  0.00    +0.000 HD
BRANCH  20  23
ATOM     23  C   UNL     1      50.840   5.125  17.484  0.00  0.00    +0.000 A 
ATOM     24  C   UNL     1      52.038   5.695  17.892  0.00  0.00    +0.000 A 
ATOM     25  S   UNL     1      53.263   4.554  18.211  0.00  0.00    +0.000 S 
ATOM     26  C   UNL     1      52.246   3.261  17.780  0.00  0.00    +0.000 A 
ATOM     27  N   UNL     1      52.696   1.980  17.806  0.00  0.00    +0.000 NA
ATOM     28  C   UNL     1      51.825   1.100  17.441  0.00  0.00    +0.000 A 
ATOM     29  N   UNL     1      50.541   1.384  17.058  0.00  0.00    +0.000 N 
ATOM     30  C   UNL     1      50.022   2.660  17.063  0.00  0.00    +0.000 A 
ATOM     31  O   UNL     1      48.842   2.862  16.813  0.00  0.00    +0.000 OA
ATOM     32  C   UNL     1      50.977   3.690  17.431  0.00  0.00    +0.000 A 
ATOM     33  H   UNL     1      49.899   0.648  16.809  0.00  0.00    +0.000 HD
ENDBRANCH  20  23
ENDBRANCH  18  19
ENDBRANCH   5  18
TORSDOF 7
ENDMDL
MODEL 7
REMARK VINA RESULT:    -7.108      3.498      5.511
REMARK INTER + INTRA:         -11.182
REMARK INTER:                  -8.993
REMARK INTRA:                  -2.189
REMARK UNBOUND:                -1.165
REMARK  Name = 
REMARK  8 active torsions:
REMARK  status: ('A' for Active; 'I' for Inactive)
REMARK    1  A    between atoms: C_1  and  C_2
REMARK    2  A    between atoms: C_2  and  N_3
REMARK    3  A    between atoms: C_2  and  C_25
REMARK    4  A    between atoms: N_3  and  C_4
REMARK    5  A    between atoms: C_4  and  C_5
REMARK    6  A    between atoms: C_9  and  C_10
REMARK    7  A    between atoms: C_10  and  N_11
REMARK    8  A    between atoms: C_12  and  C_14
REMARK                            x       y       z     vdW  Elec       q    Type
REMARK                         _______ _______ _______ _____ _____    ______ ____
ROOT
ATOM      1  C   UNL     1      44.578   5.963  11.725  0.00  0.00    +0.000 A 
ATOM      2  C   UNL     1      43.852   5.193  10.806  0.00  0.00    +0.000 A 
ATOM      3  C   UNL     1      43.937   3.802  10.820  0.00  0.00    +0.000 A 
ATOM      4  C   UNL     1      44.786   3.166  11.725  0.00  0.00    +0.000 A 
ATOM      5  C   UNL     1      45.559   3.918  12.617  0.00  0.00    +0.000 A 
ATOM      6  C   UNL     1      45.401   5.309  12.653  0.00  0.00    +0.000 A 
ENDROOT
BRANCH   1   7
ATOM      7  C   UNL     1      44.506   7.472  11.678  0.00  0.00    +0.000 C 
BRANCH   7   8
ATOM      8  N   UNL     1      45.082   8.055  12.889  0.00  0.00    +0.000 NA
ATOM      9  H   UNL     1      44.331   8.233  13.554  0.00  0.00    +0.000 HD
BRANCH   8  11
ATOM     10  C   UNL     1      45.349  10.026  11.386  0.00  0.00    +0.000 C 
ATOM     11  C   UNL     1      45.801   9.315  12.667  0.00  0.00    +0.000 C 
BRANCH  11  12
ATOM     12  C   UNL     1      47.300   9.081  12.576  0.00  0.00    +0.000 A 
ATOM     13  C   UNL     1      47.881   8.180  11.675  0.00  0.00    +0.000 A 
ATOM     14  C   UNL     1      49.267   8.094  11.573  0.00  0.00    +0.000 A 
ATOM     15  C   UNL     1      50.037   8.919  12.375  0.00  0.00    +0.000 A 
ATOM     16  N   UNL     1      49.521   9.791  13.267  0.00  0.00    +0.000 NA
ATOM     17  C   UNL     1      48.172   9.852  13.344  0.00  0.00    +0.000 A 
ENDBRANCH  11  12
ENDBRANCH   8  11
ENDBRANCH   7   8
ENDBRANCH   1   7
BRANCH   5  18
ATOM     18  C   UNL     1      46.586   3.248  13.484  0.00  0.00    +0.000 C 
BRANCH  18  19
ATOM     19  N   UNL     1      46.852   3.996  14.680  0.00  0.00    +0.000 N 
ATOM     20  C   UNL     1      47.731   3.562  15.634  0.00  0.00    +0.000 C 
ATOM     21  O   UNL     1      48.323   2.489  15.549  0.00  0.00    +0.000 OA
ATOM     22  H   UNL     1      46.211   4.751  14.896  0.00  0.00    +0.000 HD
BRANCH  20  23
ATOM     23  C   UNL     1      47.993   4.493  16.735  0.00  0.00    +0.000 A 
ATOM     24  C   UNL     1      47.741   4.098  18.042  0.00  0.00    +0.000 A 
ATOM     25  S   UNL     1      48.129   5.287  19.200  0.00  0.00    +0.000 S 
ATOM     26  C   UNL     1      48.615   6.382  17.993  0.00  0.00    +0.000 A 
ATOM     27  N   UNL     1      49.046   7.629  18.315  0.00  0.00    +0.000 NA
ATOM     28  C   UNL     1      49.369   8.361  17.302  0.00  0.00    +0.000 A 
ATOM     29  N   UNL     1      49.308   7.956  15.995  0.00  0.00    +0.000 N 
ATOM     30  C   UNL     1      48.926   6.687  15.621  0.00  0.00    +0.000 A 
ATOM     31  O   UNL     1      48.981   6.330  14.452  0.00  0.00    +0.000 OA
ATOM     32  C   UNL     1      48.517   5.837  16.725  0.00  0.00    +0.000 A 
ATOM     33  H   UNL     1      49.600   8.566  15.248  0.00  0.00    +0.000 HD
ENDBRANCH  20  23
ENDBRANCH  18  19
ENDBRANCH   5  18
TORSDOF 7
ENDMDL
MODEL 8
REMARK VINA RESULT:    -6.962      4.012      6.370
REMARK INTER + INTRA:         -10.976
REMARK INTER:                  -9.910
REMARK INTRA:                  -1.066
REMARK UNBOUND:                -1.165
REMARK  Name = 
REMARK  8 active torsions:
REMARK  status: ('A' for Active; 'I' for Inactive)
REMARK    1  A    between atoms: C_1  and  C_2
REMARK    2  A    between atoms: C_2  and  N_3
REMARK    3  A    between atoms: C_2  and  C_25
REMARK    4  A    between atoms: N_3  and  C_4
REMARK    5  A    between atoms: C_4  and  C_5
REMARK    6  A    between atoms: C_9  and  C_10
REMARK    7  A    between atoms: C_10  and  N_11
REMARK    8  A    between atoms: C_12  and  C_14
REMARK                            x       y       z     vdW  Elec       q    Type
REMARK                         _______ _______ _______ _____ _____    ______ ____
ROOT
ATOM      1  C   UNL     1      44.322   6.561  11.775  0.00  0.00    +0.000 A 
ATOM      2  C   UNL     1      43.243   5.818  11.277  0.00  0.00    +0.000 A 
ATOM      3  C   UNL     1      43.114   4.464  11.577  0.00  0.00    +0.000 A 
ATOM      4  C   UNL     1      44.087   3.825  12.344  0.00  0.00    +0.000 A 
ATOM      5  C   UNL     1      45.200   4.535  12.809  0.00  0.00    +0.000 A 
ATOM      6  C   UNL     1      45.276   5.914  12.575  0.00  0.00    +0.000 A 
ENDROOT
BRANCH   1   7
ATOM      7  C   UNL     1      44.473   8.021  11.414  0.00  0.00    +0.000 C 
BRANCH   7   8
ATOM      8  N   UNL     1      43.230   8.544  10.846  0.00  0.00    +0.000 NA
ATOM      9  H   UNL     1      42.986   7.986  10.029  0.00  0.00    +0.000 HD
BRANCH   8  11
ATOM     10  C   UNL     1      44.075  10.813  11.436  0.00  0.00    +0.000 C 
ATOM     11  C   UNL     1      43.303   9.949  10.432  0.00  0.00    +0.000 C 
BRANCH  11  12
ATOM     12  C   UNL     1      41.914  10.544  10.266  0.00  0.00    +0.000 A 
ATOM     13  C   UNL     1      40.796  10.089  10.976  0.00  0.00    +0.000 A 
ATOM     14  C   UNL     1      39.576  10.749  10.851  0.00  0.00    +0.000 A 
ATOM     15  C   UNL     1      39.509  11.853  10.020  0.00  0.00    +0.000 A 
ATOM     16  N   UNL     1      40.556  12.318   9.304  0.00  0.00    +0.000 NA
ATOM     17  C   UNL     1      41.727  11.656   9.445  0.00  0.00    +0.000 A 
ENDBRANCH  11  12
ENDBRANCH   8  11
ENDBRANCH   7   8
ENDBRANCH   1   7
BRANCH   5  18
ATOM     18  C   UNL     1      46.325   3.820  13.500  0.00  0.00    +0.000 C 
BRANCH  18  19
ATOM     19  N   UNL     1      46.695   4.459  14.730  0.00  0.00    +0.000 N 
ATOM     20  C   UNL     1      47.519   3.862  15.646  0.00  0.00    +0.000 C 
ATOM     21  O   UNL     1      47.966   2.729  15.493  0.00  0.00    +0.000 OA
ATOM     22  H   UNL     1      46.158   5.276  14.997  0.00  0.00    +0.000 HD
BRANCH  20  23
ATOM     23  C   UNL     1      47.907   4.689  16.791  0.00  0.00    +0.000 A 
ATOM     24  C   UNL     1      47.577   4.279  18.076  0.00  0.00    +0.000 A 
ATOM     25  S   UNL     1      48.130   5.337  19.293  0.00  0.00    +0.000 S 
ATOM     26  C   UNL     1      48.799   6.396  18.144  0.00  0.00    +0.000 A 
ATOM     27  N   UNL     1      49.416   7.544  18.528  0.00  0.00    +0.000 NA
ATOM     28  C   UNL     1      49.864   8.262  17.553  0.00  0.00    +0.000 A 
ATOM     29  N   UNL     1      49.759   7.932  16.228  0.00  0.00    +0.000 N 
ATOM     30  C   UNL     1      49.188   6.758  15.790  0.00  0.00    +0.000 A 
ATOM     31  O   UNL     1      49.204   6.451  14.606  0.00  0.00    +0.000 OA
ATOM     32  C   UNL     1      48.635   5.933  16.850  0.00  0.00    +0.000 A 
ATOM     33  H   UNL     1      50.155   8.523  15.513  0.00  0.00    +0.000 HD
ENDBRANCH  20  23
ENDBRANCH  18  19
ENDBRANCH   5  18
TORSDOF 7
ENDMDL
MODEL 9
REMARK VINA RESULT:    -6.948      6.119      9.361
REMARK INTER + INTRA:         -10.956
REMARK INTER:                 -10.026
REMARK INTRA:                  -0.930
REMARK UNBOUND:                -1.165
REMARK  Name = 
REMARK  8 active torsions:
REMARK  status: ('A' for Active; 'I' for Inactive)
REMARK    1  A    between atoms: C_1  and  C_2
REMARK    2  A    between atoms: C_2  and  N_3
REMARK    3  A    between atoms: C_2  and  C_25
REMARK    4  A    between atoms: N_3  and  C_4
REMARK    5  A    between atoms: C_4  and  C_5
REMARK    6  A    between atoms: C_9  and  C_10
REMARK    7  A    between atoms: C_10  and  N_11
REMARK    8  A    between atoms: C_12  and  C_14
REMARK                            x       y       z     vdW  Elec       q    Type
REMARK                         _______ _______ _______ _____ _____    ______ ____
ROOT
ATOM      1  C   UNL     1      43.220  10.811  10.775  0.00  0.00    +0.000 A 
ATOM      2  C   UNL     1      43.947  12.003  10.655  0.00  0.00    +0.000 A 
ATOM      3  C   UNL     1      45.245  12.097  11.152  0.00  0.00    +0.000 A 
ATOM      4  C   UNL     1      45.816  11.013  11.816  0.00  0.00    +0.000 A 
ATOM      5  C   UNL     1      45.090   9.830  11.993  0.00  0.00    +0.000 A 
ATOM      6  C   UNL     1      43.819   9.716  11.415  0.00  0.00    +0.000 A 
ENDROOT
BRANCH   1   7
ATOM      7  C   UNL     1      41.800  10.730  10.265  0.00  0.00    +0.000 C 
BRANCH   7   8
ATOM      8  N   UNL     1      40.883  10.362  11.343  0.00  0.00    +0.000 NA
ATOM      9  H   UNL     1      40.419   9.489  11.093  0.00  0.00    +0.000 HD
BRANCH   8  11
ATOM     10  C   UNL     1      39.964  11.944  13.036  0.00  0.00    +0.000 C 
ATOM     11  C   UNL     1      39.848  11.363  11.622  0.00  0.00    +0.000 C 
BRANCH  11  12
ATOM     12  C   UNL     1      38.456  10.772  11.466  0.00  0.00    +0.000 A 
ATOM     13  C   UNL     1      37.386  11.101  12.306  0.00  0.00    +0.000 A 
ATOM     14  C   UNL     1      36.113  10.602  12.040  0.00  0.00    +0.000 A 
ATOM     15  C   UNL     1      35.945   9.787  10.934  0.00  0.00    +0.000 A 
ATOM     16  N   UNL     1      36.950   9.431  10.105  0.00  0.00    +0.000 NA
ATOM     17  C   UNL     1      38.174   9.931  10.390  0.00  0.00    +0.000 A 
ENDBRANCH  11  12
ENDBRANCH   8  11
ENDBRANCH   7   8
ENDBRANCH   1   7
BRANCH   5  18
ATOM     18  C   UNL     1      45.641   8.719  12.840  0.00  0.00    +0.000 C 
BRANCH  18  19
ATOM     19  N   UNL     1      45.080   7.445  12.489  0.00  0.00    +0.000 N 
ATOM     20  C   UNL     1      45.794   6.492  11.815  0.00  0.00    +0.000 C 
ATOM     21  O   UNL     1      46.947   6.675  11.435  0.00  0.00    +0.000 OA
ATOM     22  H   UNL     1      44.074   7.355  12.568  0.00  0.00    +0.000 HD
BRANCH  20  23
ATOM     23  C   UNL     1      45.130   5.198  11.642  0.00  0.00    +0.000 A 
ATOM     24  C   UNL     1      44.464   4.620  12.715  0.00  0.00    +0.000 A 
ATOM     25  S   UNL     1      43.720   3.134  12.336  0.00  0.00    +0.000 S 
ATOM     26  C   UNL     1      44.292   3.194  10.736  0.00  0.00    +0.000 A 
ATOM     27  N   UNL     1      44.026   2.189   9.861  0.00  0.00    +0.000 NA
ATOM     28  C   UNL     1      44.534   2.355   8.686  0.00  0.00    +0.000 A 
ATOM     29  N   UNL     1      45.276   3.440   8.302  0.00  0.00    +0.000 N 
ATOM     30  C   UNL     1      45.530   4.507   9.135  0.00  0.00    +0.000 A 
ATOM     31  O   UNL     1      46.110   5.504   8.725  0.00  0.00    +0.000 OA
ATOM     32  C   UNL     1      45.011   4.349  10.482  0.00  0.00    +0.000 A 
ATOM     33  H   UNL     1      45.622   3.525   7.359  0.00  0.00    +0.000 HD
ENDBRANCH  20  23
ENDBRANCH  18  19
ENDBRANCH   5  18
TORSDOF 7
ENDMDL
