MODEL 1
REMARK VINA RESULT:    -8.237      0.000      0.000
REMARK INTER + INTRA:         -13.925
REMARK INTER:                 -12.570
REMARK INTRA:                  -1.355
REMARK UNBOUND:                -1.355
REMARK  Name = 
REMARK  9 active torsions:
REMARK  status: ('A' for Active; 'I' for Inactive)
REMARK    1  A    between atoms: C_2  and  C_3
REMARK    2  A    between atoms: C_3  and  C_4
REMARK    3  A    between atoms: C_4  and  N_5
REMARK    4  A    between atoms: C_4  and  C_13
REMARK    5  A    between atoms: N_5  and  C_6
REMARK    6  A    between atoms: C_6  and  C_7
REMARK    7  A    between atoms: C_16  and  C_17
REMARK    8  A    between atoms: C_17  and  N_18
REMARK    9  A    between atoms: C_19  and  C_21
REMARK                            x       y       z     vdW  Elec       q    Type
REMARK                         _______ _______ _______ _____ _____    ______ ____
ROOT
ATOM      1  C   UNL     1      44.886   5.970  11.015  0.00  0.00    +0.000 A 
ATOM      2  C   UNL     1      44.451   7.220  11.485  0.00  0.00    +0.000 A 
ATOM      3  C   UNL     1      45.269   8.001  12.314  0.00  0.00    +0.000 A 
ATOM      4  C   UNL     1      46.542   7.555  12.688  0.00  0.00    +0.000 A 
ATOM      5  C   UNL     1      46.987   6.321  12.206  0.00  0.00    +0.000 A 
ATOM      6  C   UNL     1      46.184   5.555  11.358  0.00  0.00    +0.000 A 
ENDROOT
BRANCH   1   7
ATOM      7  C   UNL     1      43.926   5.070  10.233  0.00  0.00    +0.000 C 
BRANCH   7   8
ATOM      8  N   UNL     1      44.541   4.612   8.975  0.00  0.00    +0.000 NA
ATOM      9  H   UNL     1      43.994   4.975   8.193  0.00  0.00    +0.000 HD
BRANCH   8  10
ATOM     10  C   UNL     1      44.584   3.150   8.869  0.00  0.00    +0.000 C 
BRANCH  10  11
ATOM     11  C   UNL     1      45.659   2.690   7.922  0.00  0.00    +0.000 A 
ATOM     12  C   UNL     1      46.248   1.426   8.087  0.00  0.00    +0.000 A 
ATOM     13  C   UNL     1      47.229   0.983   7.203  0.00  0.00    +0.000 A 
ATOM     14  C   UNL     1      47.637   1.802   6.151  0.00  0.00    +0.000 A 
ATOM     15  C   UNL     1      47.067   3.064   5.986  0.00  0.00    +0.000 A 
ATOM     16  C   UNL     1      46.083   3.509   6.869  0.00  0.00    +0.000 A 
ENDBRANCH  10  11
ENDBRANCH   8  10
ENDBRANCH   7   8
BRANCH   7  17
ATOM     17  C   UNL     1      43.441   3.883  11.085  0.00  0.00    +0.000 C 
BRANCH  17  19
ATOM     18  N   UNL     1      42.855   4.718  13.673  0.00  0.00    +0.000 NA
ATOM     19  C   UNL     1      43.120   4.340  12.500  0.00  0.00    +0.000 C 
ENDBRANCH  17  19
ENDBRANCH   7  17
ENDBRANCH   1   7
BRANCH   4  20
ATOM     20  C   UNL     1      47.415   8.357  13.615  0.00  0.00    +0.000 C 
BRANCH  20  21
ATOM     21  N   UNL     1      47.752   7.618  14.807  0.00  0.00    +0.000 N 
ATOM     22  C   UNL     1      49.002   7.070  14.958  0.00  0.00    +0.000 C 
ATOM     23  O   UNL     1      49.881   7.225  14.114  0.00  0.00    +0.000 OA
ATOM     24  H   UNL     1      46.986   7.287  15.386  0.00  0.00    +0.000 HD
BRANCH  22  25
ATOM     25  C   UNL     1      49.266   6.344  16.207  0.00  0.00    +0.000 A 
ATOM     26  C   UNL     1      50.278   6.783  17.052  0.00  0.00    +0.000 A 
ATOM     27  S   UNL     1      50.421   5.867  18.483  0.00  0.00    +0.000 S 
ATOM     28  C   UNL     1      49.170   4.819  18.003  0.00  0.00    +0.000 A 
ATOM     29  N   UNL     1      48.794   3.774  18.788  0.00  0.00    +0.000 NA
ATOM     30  C   UNL     1      47.848   3.049  18.285  0.00  0.00    +0.000 A 
ATOM     31  N   UNL     1      47.251   3.271  17.073  0.00  0.00    +0.000 N 
ATOM     32  C   UNL     1      47.586   4.323  16.256  0.00  0.00    +0.000 A 
ATOM     33  O   UNL     1      47.017   4.514  15.186  0.00  0.00    +0.000 OA
ATOM     34  C   UNL     1      48.642   5.171  16.771  0.00  0.00    +0.000 A 
ATOM     35  H   UNL     1      46.507   2.675  16.746  0.00  0.00    +0.000 HD
ENDBRANCH  22  25
ENDBRANCH  20  21
ENDBRANCH   4  20
TORSDOF 9
ENDMDL
MODEL 2
REMARK VINA RESULT:    -8.143      1.582      1.968
REMARK INTER + INTRA:         -13.783
REMARK INTER:                 -12.441
REMARK INTRA:                  -1.341
REMARK UNBOUND:                -1.355
REMARK  Name = 
REMARK  9 active torsions:
REMARK  status: ('A' for Active; 'I' for Inactive)
REMARK    1  A    between atoms: C_2  and  C_3
REMARK    2  A    between atoms: C_3  and  C_4
REMARK    3  A    between atoms: C_4  and  N_5
REMARK    4  A    between atoms: C_4  and  C_13
REMARK    5  A    between atoms: N_5  and  C_6
REMARK    6  A    between atoms: C_6  and  C_7
REMARK    7  A    between atoms: C_16  and  C_17
REMARK    8  A    between atoms: C_17  and  N_18
REMARK    9  A    between atoms: C_19  and  C_21
REMARK                            x       y       z     vdW  Elec       q    Type
REMARK                         _______ _______ _______ _____ _____    ______ ____
ROOT
ATOM      1  C   UNL     1      45.427   4.641  11.470  0.00  0.00    +0.000 A 
ATOM      2  C   UNL     1      45.887   5.802  10.827  0.00  0.00    +0.000 A 
ATOM      3  C   UNL     1      46.791   6.664  11.462  0.00  0.00    +0.000 A 
ATOM      4  C   UNL     1      47.261   6.385  12.751  0.00  0.00    +0.000 A 
ATOM      5  C   UNL     1      46.821   5.220  13.386  0.00  0.00    +0.000 A 
ATOM      6  C   UNL     1      45.942   4.346  12.744  0.00  0.00    +0.000 A 
ENDROOT
BRANCH   1   7
ATOM      7  C   UNL     1      44.332   3.789  10.821  0.00  0.00    +0.000 C 
BRANCH   7   8
ATOM      8  N   UNL     1      44.816   2.423  10.555  0.00  0.00    +0.000 NA
ATOM      9  H   UNL     1      45.831   2.410  10.663  0.00  0.00    +0.000 HD
BRANCH   8  10
ATOM     10  C   UNL     1      44.492   1.966   9.200  0.00  0.00    +0.000 C 
BRANCH  10  11
ATOM     11  C   UNL     1      45.642   2.169   8.251  0.00  0.00    +0.000 A 
ATOM     12  C   UNL     1      45.862   3.428   7.671  0.00  0.00    +0.000 A 
ATOM     13  C   UNL     1      46.937   3.630   6.809  0.00  0.00    +0.000 A 
ATOM     14  C   UNL     1      47.796   2.574   6.510  0.00  0.00    +0.000 A 
ATOM     15  C   UNL     1      47.579   1.317   7.071  0.00  0.00    +0.000 A 
ATOM     16  C   UNL     1      46.504   1.112   7.938  0.00  0.00    +0.000 A 
ENDBRANCH  10  11
ENDBRANCH   8  10
ENDBRANCH   7   8
BRANCH   7  17
ATOM     17  C   UNL     1      43.047   3.774  11.670  0.00  0.00    +0.000 C 
BRANCH  17  19
ATOM     18  N   UNL     1      42.019   6.346  11.925  0.00  0.00    +0.000 NA
ATOM     19  C   UNL     1      42.486   5.180  11.809  0.00  0.00    +0.000 C 
ENDBRANCH  17  19
ENDBRANCH   7  17
ENDBRANCH   1   7
BRANCH   4  20
ATOM     20  C   UNL     1      48.194   7.324  13.468  0.00  0.00    +0.000 C 
BRANCH  20  21
ATOM     21  N   UNL     1      48.029   7.255  14.898  0.00  0.00    +0.000 N 
ATOM     22  C   UNL     1      49.095   6.956  15.711  0.00  0.00    +0.000 C 
ATOM     23  O   UNL     1      50.223   6.780  15.257  0.00  0.00    +0.000 OA
ATOM     24  H   UNL     1      47.083   7.162  15.258  0.00  0.00    +0.000 HD
BRANCH  22  25
ATOM     25  C   UNL     1      48.843   6.918  17.156  0.00  0.00    +0.000 A 
ATOM     26  C   UNL     1      48.534   8.094  17.827  0.00  0.00    +0.000 A 
ATOM     27  S   UNL     1      48.216   7.874  19.488  0.00  0.00    +0.000 S 
ATOM     28  C   UNL     1      48.529   6.205  19.382  0.00  0.00    +0.000 A 
ATOM     29  N   UNL     1      48.451   5.408  20.482  0.00  0.00    +0.000 NA
ATOM     30  C   UNL     1      48.739   4.168  20.258  0.00  0.00    +0.000 A 
ATOM     31  N   UNL     1      49.101   3.655  19.039  0.00  0.00    +0.000 N 
ATOM     32  C   UNL     1      49.176   4.419  17.900  0.00  0.00    +0.000 A 
ATOM     33  O   UNL     1      49.478   3.930  16.816  0.00  0.00    +0.000 OA
ATOM     34  C   UNL     1      48.861   5.820  18.094  0.00  0.00    +0.000 A 
ATOM     35  H   UNL     1      49.298   2.674  18.930  0.00  0.00    +0.000 HD
ENDBRANCH  22  25
ENDBRANCH  20  21
ENDBRANCH   4  20
TORSDOF 9
ENDMDL
MODEL 3
REMARK VINA RESULT:    -7.681      2.008      2.478
REMARK INTER + INTRA:         -13.077
REMARK INTER:                 -11.681
REMARK INTRA:                  -1.396
REMARK UNBOUND:                -1.355
REMARK  Name = 
REMARK  9 active torsions:
REMARK  status: ('A' for Active; 'I' for Inactive)
REMARK    1  A    between atoms: C_2  and  C_3
REMARK    2  A    between atoms: C_3  and  C_4
REMARK    3  A    between atoms: C_4  and  N_5
REMARK    4  A    between atoms: C_4  and  C_13
REMARK    5  A    between atoms: N_5  and  C_6
REMARK    6  A    between atoms: C_6  and  C_7
REMARK    7  A    between atoms: C_16  and  C_17
REMARK    8  A    between atoms: C_17  and  N_18
REMARK    9  A    between atoms: C_19  and  C_21
REMARK                            x       y       z     vdW  Elec       q    Type
REMARK                         _______ _______ _______ _____ _____    ______ ____
ROOT
ATOM      1  C   UNL     1      45.298   6.203  11.367  0.00  0.00    +0.000 A 
ATOM      2  C   UNL     1      44.964   7.474  11.862  0.00  0.00    +0.000 A 
ATOM      3  C   UNL     1      45.841   8.169  12.706  0.00  0.00    +0.000 A 
ATOM      4  C   UNL     1      47.074   7.615  13.070  0.00  0.00    +0.000 A 
ATOM      5  C   UNL     1      47.419   6.359  12.562  0.00  0.00    +0.000 A 
ATOM      6  C   UNL     1      46.558   5.677  11.700  0.00  0.00    +0.000 A 
ENDROOT
BRANCH   1   7
ATOM      7  C   UNL     1      44.269   5.398  10.567  0.00  0.00    +0.000 C 
BRANCH   7   8
ATOM      8  N   UNL     1      44.891   4.211   9.953  0.00  0.00    +0.000 NA
ATOM      9  H   UNL     1      45.833   4.103  10.334  0.00  0.00    +0.000 HD
BRANCH   8  10
ATOM     10  C   UNL     1      44.994   4.322   8.495  0.00  0.00    +0.000 C 
BRANCH  10  11
ATOM     11  C   UNL     1      45.808   3.202   7.905  0.00  0.00    +0.000 A 
ATOM     12  C   UNL     1      46.595   3.429   6.765  0.00  0.00    +0.000 A 
ATOM     13  C   UNL     1      47.369   2.404   6.226  0.00  0.00    +0.000 A 
ATOM     14  C   UNL     1      47.357   1.141   6.815  0.00  0.00    +0.000 A 
ATOM     15  C   UNL     1      46.570   0.903   7.941  0.00  0.00    +0.000 A 
ATOM     16  C   UNL     1      45.796   1.928   8.484  0.00  0.00    +0.000 A 
ENDBRANCH  10  11
ENDBRANCH   8  10
ENDBRANCH   7   8
BRANCH   7  17
ATOM     17  C   UNL     1      43.055   5.012  11.432  0.00  0.00    +0.000 C 
BRANCH  17  19
ATOM     18  N   UNL     1      43.439   2.511  12.587  0.00  0.00    +0.000 NA
ATOM     19  C   UNL     1      43.265   3.645  12.063  0.00  0.00    +0.000 C 
ENDBRANCH  17  19
ENDBRANCH   7  17
ENDBRANCH   1   7
BRANCH   4  20
ATOM     20  C   UNL     1      48.008   8.325  14.013  0.00  0.00    +0.000 C 
BRANCH  20  21
ATOM     21  N   UNL     1      47.934   7.786  15.348  0.00  0.00    +0.000 N 
ATOM     22  C   UNL     1      48.922   6.957  15.821  0.00  0.00    +0.000 C 
ATOM     23  O   UNL     1      49.913   6.684  15.148  0.00  0.00    +0.000 OA
ATOM     24  H   UNL     1      47.032   7.807  15.814  0.00  0.00    +0.000 HD
BRANCH  22  25
ATOM     25  C   UNL     1      48.776   6.461  17.195  0.00  0.00    +0.000 A 
ATOM     26  C   UNL     1      49.081   5.136  17.480  0.00  0.00    +0.000 A 
ATOM     27  S   UNL     1      48.911   4.732  19.128  0.00  0.00    +0.000 S 
ATOM     28  C   UNL     1      48.375   6.299  19.513  0.00  0.00    +0.000 A 
ATOM     29  N   UNL     1      48.032   6.627  20.789  0.00  0.00    +0.000 NA
ATOM     30  C   UNL     1      47.620   7.844  20.929  0.00  0.00    +0.000 A 
ATOM     31  N   UNL     1      47.515   8.758  19.914  0.00  0.00    +0.000 N 
ATOM     32  C   UNL     1      47.865   8.477  18.615  0.00  0.00    +0.000 A 
ATOM     33  O   UNL     1      47.785   9.321  17.729  0.00  0.00    +0.000 OA
ATOM     34  C   UNL     1      48.336   7.124  18.400  0.00  0.00    +0.000 A 
ATOM     35  H   UNL     1      47.199   9.697  20.095  0.00  0.00    +0.000 HD
ENDBRANCH  22  25
ENDBRANCH  20  21
ENDBRANCH   4  20
TORSDOF 9
ENDMDL
MODEL 4
REMARK VINA RESULT:    -7.241      3.502      9.014
REMARK INTER + INTRA:         -12.405
REMARK INTER:                 -10.466
REMARK INTRA:                  -1.939
REMARK UNBOUND:                -1.355
REMARK  Name = 
REMARK  9 active torsions:
REMARK  status: ('A' for Active; 'I' for Inactive)
REMARK    1  A    between atoms: C_2  and  C_3
REMARK    2  A    between atoms: C_3  and  C_4
REMARK    3  A    between atoms: C_4  and  N_5
REMARK    4  A    between atoms: C_4  and  C_13
REMARK    5  A    between atoms: N_5  and  C_6
REMARK    6  A    between atoms: C_6  and  C_7
REMARK    7  A    between atoms: C_16  and  C_17
REMARK    8  A    between atoms: C_17  and  N_18
REMARK    9  A    between atoms: C_19  and  C_21
REMARK                            x       y       z     vdW  Elec       q    Type
REMARK                         _______ _______ _______ _____ _____    ______ ____
ROOT
ATOM      1  C   UNL     1      49.967   5.172  17.288  0.00  0.00    +0.000 A 
ATOM      2  C   UNL     1      48.670   4.949  16.797  0.00  0.00    +0.000 A 
ATOM      3  C   UNL     1      48.110   5.799  15.832  0.00  0.00    +0.000 A 
ATOM      4  C   UNL     1      48.834   6.887  15.332  0.00  0.00    +0.000 A 
ATOM      5  C   UNL     1      50.133   7.101  15.803  0.00  0.00    +0.000 A 
ATOM      6  C   UNL     1      50.701   6.239  16.743  0.00  0.00    +0.000 A 
ENDROOT
BRANCH   1   7
ATOM      7  C   UNL     1      50.505   4.323  18.443  0.00  0.00    +0.000 C 
BRANCH   7   8
ATOM      8  N   UNL     1      49.426   3.972  19.384  0.00  0.00    +0.000 NA
ATOM      9  H   UNL     1      48.533   4.026  18.892  0.00  0.00    +0.000 HD
BRANCH   8  10
ATOM     10  C   UNL     1      49.371   4.873  20.539  0.00  0.00    +0.000 C 
BRANCH  10  11
ATOM     11  C   UNL     1      48.990   6.273  20.138  0.00  0.00    +0.000 A 
ATOM     12  C   UNL     1      49.933   7.310  20.223  0.00  0.00    +0.000 A 
ATOM     13  C   UNL     1      49.595   8.604  19.833  0.00  0.00    +0.000 A 
ATOM     14  C   UNL     1      48.310   8.875  19.365  0.00  0.00    +0.000 A 
ATOM     15  C   UNL     1      47.364   7.855  19.290  0.00  0.00    +0.000 A 
ATOM     16  C   UNL     1      47.700   6.557  19.676  0.00  0.00    +0.000 A 
ENDBRANCH  10  11
ENDBRANCH   8  10
ENDBRANCH   7   8
BRANCH   7  17
ATOM     17  C   UNL     1      51.235   3.068  17.932  0.00  0.00    +0.000 C 
BRANCH  17  19
ATOM     18  N   UNL     1      49.601   1.627  16.204  0.00  0.00    +0.000 NA
ATOM     19  C   UNL     1      50.342   2.280  16.987  0.00  0.00    +0.000 C 
ENDBRANCH  17  19
ENDBRANCH   7  17
ENDBRANCH   1   7
BRANCH   4  20
ATOM     20  C   UNL     1      48.233   7.839  14.332  0.00  0.00    +0.000 C 
BRANCH  20  21
ATOM     21  N   UNL     1      46.979   7.351  13.816  0.00  0.00    +0.000 N 
ATOM     22  C   UNL     1      46.905   6.810  12.556  0.00  0.00    +0.000 C 
ATOM     23  O   UNL     1      47.902   6.684  11.848  0.00  0.00    +0.000 OA
ATOM     24  H   UNL     1      46.129   7.659  14.279  0.00  0.00    +0.000 HD
BRANCH  22  25
ATOM     25  C   UNL     1      45.592   6.326  12.112  0.00  0.00    +0.000 A 
ATOM     26  C   UNL     1      44.676   7.226  11.581  0.00  0.00    +0.000 A 
ATOM     27  S   UNL     1      43.222   6.500  11.065  0.00  0.00    +0.000 S 
ATOM     28  C   UNL     1      43.743   4.964  11.578  0.00  0.00    +0.000 A 
ATOM     29  N   UNL     1      42.942   3.872  11.441  0.00  0.00    +0.000 NA
ATOM     30  C   UNL     1      43.458   2.778  11.896  0.00  0.00    +0.000 A 
ATOM     31  N   UNL     1      44.694   2.677  12.478  0.00  0.00    +0.000 N 
ATOM     32  C   UNL     1      45.542   3.748  12.622  0.00  0.00    +0.000 A 
ATOM     33  O   UNL     1      46.655   3.625  13.124  0.00  0.00    +0.000 OA
ATOM     34  C   UNL     1      45.014   5.003  12.126  0.00  0.00    +0.000 A 
ATOM     35  H   UNL     1      45.043   1.788  12.799  0.00  0.00    +0.000 HD
ENDBRANCH  22  25
ENDBRANCH  20  21
ENDBRANCH   4  20
TORSDOF 9
ENDMDL
MODEL 5
REMARK VINA RESULT:    -7.184      3.904      5.256
REMARK INTER + INTRA:         -12.318
REMARK INTER:                 -10.796
REMARK INTRA:                  -1.522
REMARK UNBOUND:                -1.355
REMARK  Name = 
REMARK  9 active torsions:
REMARK  status: ('A' for Active; 'I' for Inactive)
REMARK    1  A    between atoms: C_2  and  C_3
REMARK    2  A    between atoms: C_3  and  C_4
REMARK    3  A    between atoms: C_4  and  N_5
REMARK    4  A    between atoms: C_4  and  C_13
REMARK    5  A    between atoms: N_5  and  C_6
REMARK    6  A    between atoms: C_6  and  C_7
REMARK    7  A    between atoms: C_16  and  C_17
REMARK    8  A    between atoms: C_17  and  N_18
REMARK    9  A    between atoms: C_19  and  C_21
REMARK                            x       y       z     vdW  Elec       q    Type
REMARK                         _______ _______ _______ _____ _____    ______ ____
ROOT
ATOM      1  C   UNL     1      45.046   6.231  11.263  0.00  0.00    +0.000 A 
ATOM      2  C   UNL     1      44.565   7.537  11.451  0.00  0.00    +0.000 A 
ATOM      3  C   UNL     1      45.348   8.506  12.096  0.00  0.00    +0.000 A 
ATOM      4  C   UNL     1      46.631   8.194  12.561  0.00  0.00    +0.000 A 
ATOM      5  C   UNL     1      47.121   6.901  12.357  0.00  0.00    +0.000 A 
ATOM      6  C   UNL     1      46.353   5.944  11.691  0.00  0.00    +0.000 A 
ENDROOT
BRANCH   1   7
ATOM      7  C   UNL     1      44.124   5.151  10.689  0.00  0.00    +0.000 C 
BRANCH   7   8
ATOM      8  N   UNL     1      44.905   4.091  10.027  0.00  0.00    +0.000 NA
ATOM      9  H   UNL     1      45.850   4.091  10.414  0.00  0.00    +0.000 HD
BRANCH   8  10
ATOM     10  C   UNL     1      45.000   4.285   8.577  0.00  0.00    +0.000 C 
BRANCH  10  11
ATOM     11  C   UNL     1      45.817   3.205   7.921  0.00  0.00    +0.000 A 
ATOM     12  C   UNL     1      46.558   3.489   6.762  0.00  0.00    +0.000 A 
ATOM     13  C   UNL     1      47.334   2.501   6.161  0.00  0.00    +0.000 A 
ATOM     14  C   UNL     1      47.370   1.218   6.706  0.00  0.00    +0.000 A 
ATOM     15  C   UNL     1      46.628   0.924   7.849  0.00  0.00    +0.000 A 
ATOM     16  C   UNL     1      45.852   1.912   8.455  0.00  0.00    +0.000 A 
ENDBRANCH  10  11
ENDBRANCH   8  10
ENDBRANCH   7   8
BRANCH   7  17
ATOM     17  C   UNL     1      43.191   4.572  11.767  0.00  0.00    +0.000 C 
BRANCH  17  19
ATOM     18  N   UNL     1      43.135   1.796  11.617  0.00  0.00    +0.000 NA
ATOM     19  C   UNL     1      43.161   3.054  11.685  0.00  0.00    +0.000 C 
ENDBRANCH  17  19
ENDBRANCH   7  17
ENDBRANCH   1   7
BRANCH   4  20
ATOM     20  C   UNL     1      47.468   9.206  13.298  0.00  0.00    +0.000 C 
BRANCH  20  21
ATOM     21  N   UNL     1      48.771   9.359  12.701  0.00  0.00    +0.000 N 
ATOM     22  C   UNL     1      48.952  10.188  11.621  0.00  0.00    +0.000 C 
ATOM     23  O   UNL     1      48.029  10.853  11.157  0.00  0.00    +0.000 OA
ATOM     24  H   UNL     1      49.471   8.654  12.915  0.00  0.00    +0.000 HD
BRANCH  22  25
ATOM     25  C   UNL     1      50.313  10.295  11.083  0.00  0.00    +0.000 A 
ATOM     26  C   UNL     1      50.800  11.539  10.700  0.00  0.00    +0.000 A 
ATOM     27  S   UNL     1      52.414  11.503  10.147  0.00  0.00    +0.000 S 
ATOM     28  C   UNL     1      52.503   9.817  10.352  0.00  0.00    +0.000 A 
ATOM     29  N   UNL     1      53.637   9.134  10.036  0.00  0.00    +0.000 NA
ATOM     30  C   UNL     1      53.554   7.857  10.220  0.00  0.00    +0.000 A 
ATOM     31  N   UNL     1      52.443   7.203  10.684  0.00  0.00    +0.000 N 
ATOM     32  C   UNL     1      51.283   7.853  11.031  0.00  0.00    +0.000 A 
ATOM     33  O   UNL     1      50.311   7.246  11.468  0.00  0.00    +0.000 OA
ATOM     34  C   UNL     1      51.322   9.289  10.846  0.00  0.00    +0.000 A 
ATOM     35  H   UNL     1      52.449   6.205  10.818  0.00  0.00    +0.000 HD
ENDBRANCH  22  25
ENDBRANCH  20  21
ENDBRANCH   4  20
TORSDOF 9
ENDMDL
MODEL 6
REMARK VINA RESULT:    -6.766      3.001      8.600
REMARK INTER + INTRA:         -11.681
REMARK INTER:                  -9.693
REMARK INTRA:                  -1.988
REMARK UNBOUND:                -1.355
REMARK  Name = 
REMARK  9 active torsions:
REMARK  status: ('A' for Active; 'I' for Inactive)
REMARK    1  A    between atoms: C_2  and  C_3
REMARK    2  A    between atoms: C_3  and  C_4
REMARK    3  A    between atoms: C_4  and  N_5
REMARK    4  A    between atoms: C_4  and  C_13
REMARK    5  A    between atoms: N_5  and  C_6
REMARK    6  A    between atoms: C_6  and  C_7
REMARK    7  A    between atoms: C_16  and  C_17
REMARK    8  A    between atoms: C_17  and  N_18
REMARK    9  A    between atoms: C_19  and  C_21
REMARK                            x       y       z     vdW  Elec       q    Type
REMARK                         _______ _______ _______ _____ _____    ______ ____
ROOT
ATOM      1  C   UNL     1      48.822   8.119  16.223  0.00  0.00    +0.000 A 
ATOM      2  C   UNL     1      49.103   6.947  15.501  0.00  0.00    +0.000 A 
ATOM      3  C   UNL     1      48.749   6.833  14.150  0.00  0.00    +0.000 A 
ATOM      4  C   UNL     1      48.112   7.888  13.486  0.00  0.00    +0.000 A 
ATOM      5  C   UNL     1      47.849   9.063  14.194  0.00  0.00    +0.000 A 
ATOM      6  C   UNL     1      48.226   9.188  15.533  0.00  0.00    +0.000 A 
ENDROOT
BRANCH   1   7
ATOM      7  C   UNL     1      49.083   8.170  17.731  0.00  0.00    +0.000 C 
BRANCH   7   8
ATOM      8  N   UNL     1      48.192   7.243  18.451  0.00  0.00    +0.000 NA
ATOM      9  H   UNL     1      47.704   7.762  19.183  0.00  0.00    +0.000 HD
BRANCH   8  10
ATOM     10  C   UNL     1      48.921   6.137  19.079  0.00  0.00    +0.000 C 
BRANCH  10  11
ATOM     11  C   UNL     1      48.789   4.862  18.290  0.00  0.00    +0.000 A 
ATOM     12  C   UNL     1      49.911   4.045  18.081  0.00  0.00    +0.000 A 
ATOM     13  C   UNL     1      49.794   2.852  17.370  0.00  0.00    +0.000 A 
ATOM     14  C   UNL     1      48.557   2.470  16.855  0.00  0.00    +0.000 A 
ATOM     15  C   UNL     1      47.439   3.281  17.046  0.00  0.00    +0.000 A 
ATOM     16  C   UNL     1      47.553   4.474  17.760  0.00  0.00    +0.000 A 
ENDBRANCH  10  11
ENDBRANCH   8  10
ENDBRANCH   7   8
BRANCH   7  17
ATOM     17  C   UNL     1      50.562   7.898  18.060  0.00  0.00    +0.000 C 
BRANCH  17  19
ATOM     18  N   UNL     1      51.746  10.160  19.162  0.00  0.00    +0.000 NA
ATOM     19  C   UNL     1      51.210   9.135  18.662  0.00  0.00    +0.000 C 
ENDBRANCH  17  19
ENDBRANCH   7  17
ENDBRANCH   1   7
BRANCH   4  20
ATOM     20  C   UNL     1      47.682   7.766  12.048  0.00  0.00    +0.000 C 
BRANCH  20  21
ATOM     21  N   UNL     1      46.997   6.523  11.797  0.00  0.00    +0.000 N 
ATOM     22  C   UNL     1      45.638   6.427  11.970  0.00  0.00    +0.000 C 
ATOM     23  O   UNL     1      44.960   7.397  12.300  0.00  0.00    +0.000 OA
ATOM     24  H   UNL     1      47.558   5.677  11.759  0.00  0.00    +0.000 HD
BRANCH  22  25
ATOM     25  C   UNL     1      45.018   5.129  11.681  0.00  0.00    +0.000 A 
ATOM     26  C   UNL     1      44.339   4.456  12.689  0.00  0.00    +0.000 A 
ATOM     27  S   UNL     1      43.631   2.990  12.180  0.00  0.00    +0.000 S 
ATOM     28  C   UNL     1      44.249   3.176  10.606  0.00  0.00    +0.000 A 
ATOM     29  N   UNL     1      44.020   2.235   9.650  0.00  0.00    +0.000 NA
ATOM     30  C   UNL     1      44.570   2.496   8.509  0.00  0.00    +0.000 A 
ATOM     31  N   UNL     1      45.329   3.605   8.241  0.00  0.00    +0.000 N 
ATOM     32  C   UNL     1      45.572   4.587   9.169  0.00  0.00    +0.000 A 
ATOM     33  O   UNL     1      46.234   5.583   8.895  0.00  0.00    +0.000 OA
ATOM     34  C   UNL     1      44.977   4.347  10.468  0.00  0.00    +0.000 A 
ATOM     35  H   UNL     1      45.718   3.755   7.324  0.00  0.00    +0.000 HD
ENDBRANCH  22  25
ENDBRANCH  20  21
ENDBRANCH   4  20
TORSDOF 9
ENDMDL
MODEL 7
REMARK VINA RESULT:    -6.764      1.979      2.553
REMARK INTER + INTRA:         -11.678
REMARK INTER:                 -10.733
REMARK INTRA:                  -0.945
REMARK UNBOUND:                -1.355
REMARK  Name = 
REMARK  9 active torsions:
REMARK  status: ('A' for Active; 'I' for Inactive)
REMARK    1  A    between atoms: C_2  and  C_3
REMARK    2  A    between atoms: C_3  and  C_4
REMARK    3  A    between atoms: C_4  and  N_5
REMARK    4  A    between atoms: C_4  and  C_13
REMARK    5  A    between atoms: N_5  and  C_6
REMARK    6  A    between atoms: C_6  and  C_7
REMARK    7  A    between atoms: C_16  and  C_17
REMARK    8  A    between atoms: C_17  and  N_18
REMARK    9  A    between atoms: C_19  and  C_21
REMARK                            x       y       z     vdW  Elec       q    Type
REMARK                         _______ _______ _______ _____ _____    ______ ____
ROOT
ATOM      1  C   UNL     1      45.728   6.392  11.528  0.00  0.00    +0.000 A 
ATOM      2  C   UNL     1      47.118   6.345  11.727  0.00  0.00    +0.000 A 
ATOM      3  C   UNL     1      47.804   7.443  12.266  0.00  0.00    +0.000 A 
ATOM      4  C   UNL     1      47.117   8.609  12.624  0.00  0.00    +0.000 A 
ATOM      5  C   UNL     1      45.732   8.652  12.447  0.00  0.00    +0.000 A 
ATOM      6  C   UNL     1      45.044   7.550  11.936  0.00  0.00    +0.000 A 
ENDROOT
BRANCH   1   7
ATOM      7  C   UNL     1      45.019   5.243  10.806  0.00  0.00    +0.000 C 
BRANCH   7   8
ATOM      8  N   UNL     1      45.404   5.199   9.384  0.00  0.00    +0.000 NA
ATOM      9  H   UNL     1      45.168   6.094   8.953  0.00  0.00    +0.000 HD
BRANCH   8  10
ATOM     10  C   UNL     1      44.712   4.137   8.646  0.00  0.00    +0.000 C 
BRANCH  10  11
ATOM     11  C   UNL     1      45.680   3.168   8.022  0.00  0.00    +0.000 A 
ATOM     12  C   UNL     1      45.732   1.838   8.470  0.00  0.00    +0.000 A 
ATOM     13  C   UNL     1      46.610   0.930   7.882  0.00  0.00    +0.000 A 
ATOM     14  C   UNL     1      47.449   1.343   6.850  0.00  0.00    +0.000 A 
ATOM     15  C   UNL     1      47.414   2.665   6.407  0.00  0.00    +0.000 A 
ATOM     16  C   UNL     1      46.534   3.576   6.991  0.00  0.00    +0.000 A 
ENDBRANCH  10  11
ENDBRANCH   8  10
ENDBRANCH   7   8
BRANCH   7  17
ATOM     17  C   UNL     1      45.275   3.893  11.499  0.00  0.00    +0.000 C 
BRANCH  17  19
ATOM     18  N   UNL     1      42.926   2.412  11.642  0.00  0.00    +0.000 NA
ATOM     19  C   UNL     1      43.991   3.083  11.578  0.00  0.00    +0.000 C 
ENDBRANCH  17  19
ENDBRANCH   7  17
ENDBRANCH   1   7
BRANCH   4  20
ATOM     20  C   UNL     1      47.843   9.815  13.160  0.00  0.00    +0.000 C 
BRANCH  20  21
ATOM     21  N   UNL     1      48.998   9.443  13.938  0.00  0.00    +0.000 N 
ATOM     22  C   UNL     1      48.876   9.165  15.278  0.00  0.00    +0.000 C 
ATOM     23  O   UNL     1      47.786   9.182  15.844  0.00  0.00    +0.000 OA
ATOM     24  H   UNL     1      49.913   9.654  13.551  0.00  0.00    +0.000 HD
BRANCH  22  25
ATOM     25  C   UNL     1      50.100   8.783  15.994  0.00  0.00    +0.000 A 
ATOM     26  C   UNL     1      51.061   9.748  16.268  0.00  0.00    +0.000 A 
ATOM     27  S   UNL     1      52.395   9.157  17.151  0.00  0.00    +0.000 S 
ATOM     28  C   UNL     1      51.760   7.578  17.157  0.00  0.00    +0.000 A 
ATOM     29  N   UNL     1      52.435   6.556  17.748  0.00  0.00    +0.000 NA
ATOM     30  C   UNL     1      51.846   5.409  17.653  0.00  0.00    +0.000 A 
ATOM     31  N   UNL     1      50.651   5.192  17.020  0.00  0.00    +0.000 N 
ATOM     32  C   UNL     1      49.927   6.196  16.425  0.00  0.00    +0.000 A 
ATOM     33  O   UNL     1      48.846   5.979  15.887  0.00  0.00    +0.000 OA
ATOM     34  C   UNL     1      50.541   7.506  16.502  0.00  0.00    +0.000 A 
ATOM     35  H   UNL     1      50.239   4.273  16.996  0.00  0.00    +0.000 HD
ENDBRANCH  22  25
ENDBRANCH  20  21
ENDBRANCH   4  20
TORSDOF 9
ENDMDL
MODEL 8
REMARK VINA RESULT:    -6.727      4.000      5.854
REMARK INTER + INTRA:         -11.621
REMARK INTER:                 -10.226
REMARK INTRA:                  -1.396
REMARK UNBOUND:                -1.355
REMARK  Name = 
REMARK  9 active torsions:
REMARK  status: ('A' for Active; 'I' for Inactive)
REMARK    1  A    between atoms: C_2  and  C_3
REMARK    2  A    between atoms: C_3  and  C_4
REMARK    3  A    between atoms: C_4  and  N_5
REMARK    4  A    between atoms: C_4  and  C_13
REMARK    5  A    between atoms: N_5  and  C_6
REMARK    6  A    between atoms: C_6  and  C_7
REMARK    7  A    between atoms: C_16  and  C_17
REMARK    8  A    between atoms: C_17  and  N_18
REMARK    9  A    between atoms: C_19  and  C_21
REMARK                            x       y       z     vdW  Elec       q    Type
REMARK                         _______ _______ _______ _____ _____    ______ ____
ROOT
ATOM      1  C   UNL     1      44.832   6.298  11.061  0.00  0.00    +0.000 A 
ATOM      2  C   UNL     1      44.428   7.596  11.417  0.00  0.00    +0.000 A 
ATOM      3  C   UNL     1      45.345   8.513  11.948  0.00  0.00    +0.000 A 
ATOM      4  C   UNL     1      46.687   8.158  12.131  0.00  0.00    +0.000 A 
ATOM      5  C   UNL     1      47.097   6.875  11.759  0.00  0.00    +0.000 A 
ATOM      6  C   UNL     1      46.190   5.970  11.204  0.00  0.00    +0.000 A 
ENDROOT
BRANCH   1   7
ATOM      7  C   UNL     1      43.789   5.266  10.619  0.00  0.00    +0.000 C 
BRANCH   7   8
ATOM      8  N   UNL     1      44.436   4.101   9.991  0.00  0.00    +0.000 NA
ATOM      9  H   UNL     1      45.342   3.950  10.438  0.00  0.00    +0.000 HD
BRANCH   8  10
ATOM     10  C   UNL     1      44.657   4.287   8.553  0.00  0.00    +0.000 C 
BRANCH  10  11
ATOM     11  C   UNL     1      45.595   3.252   7.993  0.00  0.00    +0.000 A 
ATOM     12  C   UNL     1      46.455   3.582   6.934  0.00  0.00    +0.000 A 
ATOM     13  C   UNL     1      47.341   2.636   6.424  0.00  0.00    +0.000 A 
ATOM     14  C   UNL     1      47.370   1.350   6.960  0.00  0.00    +0.000 A 
ATOM     15  C   UNL     1      46.510   1.009   8.004  0.00  0.00    +0.000 A 
ATOM     16  C   UNL     1      45.624   1.955   8.518  0.00  0.00    +0.000 A 
ENDBRANCH  10  11
ENDBRANCH   8  10
ENDBRANCH   7   8
BRANCH   7  17
ATOM     17  C   UNL     1      42.881   4.843  11.788  0.00  0.00    +0.000 C 
BRANCH  17  19
ATOM     18  N   UNL     1      43.575   2.305  12.689  0.00  0.00    +0.000 NA
ATOM     19  C   UNL     1      43.261   3.456  12.281  0.00  0.00    +0.000 C 
ENDBRANCH  17  19
ENDBRANCH   7  17
ENDBRANCH   1   7
BRANCH   4  20
ATOM     20  C   UNL     1      47.676   9.113  12.745  0.00  0.00    +0.000 C 
BRANCH  20  21
ATOM     21  N   UNL     1      48.848   9.273  11.921  0.00  0.00    +0.000 N 
ATOM     22  C   UNL     1      50.103   9.092  12.448  0.00  0.00    +0.000 C 
ATOM     23  O   UNL     1      50.268   8.748  13.616  0.00  0.00    +0.000 OA
ATOM     24  H   UNL     1      48.740   9.777  11.045  0.00  0.00    +0.000 HD
BRANCH  22  25
ATOM     25  C   UNL     1      51.241   9.263  11.537  0.00  0.00    +0.000 A 
ATOM     26  C   UNL     1      52.314   8.383  11.612  0.00  0.00    +0.000 A 
ATOM     27  S   UNL     1      53.529   8.683  10.452  0.00  0.00    +0.000 S 
ATOM     28  C   UNL     1      52.689  10.031   9.842  0.00  0.00    +0.000 A 
ATOM     29  N   UNL     1      53.203  10.771   8.822  0.00  0.00    +0.000 NA
ATOM     30  C   UNL     1      52.468  11.778   8.478  0.00  0.00    +0.000 A 
ATOM     31  N   UNL     1      51.274  12.113   9.061  0.00  0.00    +0.000 N 
ATOM     32  C   UNL     1      50.710  11.385  10.081  0.00  0.00    +0.000 A 
ATOM     33  O   UNL     1      49.628  11.693  10.569  0.00  0.00    +0.000 OA
ATOM     34  C   UNL     1      51.492  10.242  10.506  0.00  0.00    +0.000 A 
ATOM     35  H   UNL     1      50.744  12.905   8.734  0.00  0.00    +0.000 HD
ENDBRANCH  22  25
ENDBRANCH  20  21
ENDBRANCH   4  20
TORSDOF 9
ENDMDL
MODEL 9
REMARK VINA RESULT:    -6.482      3.581      8.826
REMARK INTER + INTRA:         -11.247
REMARK INTER:                  -8.746
REMARK INTRA:                  -2.501
REMARK UNBOUND:                -1.355
REMARK  Name = 
REMARK  9 active torsions:
REMARK  status: ('A' for Active; 'I' for Inactive)
REMARK    1  A    between atoms: C_2  and  C_3
REMARK    2  A    between atoms: C_3  and  C_4
REMARK    3  A    between atoms: C_4  and  N_5
REMARK    4  A    between atoms: C_4  and  C_13
REMARK    5  A    between atoms: N_5  and  C_6
REMARK    6  A    between atoms: C_6  and  C_7
REMARK    7  A    between atoms: C_16  and  C_17
REMARK    8  A    between atoms: C_17  and  N_18
REMARK    9  A    between atoms: C_19  and  C_21
REMARK                            x       y       z     vdW  Elec       q    Type
REMARK                         _______ _______ _______ _____ _____    ______ ____
ROOT
ATOM      1  C   UNL     1      49.996   7.611  18.305  0.00  0.00    +0.000 A 
ATOM      2  C   UNL     1      50.603   7.085  17.153  0.00  0.00    +0.000 A 
ATOM      3  C   UNL     1      50.123   7.408  15.876  0.00  0.00    +0.000 A 
ATOM      4  C   UNL     1      49.029   8.268  15.721  0.00  0.00    +0.000 A 
ATOM      5  C   UNL     1      48.435   8.810  16.864  0.00  0.00    +0.000 A 
ATOM      6  C   UNL     1      48.930   8.510  18.135  0.00  0.00    +0.000 A 
ENDROOT
BRANCH   1   7
ATOM      7  C   UNL     1      50.440   7.134  19.691  0.00  0.00    +0.000 C 
BRANCH   7   8
ATOM      8  N   UNL     1      49.438   6.229  20.282  0.00  0.00    +0.000 NA
ATOM      9  H   UNL     1      49.413   6.384  21.291  0.00  0.00    +0.000 HD
BRANCH   8  10
ATOM     10  C   UNL     1      49.745   4.815  20.041  0.00  0.00    +0.000 C 
BRANCH  10  11
ATOM     11  C   UNL     1      49.032   4.288  18.825  0.00  0.00    +0.000 A 
ATOM     12  C   UNL     1      47.778   4.805  18.466  0.00  0.00    +0.000 A 
ATOM     13  C   UNL     1      47.121   4.338  17.329  0.00  0.00    +0.000 A 
ATOM     14  C   UNL     1      47.707   3.344  16.548  0.00  0.00    +0.000 A 
ATOM     15  C   UNL     1      48.947   2.816  16.903  0.00  0.00    +0.000 A 
ATOM     16  C   UNL     1      49.608   3.283  18.039  0.00  0.00    +0.000 A 
ENDBRANCH  10  11
ENDBRANCH   8  10
ENDBRANCH   7   8
BRANCH   7  17
ATOM     17  C   UNL     1      51.832   6.477  19.645  0.00  0.00    +0.000 C 
BRANCH  17  19
ATOM     18  N   UNL     1      53.450   7.481  21.672  0.00  0.00    +0.000 NA
ATOM     19  C   UNL     1      52.716   7.026  20.753  0.00  0.00    +0.000 C 
ENDBRANCH  17  19
ENDBRANCH   7  17
ENDBRANCH   1   7
BRANCH   4  20
ATOM     20  C   UNL     1      48.469   8.589  14.360  0.00  0.00    +0.000 C 
BRANCH  20  21
ATOM     21  N   UNL     1      47.422   7.674  13.982  0.00  0.00    +0.000 N 
ATOM     22  C   UNL     1      47.700   6.578  13.203  0.00  0.00    +0.000 C 
ATOM     23  O   UNL     1      48.845   6.318  12.840  0.00  0.00    +0.000 OA
ATOM     24  H   UNL     1      46.463   7.997  14.070  0.00  0.00    +0.000 HD
BRANCH  22  25
ATOM     25  C   UNL     1      46.578   5.691  12.874  0.00  0.00    +0.000 A 
ATOM     26  C   UNL     1      46.685   4.330  13.131  0.00  0.00    +0.000 A 
ATOM     27  S   UNL     1      45.279   3.445  12.744  0.00  0.00    +0.000 S 
ATOM     28  C   UNL     1      44.494   4.841  12.170  0.00  0.00    +0.000 A 
ATOM     29  N   UNL     1      43.232   4.776  11.665  0.00  0.00    +0.000 NA
ATOM     30  C   UNL     1      42.771   5.909  11.245  0.00  0.00    +0.000 A 
ATOM     31  N   UNL     1      43.457   7.095  11.280  0.00  0.00    +0.000 N 
ATOM     32  C   UNL     1      44.724   7.211  11.796  0.00  0.00    +0.000 A 
ATOM     33  O   UNL     1      45.306   8.290  11.839  0.00  0.00    +0.000 OA
ATOM     34  C   UNL     1      45.290   5.969  12.284  0.00  0.00    +0.000 A 
ATOM     35  H   UNL     1      43.032   7.946  10.949  0.00  0.00    +0.000 HD
ENDBRANCH  22  25
ENDBRANCH  20  21
ENDBRANCH   4  20
TORSDOF 9
ENDMDL
