MODEL 1
REMARK VINA RESULT:    -8.588      0.000      0.000
REMARK INTER + INTRA:         -11.668
REMARK INTER:                 -11.098
REMARK INTRA:                  -0.570
REMARK UNBOUND:                -0.570
REMARK  Name = 
REMARK  5 active torsions:
REMARK  status: ('A' for Active; 'I' for Inactive)
REMARK    1  A    between atoms: C_2  and  C_4
REMARK    2  A    between atoms: C_9  and  O_10
REMARK    3  A    between atoms: O_10  and  C_11
REMARK    4  A    between atoms: C_11  and  C_12
REMARK    5  A    between atoms: C_16  and  C_17
REMARK                            x       y       z     vdW  Elec       q    Type
REMARK                         _______ _______ _______ _____ _____    ______ ____
ROOT
ATOM      1  O   UNL     1      45.612   6.908  11.207  0.00  0.00    +0.000 OA
ENDROOT
BRANCH   1   7
ATOM      2  C   UNL     1      47.265   5.463  14.086  0.00  0.00    +0.000 A 
ATOM      3  C   UNL     1      48.173   6.442  14.485  0.00  0.00    +0.000 A 
ATOM      4  C   UNL     1      48.261   7.635  13.770  0.00  0.00    +0.000 A 
ATOM      5  C   UNL     1      47.441   7.874  12.655  0.00  0.00    +0.000 A 
ATOM      6 CL   UNL     1      47.701   9.411  11.908  0.00  0.00    +0.000 Cl
ATOM      7  C   UNL     1      46.511   6.902  12.246  0.00  0.00    +0.000 A 
ATOM      8  C   UNL     1      46.437   5.700  12.979  0.00  0.00    +0.000 A 
BRANCH   2  10
ATOM      9  N   UNL     1      46.866   4.318  16.196  0.00  0.00    +0.000 N 
ATOM     10  C   UNL     1      47.198   4.207  14.875  0.00  0.00    +0.000 C 
ATOM     11  O   UNL     1      47.383   3.112  14.358  0.00  0.00    +0.000 OA
ATOM     12  H   UNL     1      46.718   3.452  16.698  0.00  0.00    +0.000 HD
ATOM     13  H   UNL     1      46.472   5.160  16.593  0.00  0.00    +0.000 HD
ENDBRANCH   2  10
ENDBRANCH   1   7
BRANCH   1  14
ATOM     14  C   UNL     1      44.293   6.422  11.416  0.00  0.00    +0.000 C 
BRANCH  14  15
ATOM     15  C   UNL     1      44.169   5.009  10.916  0.00  0.00    +0.000 A 
ATOM     16  C   UNL     1      43.364   4.084  11.565  0.00  0.00    +0.000 A 
ATOM     17  N   UNL     1      43.277   2.785  11.209  0.00  0.00    +0.000 NA
ATOM     18  C   UNL     1      44.028   2.391  10.149  0.00  0.00    +0.000 A 
ATOM     19  C   UNL     1      44.867   3.219   9.401  0.00  0.00    +0.000 A 
ATOM     20  C   UNL     1      44.906   4.561   9.811  0.00  0.00    +0.000 A 
BRANCH  19  21
ATOM     21  C   UNL     1      45.690   2.720   8.276  0.00  0.00    +0.000 A 
ATOM     22  C   UNL     1      45.993   3.537   7.170  0.00  0.00    +0.000 A 
ATOM     23  C   UNL     1      46.805   3.084   6.126  0.00  0.00    +0.000 A 
ATOM     24  C   UNL     1      47.323   1.794   6.154  0.00  0.00    +0.000 A 
ATOM     25  C   UNL     1      47.029   0.959   7.226  0.00  0.00    +0.000 A 
ATOM     26  C   UNL     1      46.226   1.419   8.276  0.00  0.00    +0.000 A 
ENDBRANCH  19  21
ENDBRANCH  14  15
ENDBRANCH   1  14
TORSDOF 5
ENDMDL
MODEL 2
REMARK VINA RESULT:    -8.344      2.287      3.059
REMARK INTER + INTRA:         -11.353
REMARK INTER:                 -10.226
REMARK INTRA:                  -1.127
REMARK UNBOUND:                -0.570
REMARK  Name = 
REMARK  5 active torsions:
REMARK  status: ('A' for Active; 'I' for Inactive)
REMARK    1  A    between atoms: C_2  and  C_4
REMARK    2  A    between atoms: C_9  and  O_10
REMARK    3  A    between atoms: O_10  and  C_11
REMARK    4  A    between atoms: C_11  and  C_12
REMARK    5  A    between atoms: C_16  and  C_17
REMARK                            x       y       z     vdW  Elec       q    Type
REMARK                         _______ _______ _______ _____ _____    ______ ____
ROOT
ATOM      1  O   UNL     1      44.327   6.665  12.645  0.00  0.00    +0.000 OA
ENDROOT
BRANCH   1   7
ATOM      2  C   UNL     1      47.464   8.443  12.322  0.00  0.00    +0.000 A 
ATOM      3  C   UNL     1      48.431   7.490  12.634  0.00  0.00    +0.000 A 
ATOM      4  C   UNL     1      48.040   6.198  12.981  0.00  0.00    +0.000 A 
ATOM      5  C   UNL     1      46.683   5.835  13.013  0.00  0.00    +0.000 A 
ATOM      6 CL   UNL     1      46.406   4.189  13.464  0.00  0.00    +0.000 Cl
ATOM      7  C   UNL     1      45.695   6.782  12.689  0.00  0.00    +0.000 A 
ATOM      8  C   UNL     1      46.108   8.084  12.342  0.00  0.00    +0.000 A 
BRANCH   2  10
ATOM      9  N   UNL     1      47.163  10.857  12.393  0.00  0.00    +0.000 N 
ATOM     10  C   UNL     1      47.920   9.808  11.954  0.00  0.00    +0.000 C 
ATOM     11  O   UNL     1      48.956   9.992  11.326  0.00  0.00    +0.000 OA
ATOM     12  H   UNL     1      47.538  11.783  12.231  0.00  0.00    +0.000 HD
ATOM     13  H   UNL     1      46.455  10.761  13.108  0.00  0.00    +0.000 HD
ENDBRANCH   2  10
ENDBRANCH   1   7
BRANCH   1  14
ATOM     14  C   UNL     1      43.677   6.482  11.395  0.00  0.00    +0.000 C 
BRANCH  14  15
ATOM     15  C   UNL     1      43.759   5.042  10.967  0.00  0.00    +0.000 A 
ATOM     16  C   UNL     1      43.099   4.044  11.669  0.00  0.00    +0.000 A 
ATOM     17  N   UNL     1      43.201   2.729  11.379  0.00  0.00    +0.000 NA
ATOM     18  C   UNL     1      43.999   2.396  10.332  0.00  0.00    +0.000 A 
ATOM     19  C   UNL     1      44.708   3.298   9.537  0.00  0.00    +0.000 A 
ATOM     20  C   UNL     1      44.552   4.651   9.879  0.00  0.00    +0.000 A 
BRANCH  19  21
ATOM     21  C   UNL     1      45.592   2.868   8.430  0.00  0.00    +0.000 A 
ATOM     22  C   UNL     1      45.985   3.761   7.416  0.00  0.00    +0.000 A 
ATOM     23  C   UNL     1      46.855   3.370   6.392  0.00  0.00    +0.000 A 
ATOM     24  C   UNL     1      47.341   2.068   6.349  0.00  0.00    +0.000 A 
ATOM     25  C   UNL     1      46.959   1.159   7.330  0.00  0.00    +0.000 A 
ATOM     26  C   UNL     1      46.098   1.556   8.359  0.00  0.00    +0.000 A 
ENDBRANCH  19  21
ENDBRANCH  14  15
ENDBRANCH   1  14
TORSDOF 5
ENDMDL
MODEL 3
REMARK VINA RESULT:    -7.885      2.488      3.648
REMARK INTER + INTRA:         -10.760
REMARK INTER:                 -10.042
REMARK INTRA:                  -0.718
REMARK UNBOUND:                -0.570
REMARK  Name = 
REMARK  5 active torsions:
REMARK  status: ('A' for Active; 'I' for Inactive)
REMARK    1  A    between atoms: C_2  and  C_4
REMARK    2  A    between atoms: C_9  and  O_10
REMARK    3  A    between atoms: O_10  and  C_11
REMARK    4  A    between atoms: C_11  and  C_12
REMARK    5  A    between atoms: C_16  and  C_17
REMARK                            x       y       z     vdW  Elec       q    Type
REMARK                         _______ _______ _______ _____ _____    ______ ____
ROOT
ATOM      1  O   UNL     1      45.616   6.425  12.183  0.00  0.00    +0.000 OA
ENDROOT
BRANCH   1   7
ATOM      2  C   UNL     1      45.433  10.021  11.813  0.00  0.00    +0.000 A 
ATOM      3  C   UNL     1      46.755  10.444  11.927  0.00  0.00    +0.000 A 
ATOM      4  C   UNL     1      47.763   9.507  12.149  0.00  0.00    +0.000 A 
ATOM      5  C   UNL     1      47.470   8.137  12.252  0.00  0.00    +0.000 A 
ATOM      6 CL   UNL     1      48.855   7.140  12.525  0.00  0.00    +0.000 Cl
ATOM      7  C   UNL     1      46.141   7.692  12.126  0.00  0.00    +0.000 A 
ATOM      8  C   UNL     1      45.135   8.654  11.904  0.00  0.00    +0.000 A 
BRANCH   2  10
ATOM      9  N   UNL     1      43.156  10.824  12.120  0.00  0.00    +0.000 N 
ATOM     10  C   UNL     1      44.388  11.049  11.573  0.00  0.00    +0.000 C 
ATOM     11  O   UNL     1      44.629  12.079  10.955  0.00  0.00    +0.000 OA
ATOM     12  H   UNL     1      42.484  11.577  12.043  0.00  0.00    +0.000 HD
ATOM     13  H   UNL     1      42.991  10.124  12.830  0.00  0.00    +0.000 HD
ENDBRANCH   2  10
ENDBRANCH   1   7
BRANCH   1  14
ATOM     14  C   UNL     1      44.290   6.192  11.728  0.00  0.00    +0.000 C 
BRANCH  14  15
ATOM     15  C   UNL     1      44.177   4.820  11.122  0.00  0.00    +0.000 A 
ATOM     16  C   UNL     1      43.367   3.848  11.691  0.00  0.00    +0.000 A 
ATOM     17  N   UNL     1      43.289   2.578  11.239  0.00  0.00    +0.000 NA
ATOM     18  C   UNL     1      44.054   2.266  10.161  0.00  0.00    +0.000 A 
ATOM     19  C   UNL     1      44.899   3.149   9.487  0.00  0.00    +0.000 A 
ATOM     20  C   UNL     1      44.929   4.457   9.996  0.00  0.00    +0.000 A 
BRANCH  19  21
ATOM     21  C   UNL     1      45.737   2.737   8.338  0.00  0.00    +0.000 A 
ATOM     22  C   UNL     1      46.080   3.645   7.318  0.00  0.00    +0.000 A 
ATOM     23  C   UNL     1      46.906   3.271   6.253  0.00  0.00    +0.000 A 
ATOM     24  C   UNL     1      47.399   1.974   6.174  0.00  0.00    +0.000 A 
ATOM     25  C   UNL     1      47.065   1.051   7.159  0.00  0.00    +0.000 A 
ATOM     26  C   UNL     1      46.248   1.430   8.230  0.00  0.00    +0.000 A 
ENDBRANCH  19  21
ENDBRANCH  14  15
ENDBRANCH   1  14
TORSDOF 5
ENDMDL
MODEL 4
REMARK VINA RESULT:    -7.624      3.302      7.131
REMARK INTER + INTRA:         -10.422
REMARK INTER:                  -9.740
REMARK INTRA:                  -0.682
REMARK UNBOUND:                -0.570
REMARK  Name = 
REMARK  5 active torsions:
REMARK  status: ('A' for Active; 'I' for Inactive)
REMARK    1  A    between atoms: C_2  and  C_4
REMARK    2  A    between atoms: C_9  and  O_10
REMARK    3  A    between atoms: O_10  and  C_11
REMARK    4  A    between atoms: C_11  and  C_12
REMARK    5  A    between atoms: C_16  and  C_17
REMARK                            x       y       z     vdW  Elec       q    Type
REMARK                         _______ _______ _______ _____ _____    ______ ____
ROOT
ATOM      1  O   UNL     1      44.982   5.426   9.674  0.00  0.00    +0.000 OA
ENDROOT
BRANCH   1   7
ATOM      2  C   UNL     1      46.416   2.925   7.485  0.00  0.00    +0.000 A 
ATOM      3  C   UNL     1      45.928   1.717   7.981  0.00  0.00    +0.000 A 
ATOM      4  C   UNL     1      45.095   1.716   9.098  0.00  0.00    +0.000 A 
ATOM      5  C   UNL     1      44.729   2.915   9.731  0.00  0.00    +0.000 A 
ATOM      6 CL   UNL     1      43.689   2.701  11.096  0.00  0.00    +0.000 Cl
ATOM      7  C   UNL     1      45.202   4.144   9.236  0.00  0.00    +0.000 A 
ATOM      8  C   UNL     1      46.045   4.126   8.106  0.00  0.00    +0.000 A 
BRANCH   2  10
ATOM      9  N   UNL     1      48.613   2.578   6.498  0.00  0.00    +0.000 N 
ATOM     10  C   UNL     1      47.298   2.885   6.291  0.00  0.00    +0.000 C 
ATOM     11  O   UNL     1      46.861   3.071   5.162  0.00  0.00    +0.000 OA
ATOM     12  H   UNL     1      49.182   2.448   5.671  0.00  0.00    +0.000 HD
ATOM     13  H   UNL     1      48.954   2.183   7.364  0.00  0.00    +0.000 HD
ENDBRANCH   2  10
ENDBRANCH   1   7
BRANCH   1  14
ATOM     14  C   UNL     1      44.747   5.668  11.054  0.00  0.00    +0.000 C 
BRANCH  14  15
ATOM     15  C   UNL     1      46.050   5.847  11.785  0.00  0.00    +0.000 A 
ATOM     16  C   UNL     1      46.345   5.108  12.921  0.00  0.00    +0.000 A 
ATOM     17  N   UNL     1      47.460   5.284  13.662  0.00  0.00    +0.000 NA
ATOM     18  C   UNL     1      48.326   6.242  13.243  0.00  0.00    +0.000 A 
ATOM     19  C   UNL     1      48.157   7.045  12.113  0.00  0.00    +0.000 A 
ATOM     20  C   UNL     1      46.985   6.808  11.378  0.00  0.00    +0.000 A 
BRANCH  19  21
ATOM     21  C   UNL     1      49.123   8.100  11.729  0.00  0.00    +0.000 A 
ATOM     22  C   UNL     1      50.461   7.792  11.419  0.00  0.00    +0.000 A 
ATOM     23  C   UNL     1      51.364   8.780  11.014  0.00  0.00    +0.000 A 
ATOM     24  C   UNL     1      50.956  10.105  10.925  0.00  0.00    +0.000 A 
ATOM     25  C   UNL     1      49.643  10.442  11.239  0.00  0.00    +0.000 A 
ATOM     26  C   UNL     1      48.738   9.451  11.633  0.00  0.00    +0.000 A 
ENDBRANCH  19  21
ENDBRANCH  14  15
ENDBRANCH   1  14
TORSDOF 5
ENDMDL
MODEL 5
REMARK VINA RESULT:    -7.403      1.799      2.308
REMARK INTER + INTRA:         -10.138
REMARK INTER:                  -9.246
REMARK INTRA:                  -0.891
REMARK UNBOUND:                -0.570
REMARK  Name = 
REMARK  5 active torsions:
REMARK  status: ('A' for Active; 'I' for Inactive)
REMARK    1  A    between atoms: C_2  and  C_4
REMARK    2  A    between atoms: C_9  and  O_10
REMARK    3  A    between atoms: O_10  and  C_11
REMARK    4  A    between atoms: C_11  and  C_12
REMARK    5  A    between atoms: C_16  and  C_17
REMARK                            x       y       z     vdW  Elec       q    Type
REMARK                         _______ _______ _______ _____ _____    ______ ____
ROOT
ATOM      1  O   UNL     1      46.230   3.744  13.649  0.00  0.00    +0.000 OA
ENDROOT
BRANCH   1   7
ATOM      2  C   UNL     1      48.094   5.091  16.444  0.00  0.00    +0.000 A 
ATOM      3  C   UNL     1      48.626   6.284  15.958  0.00  0.00    +0.000 A 
ATOM      4  C   UNL     1      48.374   6.665  14.641  0.00  0.00    +0.000 A 
ATOM      5  C   UNL     1      47.582   5.871  13.795  0.00  0.00    +0.000 A 
ATOM      6 CL   UNL     1      47.386   6.518  12.203  0.00  0.00    +0.000 Cl
ATOM      7  C   UNL     1      47.028   4.670  14.274  0.00  0.00    +0.000 A 
ATOM      8  C   UNL     1      47.295   4.299  15.608  0.00  0.00    +0.000 A 
BRANCH   2  10
ATOM      9  N   UNL     1      47.332   4.729  18.727  0.00  0.00    +0.000 N 
ATOM     10  C   UNL     1      48.383   4.721  17.853  0.00  0.00    +0.000 C 
ATOM     11  O   UNL     1      49.502   4.374  18.211  0.00  0.00    +0.000 OA
ATOM     12  H   UNL     1      47.515   4.372  19.657  0.00  0.00    +0.000 HD
ATOM     13  H   UNL     1      46.368   4.766  18.425  0.00  0.00    +0.000 HD
ENDBRANCH   2  10
ENDBRANCH   1   7
BRANCH   1  14
ATOM     14  C   UNL     1      44.850   4.020  13.455  0.00  0.00    +0.000 C 
BRANCH  14  15
ATOM     15  C   UNL     1      44.562   4.252  11.997  0.00  0.00    +0.000 A 
ATOM     16  C   UNL     1      43.527   5.083  11.591  0.00  0.00    +0.000 A 
ATOM     17  N   UNL     1      43.172   5.264  10.301  0.00  0.00    +0.000 NA
ATOM     18  C   UNL     1      43.890   4.585   9.370  0.00  0.00    +0.000 A 
ATOM     19  C   UNL     1      44.960   3.730   9.640  0.00  0.00    +0.000 A 
ATOM     20  C   UNL     1      45.290   3.592  10.998  0.00  0.00    +0.000 A 
BRANCH  19  21
ATOM     21  C   UNL     1      45.681   2.989   8.580  0.00  0.00    +0.000 A 
ATOM     22  C   UNL     1      46.238   3.653   7.471  0.00  0.00    +0.000 A 
ATOM     23  C   UNL     1      46.957   2.962   6.489  0.00  0.00    +0.000 A 
ATOM     24  C   UNL     1      47.123   1.585   6.585  0.00  0.00    +0.000 A 
ATOM     25  C   UNL     1      46.572   0.900   7.663  0.00  0.00    +0.000 A 
ATOM     26  C   UNL     1      45.863   1.595   8.650  0.00  0.00    +0.000 A 
ENDBRANCH  19  21
ENDBRANCH  14  15
ENDBRANCH   1  14
TORSDOF 5
ENDMDL
MODEL 6
REMARK VINA RESULT:    -7.323      2.898      6.416
REMARK INTER + INTRA:         -10.034
REMARK INTER:                  -9.187
REMARK INTRA:                  -0.847
REMARK UNBOUND:                -0.570
REMARK  Name = 
REMARK  5 active torsions:
REMARK  status: ('A' for Active; 'I' for Inactive)
REMARK    1  A    between atoms: C_2  and  C_4
REMARK    2  A    between atoms: C_9  and  O_10
REMARK    3  A    between atoms: O_10  and  C_11
REMARK    4  A    between atoms: C_11  and  C_12
REMARK    5  A    between atoms: C_16  and  C_17
REMARK                            x       y       z     vdW  Elec       q    Type
REMARK                         _______ _______ _______ _____ _____    ______ ____
ROOT
ATOM      1  O   UNL     1      43.638   2.302  10.537  0.00  0.00    +0.000 OA
ENDROOT
BRANCH   1   7
ATOM      2  C   UNL     1      46.177   1.892   7.989  0.00  0.00    +0.000 A 
ATOM      3  C   UNL     1      46.390   3.183   7.509  0.00  0.00    +0.000 A 
ATOM      4  C   UNL     1      45.658   4.245   8.036  0.00  0.00    +0.000 A 
ATOM      5  C   UNL     1      44.711   4.039   9.053  0.00  0.00    +0.000 A 
ATOM      6 CL   UNL     1      43.912   5.482   9.571  0.00  0.00    +0.000 Cl
ATOM      7  C   UNL     1      44.492   2.745   9.557  0.00  0.00    +0.000 A 
ATOM      8  C   UNL     1      45.240   1.682   9.011  0.00  0.00    +0.000 A 
BRANCH   2  10
ATOM      9  N   UNL     1      47.811   1.102   6.368  0.00  0.00    +0.000 N 
ATOM     10  C   UNL     1      46.978   0.787   7.405  0.00  0.00    +0.000 C 
ATOM     11  O   UNL     1      46.936  -0.349   7.861  0.00  0.00    +0.000 OA
ATOM     12  H   UNL     1      48.430   0.368   6.048  0.00  0.00    +0.000 HD
ATOM     13  H   UNL     1      48.054   2.054   6.130  0.00  0.00    +0.000 HD
ENDBRANCH   2  10
ENDBRANCH   1   7
BRANCH   1  14
ATOM     14  C   UNL     1      44.069   2.288  11.891  0.00  0.00    +0.000 C 
BRANCH  14  15
ATOM     15  C   UNL     1      44.248   3.692  12.399  0.00  0.00    +0.000 A 
ATOM     16  C   UNL     1      43.163   4.457  12.799  0.00  0.00    +0.000 A 
ATOM     17  N   UNL     1      43.255   5.747  13.186  0.00  0.00    +0.000 NA
ATOM     18  C   UNL     1      44.496   6.299  13.178  0.00  0.00    +0.000 A 
ATOM     19  C   UNL     1      45.671   5.640  12.812  0.00  0.00    +0.000 A 
ATOM     20  C   UNL     1      45.512   4.298  12.431  0.00  0.00    +0.000 A 
BRANCH  19  21
ATOM     21  C   UNL     1      46.991   6.309  12.789  0.00  0.00    +0.000 A 
ATOM     22  C   UNL     1      47.449   6.989  11.645  0.00  0.00    +0.000 A 
ATOM     23  C   UNL     1      48.677   7.659  11.633  0.00  0.00    +0.000 A 
ATOM     24  C   UNL     1      49.486   7.653  12.764  0.00  0.00    +0.000 A 
ATOM     25  C   UNL     1      49.066   6.978  13.905  0.00  0.00    +0.000 A 
ATOM     26  C   UNL     1      47.832   6.318  13.918  0.00  0.00    +0.000 A 
ENDBRANCH  19  21
ENDBRANCH  14  15
ENDBRANCH   1  14
TORSDOF 5
ENDMDL
MODEL 7
REMARK VINA RESULT:    -7.299      3.126      7.522
REMARK INTER + INTRA:         -10.003
REMARK INTER:                  -9.492
REMARK INTRA:                  -0.510
REMARK UNBOUND:                -0.570
REMARK  Name = 
REMARK  5 active torsions:
REMARK  status: ('A' for Active; 'I' for Inactive)
REMARK    1  A    between atoms: C_2  and  C_4
REMARK    2  A    between atoms: C_9  and  O_10
REMARK    3  A    between atoms: O_10  and  C_11
REMARK    4  A    between atoms: C_11  and  C_12
REMARK    5  A    between atoms: C_16  and  C_17
REMARK                            x       y       z     vdW  Elec       q    Type
REMARK                         _______ _______ _______ _____ _____    ______ ____
ROOT
ATOM      1  O   UNL     1      45.274   5.542   9.766  0.00  0.00    +0.000 OA
ENDROOT
BRANCH   1   7
ATOM      2  C   UNL     1      46.368   2.920   7.523  0.00  0.00    +0.000 A 
ATOM      3  C   UNL     1      45.743   1.773   8.008  0.00  0.00    +0.000 A 
ATOM      4  C   UNL     1      44.929   1.855   9.137  0.00  0.00    +0.000 A 
ATOM      5  C   UNL     1      44.718   3.080   9.791  0.00  0.00    +0.000 A 
ATOM      6 CL   UNL     1      43.677   2.972  11.167  0.00  0.00    +0.000 Cl
ATOM      7  C   UNL     1      45.332   4.250   9.308  0.00  0.00    +0.000 A 
ATOM      8  C   UNL     1      46.153   4.148   8.166  0.00  0.00    +0.000 A 
BRANCH   2  10
ATOM      9  N   UNL     1      48.558   2.574   6.520  0.00  0.00    +0.000 N 
ATOM     10  C   UNL     1      47.225   2.793   6.317  0.00  0.00    +0.000 C 
ATOM     11  O   UNL     1      46.754   2.833   5.186  0.00  0.00    +0.000 OA
ATOM     12  H   UNL     1      49.114   2.382   5.697  0.00  0.00    +0.000 HD
ATOM     13  H   UNL     1      48.937   2.293   7.414  0.00  0.00    +0.000 HD
ENDBRANCH   2  10
ENDBRANCH   1   7
BRANCH   1  14
ATOM     14  C   UNL     1      44.924   5.793  11.121  0.00  0.00    +0.000 C 
BRANCH  14  15
ATOM     15  C   UNL     1      46.148   6.144  11.922  0.00  0.00    +0.000 A 
ATOM     16  C   UNL     1      47.147   6.950  11.394  0.00  0.00    +0.000 A 
ATOM     17  N   UNL     1      48.301   7.231  12.035  0.00  0.00    +0.000 NA
ATOM     18  C   UNL     1      48.464   6.685  13.267  0.00  0.00    +0.000 A 
ATOM     19  C   UNL     1      47.535   5.870  13.919  0.00  0.00    +0.000 A 
ATOM     20  C   UNL     1      46.350   5.624  13.207  0.00  0.00    +0.000 A 
BRANCH  19  21
ATOM     21  C   UNL     1      47.788   5.275  15.250  0.00  0.00    +0.000 A 
ATOM     22  C   UNL     1      48.579   5.934  16.210  0.00  0.00    +0.000 A 
ATOM     23  C   UNL     1      48.785   5.395  17.484  0.00  0.00    +0.000 A 
ATOM     24  C   UNL     1      48.216   4.173  17.826  0.00  0.00    +0.000 A 
ATOM     25  C   UNL     1      47.440   3.492  16.893  0.00  0.00    +0.000 A 
ATOM     26  C   UNL     1      47.227   4.039  15.623  0.00  0.00    +0.000 A 
ENDBRANCH  19  21
ENDBRANCH  14  15
ENDBRANCH   1  14
TORSDOF 5
ENDMDL
MODEL 8
REMARK VINA RESULT:    -7.133      1.429      1.716
REMARK INTER + INTRA:          -9.788
REMARK INTER:                  -8.987
REMARK INTRA:                  -0.800
REMARK UNBOUND:                -0.570
REMARK  Name = 
REMARK  5 active torsions:
REMARK  status: ('A' for Active; 'I' for Inactive)
REMARK    1  A    between atoms: C_2  and  C_4
REMARK    2  A    between atoms: C_9  and  O_10
REMARK    3  A    between atoms: O_10  and  C_11
REMARK    4  A    between atoms: C_11  and  C_12
REMARK    5  A    between atoms: C_16  and  C_17
REMARK                            x       y       z     vdW  Elec       q    Type
REMARK                         _______ _______ _______ _____ _____    ______ ____
ROOT
ATOM      1  O   UNL     1      46.892   7.454  11.759  0.00  0.00    +0.000 OA
ENDROOT
BRANCH   1   7
ATOM      2  C   UNL     1      48.676   6.660  14.807  0.00  0.00    +0.000 A 
ATOM      3  C   UNL     1      49.788   7.499  14.781  0.00  0.00    +0.000 A 
ATOM      4  C   UNL     1      49.975   8.363  13.704  0.00  0.00    +0.000 A 
ATOM      5  C   UNL     1      49.054   8.412  12.645  0.00  0.00    +0.000 A 
ATOM      6 CL   UNL     1      49.463   9.549  11.409  0.00  0.00    +0.000 Cl
ATOM      7  C   UNL     1      47.919   7.580  12.662  0.00  0.00    +0.000 A 
ATOM      8  C   UNL     1      47.747   6.711  13.758  0.00  0.00    +0.000 A 
BRANCH   2  10
ATOM      9  N   UNL     1      48.937   6.217  17.186  0.00  0.00    +0.000 N 
ATOM     10  C   UNL     1      48.510   5.755  15.974  0.00  0.00    +0.000 C 
ATOM     11  O   UNL     1      47.968   4.661  15.867  0.00  0.00    +0.000 OA
ATOM     12  H   UNL     1      48.723   5.640  17.990  0.00  0.00    +0.000 HD
ATOM     13  H   UNL     1      49.156   7.189  17.356  0.00  0.00    +0.000 HD
ENDBRANCH   2  10
ENDBRANCH   1   7
BRANCH   1  14
ATOM     14  C   UNL     1      45.555   7.345  12.227  0.00  0.00    +0.000 C 
BRANCH  14  15
ATOM     15  C   UNL     1      44.839   6.229  11.514  0.00  0.00    +0.000 A 
ATOM     16  C   UNL     1      43.550   5.860  11.869  0.00  0.00    +0.000 A 
ATOM     17  N   UNL     1      42.891   4.817  11.320  0.00  0.00    +0.000 NA
ATOM     18  C   UNL     1      43.551   4.111  10.366  0.00  0.00    +0.000 A 
ATOM     19  C   UNL     1      44.842   4.384   9.908  0.00  0.00    +0.000 A 
ATOM     20  C   UNL     1      45.471   5.487  10.507  0.00  0.00    +0.000 A 
BRANCH  19  21
ATOM     21  C   UNL     1      45.522   3.553   8.889  0.00  0.00    +0.000 A 
ATOM     22  C   UNL     1      46.185   4.135   7.792  0.00  0.00    +0.000 A 
ATOM     23  C   UNL     1      46.865   3.356   6.850  0.00  0.00    +0.000 A 
ATOM     24  C   UNL     1      46.886   1.971   6.974  0.00  0.00    +0.000 A 
ATOM     25  C   UNL     1      46.228   1.367   8.040  0.00  0.00    +0.000 A 
ATOM     26  C   UNL     1      45.558   2.149   8.987  0.00  0.00    +0.000 A 
ENDBRANCH  19  21
ENDBRANCH  14  15
ENDBRANCH   1  14
TORSDOF 5
ENDMDL
MODEL 9
REMARK VINA RESULT:    -7.046      3.897      8.058
REMARK INTER + INTRA:          -9.676
REMARK INTER:                  -9.053
REMARK INTRA:                  -0.623
REMARK UNBOUND:                -0.570
REMARK  Name = 
REMARK  5 active torsions:
REMARK  status: ('A' for Active; 'I' for Inactive)
REMARK    1  A    between atoms: C_2  and  C_4
REMARK    2  A    between atoms: C_9  and  O_10
REMARK    3  A    between atoms: O_10  and  C_11
REMARK    4  A    between atoms: C_11  and  C_12
REMARK    5  A    between atoms: C_16  and  C_17
REMARK                            x       y       z     vdW  Elec       q    Type
REMARK                         _______ _______ _______ _____ _____    ______ ____
ROOT
ATOM      1  O   UNL     1      47.611   4.934  14.456  0.00  0.00    +0.000 OA
ENDROOT
BRANCH   1   7
ATOM      2  C   UNL     1      44.966   4.449  12.033  0.00  0.00    +0.000 A 
ATOM      3  C   UNL     1      45.190   5.440  11.079  0.00  0.00    +0.000 A 
ATOM      4  C   UNL     1      46.255   6.324  11.240  0.00  0.00    +0.000 A 
ATOM      5  C   UNL     1      47.116   6.228  12.346  0.00  0.00    +0.000 A 
ATOM      6 CL   UNL     1      48.375   7.414  12.362  0.00  0.00    +0.000 Cl
ATOM      7  C   UNL     1      46.911   5.226  13.311  0.00  0.00    +0.000 A 
ATOM      8  C   UNL     1      45.828   4.342  13.133  0.00  0.00    +0.000 A 
BRANCH   2  10
ATOM      9  N   UNL     1      43.825   2.360  12.539  0.00  0.00    +0.000 N 
ATOM     10  C   UNL     1      43.823   3.524  11.824  0.00  0.00    +0.000 C 
ATOM     11  O   UNL     1      42.890   3.810  11.082  0.00  0.00    +0.000 OA
ATOM     12  H   UNL     1      42.993   1.787  12.473  0.00  0.00    +0.000 HD
ATOM     13  H   UNL     1      44.436   2.203  13.330  0.00  0.00    +0.000 HD
ENDBRANCH   2  10
ENDBRANCH   1   7
BRANCH   1  14
ATOM     14  C   UNL     1      46.969   4.232  15.512  0.00  0.00    +0.000 C 
BRANCH  14  15
ATOM     15  C   UNL     1      47.849   4.198  16.731  0.00  0.00    +0.000 A 
ATOM     16  C   UNL     1      47.515   4.903  17.879  0.00  0.00    +0.000 A 
ATOM     17  N   UNL     1      48.305   4.975  18.972  0.00  0.00    +0.000 NA
ATOM     18  C   UNL     1      49.485   4.305  18.917  0.00  0.00    +0.000 A 
ATOM     19  C   UNL     1      49.935   3.549  17.832  0.00  0.00    +0.000 A 
ATOM     20  C   UNL     1      49.065   3.502  16.731  0.00  0.00    +0.000 A 
BRANCH  19  21
ATOM     21  C   UNL     1      51.251   2.871  17.821  0.00  0.00    +0.000 A 
ATOM     22  C   UNL     1      52.426   3.543  18.207  0.00  0.00    +0.000 A 
ATOM     23  C   UNL     1      53.664   2.893  18.238  0.00  0.00    +0.000 A 
ATOM     24  C   UNL     1      53.761   1.556  17.869  0.00  0.00    +0.000 A 
ATOM     25  C   UNL     1      52.619   0.870  17.469  0.00  0.00    +0.000 A 
ATOM     26  C   UNL     1      51.379   1.519  17.450  0.00  0.00    +0.000 A 
ENDBRANCH  19  21
ENDBRANCH  14  15
ENDBRANCH   1  14
TORSDOF 5
ENDMDL
