MODEL 1
REMARK VINA RESULT:    -8.056      0.000      0.000
REMARK INTER + INTRA:         -12.969
REMARK INTER:                 -12.295
REMARK INTRA:                  -0.674
REMARK UNBOUND:                -0.674
REMARK  Name = 
REMARK  10 active torsions:
REMARK  status: ('A' for Active; 'I' for Inactive)
REMARK    1  A    between atoms: C_1  and  C_2
REMARK    2  A    between atoms: C_2  and  N_3
REMARK    3  A    between atoms: C_2  and  C_19
REMARK    4  A    between atoms: N_3  and  C_4
REMARK    5  A    between atoms: C_4  and  C_5
REMARK    6  A    between atoms: C_8  and  C_9
REMARK    7  A    between atoms: C_9  and  C_10
REMARK    8  A    between atoms: C_10  and  C_11
REMARK    9  A    between atoms: C_11  and  N_12
REMARK   10  A    between atoms: C_19  and  C_21
REMARK                            x       y       z     vdW  Elec       q    Type
REMARK                         _______ _______ _______ _____ _____    ______ ____
ROOT
ATOM      1  N   UNL     1      47.961   5.185  15.276  0.00  0.00    +0.000 NA
ATOM      2  H   UNL     1      47.055   4.803  15.548  0.00  0.00    +0.000 HD
ENDROOT
BRANCH   1   4
ATOM      3  C   UNL     1      49.922   6.495  16.138  0.00  0.00    +0.000 C 
ATOM      4  C   UNL     1      48.614   5.771  16.475  0.00  0.00    +0.000 C 
BRANCH   4   5
ATOM      5  C   UNL     1      48.802   4.722  17.604  0.00  0.00    +0.000 C 
ATOM      6  O   UNL     1      47.822   4.185  18.128  0.00  0.00    +0.000 OA
BRANCH   5   7
ATOM      7  C   UNL     1      50.164   4.350  18.014  0.00  0.00    +0.000 A 
ATOM      8  C   UNL     1      50.950   5.157  18.818  0.00  0.00    +0.000 A 
ATOM      9  S   UNL     1      52.475   4.473  19.171  0.00  0.00    +0.000 S 
ATOM     10  C   UNL     1      52.078   3.035  18.353  0.00  0.00    +0.000 A 
ATOM     11  N   UNL     1      52.894   1.948  18.416  0.00  0.00    +0.000 NA
ATOM     12  C   UNL     1      52.460   0.923  17.762  0.00  0.00    +0.000 A 
ATOM     13  N   UNL     1      51.315   0.904  17.009  0.00  0.00    +0.000 N 
ATOM     14  C   UNL     1      50.454   1.975  16.914  0.00  0.00    +0.000 A 
ATOM     15  O   UNL     1      49.430   1.890  16.246  0.00  0.00    +0.000 OA
ATOM     16  C   UNL     1      50.863   3.129  17.697  0.00  0.00    +0.000 A 
ATOM     17  H   UNL     1      51.044   0.078  16.495  0.00  0.00    +0.000 HD
ENDBRANCH   5   7
ENDBRANCH   4   5
ENDBRANCH   1   4
BRANCH   1  18
ATOM     18  C   UNL     1      47.741   6.162  14.206  0.00  0.00    +0.000 C 
BRANCH  18  19
ATOM     19  C   UNL     1      46.853   5.623  13.109  0.00  0.00    +0.000 A 
ATOM     20  C   UNL     1      46.040   4.505  13.338  0.00  0.00    +0.000 A 
ATOM     21  C   UNL     1      45.131   4.075  12.367  0.00  0.00    +0.000 A 
ATOM     22  C   UNL     1      45.016   4.758  11.149  0.00  0.00    +0.000 A 
ATOM     23  C   UNL     1      45.871   5.839  10.899  0.00  0.00    +0.000 A 
ATOM     24  C   UNL     1      46.785   6.264  11.867  0.00  0.00    +0.000 A 
BRANCH  22  25
ATOM     25  C   UNL     1      43.991   4.348  10.120  0.00  0.00    +0.000 C 
BRANCH  25  26
ATOM     26  C   UNL     1      44.593   3.861   8.797  0.00  0.00    +0.000 C 
BRANCH  26  27
ATOM     27  C   UNL     1      45.159   2.442   8.878  0.00  0.00    +0.000 C 
BRANCH  27  28
ATOM     28  N   UNL     1      46.282   2.267   7.974  0.00  0.00    +0.000 N 
ATOM     29  C   UNL     1      46.932   3.243   7.279  0.00  0.00    +0.000 A 
ATOM     30  C   UNL     1      47.918   2.591   6.582  0.00  0.00    +0.000 A 
ATOM     31  N   UNL     1      47.877   1.241   6.832  0.00  0.00    +0.000 NA
ATOM     32  C   UNL     1      46.876   1.075   7.668  0.00  0.00    +0.000 A 
ENDBRANCH  27  28
ENDBRANCH  26  27
ENDBRANCH  25  26
ENDBRANCH  22  25
ENDBRANCH  18  19
ENDBRANCH   1  18
TORSDOF 9
ENDMDL
MODEL 2
REMARK VINA RESULT:    -7.283      1.437      2.092
REMARK INTER + INTRA:         -11.788
REMARK INTER:                 -10.412
REMARK INTRA:                  -1.376
REMARK UNBOUND:                -0.674
REMARK  Name = 
REMARK  10 active torsions:
REMARK  status: ('A' for Active; 'I' for Inactive)
REMARK    1  A    between atoms: C_1  and  C_2
REMARK    2  A    between atoms: C_2  and  N_3
REMARK    3  A    between atoms: C_2  and  C_19
REMARK    4  A    between atoms: N_3  and  C_4
REMARK    5  A    between atoms: C_4  and  C_5
REMARK    6  A    between atoms: C_8  and  C_9
REMARK    7  A    between atoms: C_9  and  C_10
REMARK    8  A    between atoms: C_10  and  C_11
REMARK    9  A    between atoms: C_11  and  N_12
REMARK   10  A    between atoms: C_19  and  C_21
REMARK                            x       y       z     vdW  Elec       q    Type
REMARK                         _______ _______ _______ _____ _____    ______ ____
ROOT
ATOM      1  N   UNL     1      47.742   7.224  14.910  0.00  0.00    +0.000 NA
ATOM      2  H   UNL     1      46.939   7.811  14.683  0.00  0.00    +0.000 HD
ENDROOT
BRANCH   1   4
ATOM      3  C   UNL     1      50.024   8.248  14.693  0.00  0.00    +0.000 C 
ATOM      4  C   UNL     1      48.779   8.062  15.567  0.00  0.00    +0.000 C 
BRANCH   4   5
ATOM      5  C   UNL     1      49.134   7.539  16.984  0.00  0.00    +0.000 C 
ATOM      6  O   UNL     1      48.574   8.004  17.981  0.00  0.00    +0.000 OA
BRANCH   5   7
ATOM      7  C   UNL     1      50.122   6.459  17.121  0.00  0.00    +0.000 A 
ATOM      8  C   UNL     1      51.467   6.697  17.341  0.00  0.00    +0.000 A 
ATOM      9  S   UNL     1      52.388   5.267  17.495  0.00  0.00    +0.000 S 
ATOM     10  C   UNL     1      50.995   4.296  17.383  0.00  0.00    +0.000 A 
ATOM     11  N   UNL     1      51.058   2.956  17.610  0.00  0.00    +0.000 NA
ATOM     12  C   UNL     1      49.923   2.349  17.508  0.00  0.00    +0.000 A 
ATOM     13  N   UNL     1      48.746   2.949  17.146  0.00  0.00    +0.000 N 
ATOM     14  C   UNL     1      48.627   4.301  16.908  0.00  0.00    +0.000 A 
ATOM     15  O   UNL     1      47.541   4.786  16.614  0.00  0.00    +0.000 OA
ATOM     16  C   UNL     1      49.866   5.039  17.086  0.00  0.00    +0.000 A 
ATOM     17  H   UNL     1      47.895   2.412  17.054  0.00  0.00    +0.000 HD
ENDBRANCH   5   7
ENDBRANCH   4   5
ENDBRANCH   1   4
BRANCH   1  18
ATOM     18  C   UNL     1      48.210   6.592  13.674  0.00  0.00    +0.000 C 
BRANCH  18  19
ATOM     19  C   UNL     1      47.076   6.020  12.856  0.00  0.00    +0.000 A 
ATOM     20  C   UNL     1      46.699   6.619  11.647  0.00  0.00    +0.000 A 
ATOM     21  C   UNL     1      45.732   6.027  10.829  0.00  0.00    +0.000 A 
ATOM     22  C   UNL     1      45.126   4.821  11.205  0.00  0.00    +0.000 A 
ATOM     23  C   UNL     1      45.462   4.255  12.442  0.00  0.00    +0.000 A 
ATOM     24  C   UNL     1      46.423   4.851  13.262  0.00  0.00    +0.000 A 
BRANCH  22  25
ATOM     25  C   UNL     1      44.132   4.135  10.302  0.00  0.00    +0.000 C 
BRANCH  25  26
ATOM     26  C   UNL     1      44.702   3.727   8.939  0.00  0.00    +0.000 C 
BRANCH  26  27
ATOM     27  C   UNL     1      45.245   2.296   8.916  0.00  0.00    +0.000 C 
BRANCH  27  28
ATOM     28  N   UNL     1      46.313   2.150   7.944  0.00  0.00    +0.000 N 
ATOM     29  C   UNL     1      46.915   3.146   7.235  0.00  0.00    +0.000 A 
ATOM     30  C   UNL     1      47.862   2.517   6.465  0.00  0.00    +0.000 A 
ATOM     31  N   UNL     1      47.842   1.161   6.685  0.00  0.00    +0.000 NA
ATOM     32  C   UNL     1      46.893   0.969   7.575  0.00  0.00    +0.000 A 
ENDBRANCH  27  28
ENDBRANCH  26  27
ENDBRANCH  25  26
ENDBRANCH  22  25
ENDBRANCH  18  19
ENDBRANCH   1  18
TORSDOF 9
ENDMDL
MODEL 3
REMARK VINA RESULT:    -7.278      2.643      3.926
REMARK INTER + INTRA:         -11.781
REMARK INTER:                 -10.777
REMARK INTRA:                  -1.004
REMARK UNBOUND:                -0.674
REMARK  Name = 
REMARK  10 active torsions:
REMARK  status: ('A' for Active; 'I' for Inactive)
REMARK    1  A    between atoms: C_1  and  C_2
REMARK    2  A    between atoms: C_2  and  N_3
REMARK    3  A    between atoms: C_2  and  C_19
REMARK    4  A    between atoms: N_3  and  C_4
REMARK    5  A    between atoms: C_4  and  C_5
REMARK    6  A    between atoms: C_8  and  C_9
REMARK    7  A    between atoms: C_9  and  C_10
REMARK    8  A    between atoms: C_10  and  C_11
REMARK    9  A    between atoms: C_11  and  N_12
REMARK   10  A    between atoms: C_19  and  C_21
REMARK                            x       y       z     vdW  Elec       q    Type
REMARK                         _______ _______ _______ _____ _____    ______ ____
ROOT
ATOM      1  N   UNL     1      46.925   4.626  15.678  0.00  0.00    +0.000 NA
ATOM      2  H   UNL     1      46.629   5.392  16.283  0.00  0.00    +0.000 HD
ENDROOT
BRANCH   1   4
ATOM      3  C   UNL     1      47.257   2.845  17.417  0.00  0.00    +0.000 C 
ATOM      4  C   UNL     1      47.915   3.792  16.408  0.00  0.00    +0.000 C 
BRANCH   4   5
ATOM      5  C   UNL     1      49.031   4.654  17.058  0.00  0.00    +0.000 C 
ATOM      6  O   UNL     1      50.201   4.260  17.067  0.00  0.00    +0.000 OA
BRANCH   5   7
ATOM      7  C   UNL     1      48.681   5.961  17.632  0.00  0.00    +0.000 A 
ATOM      8  C   UNL     1      47.929   6.095  18.786  0.00  0.00    +0.000 A 
ATOM      9  S   UNL     1      47.696   7.721  19.253  0.00  0.00    +0.000 S 
ATOM     10  C   UNL     1      48.689   8.281  17.990  0.00  0.00    +0.000 A 
ATOM     11  N   UNL     1      49.051   9.590  17.915  0.00  0.00    +0.000 NA
ATOM     12  C   UNL     1      49.820   9.869  16.915  0.00  0.00    +0.000 A 
ATOM     13  N   UNL     1      50.211   8.971  15.956  0.00  0.00    +0.000 N 
ATOM     14  C   UNL     1      49.875   7.636  15.987  0.00  0.00    +0.000 A 
ATOM     15  O   UNL     1      50.277   6.874  15.116  0.00  0.00    +0.000 OA
ATOM     16  C   UNL     1      49.071   7.259  17.139  0.00  0.00    +0.000 A 
ATOM     17  H   UNL     1      50.790   9.258  15.180  0.00  0.00    +0.000 HD
ENDBRANCH   5   7
ENDBRANCH   4   5
ENDBRANCH   1   4
BRANCH   1  18
ATOM     18  C   UNL     1      47.460   5.203  14.442  0.00  0.00    +0.000 C 
BRANCH  18  19
ATOM     19  C   UNL     1      46.528   5.009  13.268  0.00  0.00    +0.000 A 
ATOM     20  C   UNL     1      46.437   5.982  12.264  0.00  0.00    +0.000 A 
ATOM     21  C   UNL     1      45.668   5.754  11.119  0.00  0.00    +0.000 A 
ATOM     22  C   UNL     1      44.978   4.546  10.955  0.00  0.00    +0.000 A 
ATOM     23  C   UNL     1      45.024   3.598  11.987  0.00  0.00    +0.000 A 
ATOM     24  C   UNL     1      45.786   3.829  13.134  0.00  0.00    +0.000 A 
BRANCH  22  25
ATOM     25  C   UNL     1      44.201   4.258   9.695  0.00  0.00    +0.000 C 
BRANCH  25  26
ATOM     26  C   UNL     1      45.076   3.951   8.475  0.00  0.00    +0.000 C 
BRANCH  26  27
ATOM     27  C   UNL     1      45.610   2.517   8.461  0.00  0.00    +0.000 C 
BRANCH  27  28
ATOM     28  N   UNL     1      46.488   2.288   7.328  0.00  0.00    +0.000 N 
ATOM     29  C   UNL     1      46.598   3.060   6.210  0.00  0.00    +0.000 A 
ATOM     30  C   UNL     1      47.558   2.448   5.444  0.00  0.00    +0.000 A 
ATOM     31  N   UNL     1      48.028   1.319   6.068  0.00  0.00    +0.000 NA
ATOM     32  C   UNL     1      47.359   1.244   7.197  0.00  0.00    +0.000 A 
ENDBRANCH  27  28
ENDBRANCH  26  27
ENDBRANCH  25  26
ENDBRANCH  22  25
ENDBRANCH  18  19
ENDBRANCH   1  18
TORSDOF 9
ENDMDL
MODEL 4
REMARK VINA RESULT:    -7.243      1.775      2.263
REMARK INTER + INTRA:         -11.727
REMARK INTER:                 -10.563
REMARK INTRA:                  -1.164
REMARK UNBOUND:                -0.674
REMARK  Name = 
REMARK  10 active torsions:
REMARK  status: ('A' for Active; 'I' for Inactive)
REMARK    1  A    between atoms: C_1  and  C_2
REMARK    2  A    between atoms: C_2  and  N_3
REMARK    3  A    between atoms: C_2  and  C_19
REMARK    4  A    between atoms: N_3  and  C_4
REMARK    5  A    between atoms: C_4  and  C_5
REMARK    6  A    between atoms: C_8  and  C_9
REMARK    7  A    between atoms: C_9  and  C_10
REMARK    8  A    between atoms: C_10  and  C_11
REMARK    9  A    between atoms: C_11  and  N_12
REMARK   10  A    between atoms: C_19  and  C_21
REMARK                            x       y       z     vdW  Elec       q    Type
REMARK                         _______ _______ _______ _____ _____    ______ ____
ROOT
ATOM      1  N   UNL     1      49.062   6.506  14.964  0.00  0.00    +0.000 NA
ATOM      2  H   UNL     1      48.416   5.746  15.178  0.00  0.00    +0.000 HD
ENDROOT
BRANCH   1   4
ATOM      3  C   UNL     1      50.523   8.120  16.215  0.00  0.00    +0.000 C 
ATOM      4  C   UNL     1      49.179   7.388  16.155  0.00  0.00    +0.000 C 
BRANCH   4   5
ATOM      5  C   UNL     1      48.869   6.627  17.472  0.00  0.00    +0.000 C 
ATOM      6  O   UNL     1      48.711   7.245  18.529  0.00  0.00    +0.000 OA
BRANCH   5   7
ATOM      7  C   UNL     1      48.731   5.164  17.437  0.00  0.00    +0.000 A 
ATOM      8  C   UNL     1      47.518   4.532  17.224  0.00  0.00    +0.000 A 
ATOM      9  S   UNL     1      47.643   2.828  17.197  0.00  0.00    +0.000 S 
ATOM     10  C   UNL     1      49.335   2.898  17.355  0.00  0.00    +0.000 A 
ATOM     11  N   UNL     1      50.094   1.775  17.231  0.00  0.00    +0.000 NA
ATOM     12  C   UNL     1      51.363   1.979  17.357  0.00  0.00    +0.000 A 
ATOM     13  N   UNL     1      51.935   3.190  17.650  0.00  0.00    +0.000 N 
ATOM     14  C   UNL     1      51.213   4.355  17.783  0.00  0.00    +0.000 A 
ATOM     15  O   UNL     1      51.783   5.414  18.018  0.00  0.00    +0.000 OA
ATOM     16  C   UNL     1      49.784   4.188  17.573  0.00  0.00    +0.000 A 
ATOM     17  H   UNL     1      52.934   3.279  17.765  0.00  0.00    +0.000 HD
ENDBRANCH   5   7
ENDBRANCH   4   5
ENDBRANCH   1   4
BRANCH   1  18
ATOM     18  C   UNL     1      48.567   7.206  13.777  0.00  0.00    +0.000 C 
BRANCH  18  19
ATOM     19  C   UNL     1      47.557   6.386  13.007  0.00  0.00    +0.000 A 
ATOM     20  C   UNL     1      47.001   5.231  13.570  0.00  0.00    +0.000 A 
ATOM     21  C   UNL     1      45.981   4.538  12.912  0.00  0.00    +0.000 A 
ATOM     22  C   UNL     1      45.497   4.989  11.678  0.00  0.00    +0.000 A 
ATOM     23  C   UNL     1      46.095   6.111  11.088  0.00  0.00    +0.000 A 
ATOM     24  C   UNL     1      47.119   6.799  11.743  0.00  0.00    +0.000 A 
BRANCH  22  25
ATOM     25  C   UNL     1      44.350   4.291  10.988  0.00  0.00    +0.000 C 
BRANCH  25  26
ATOM     26  C   UNL     1      44.756   3.025  10.224  0.00  0.00    +0.000 C 
BRANCH  26  27
ATOM     27  C   UNL     1      44.637   3.174   8.706  0.00  0.00    +0.000 C 
BRANCH  27  28
ATOM     28  N   UNL     1      45.828   2.692   8.030  0.00  0.00    +0.000 N 
ATOM     29  C   UNL     1      46.301   1.414   8.020  0.00  0.00    +0.000 A 
ATOM     30  C   UNL     1      47.432   1.457   7.244  0.00  0.00    +0.000 A 
ATOM     31  N   UNL     1      47.660   2.732   6.789  0.00  0.00    +0.000 NA
ATOM     32  C   UNL     1      46.682   3.456   7.286  0.00  0.00    +0.000 A 
ENDBRANCH  27  28
ENDBRANCH  26  27
ENDBRANCH  25  26
ENDBRANCH  22  25
ENDBRANCH  18  19
ENDBRANCH   1  18
TORSDOF 9
ENDMDL
MODEL 5
REMARK VINA RESULT:    -7.053      3.770      8.945
REMARK INTER + INTRA:         -11.437
REMARK INTER:                  -9.896
REMARK INTRA:                  -1.541
REMARK UNBOUND:                -0.674
REMARK  Name = 
REMARK  10 active torsions:
REMARK  status: ('A' for Active; 'I' for Inactive)
REMARK    1  A    between atoms: C_1  and  C_2
REMARK    2  A    between atoms: C_2  and  N_3
REMARK    3  A    between atoms: C_2  and  C_19
REMARK    4  A    between atoms: N_3  and  C_4
REMARK    5  A    between atoms: C_4  and  C_5
REMARK    6  A    between atoms: C_8  and  C_9
REMARK    7  A    between atoms: C_9  and  C_10
REMARK    8  A    between atoms: C_10  and  C_11
REMARK    9  A    between atoms: C_11  and  N_12
REMARK   10  A    between atoms: C_19  and  C_21
REMARK                            x       y       z     vdW  Elec       q    Type
REMARK                         _______ _______ _______ _____ _____    ______ ____
ROOT
ATOM      1  N   UNL     1      46.525   8.271  13.625  0.00  0.00    +0.000 NA
ATOM      2  H   UNL     1      46.136   7.933  14.506  0.00  0.00    +0.000 HD
ENDROOT
BRANCH   1   4
ATOM      3  C   UNL     1      47.797   7.287  11.697  0.00  0.00    +0.000 C 
ATOM      4  C   UNL     1      46.630   7.131  12.677  0.00  0.00    +0.000 C 
BRANCH   4   5
ATOM      5  C   UNL     1      45.287   6.860  11.948  0.00  0.00    +0.000 C 
ATOM      6  O   UNL     1      44.654   7.788  11.435  0.00  0.00    +0.000 OA
BRANCH   5   7
ATOM      7  C   UNL     1      44.798   5.478  11.843  0.00  0.00    +0.000 A 
ATOM      8  C   UNL     1      44.100   4.852  12.861  0.00  0.00    +0.000 A 
ATOM      9  S   UNL     1      43.618   3.261  12.468  0.00  0.00    +0.000 S 
ATOM     10  C   UNL     1      44.231   3.410  10.888  0.00  0.00    +0.000 A 
ATOM     11  N   UNL     1      43.996   2.448   9.955  0.00  0.00    +0.000 NA
ATOM     12  C   UNL     1      44.506   2.701   8.796  0.00  0.00    +0.000 A 
ATOM     13  N   UNL     1      45.275   3.797   8.502  0.00  0.00    +0.000 N 
ATOM     14  C   UNL     1      45.541   4.799   9.409  0.00  0.00    +0.000 A 
ATOM     15  O   UNL     1      46.213   5.770   9.081  0.00  0.00    +0.000 OA
ATOM     16  C   UNL     1      44.922   4.595  10.709  0.00  0.00    +0.000 A 
ATOM     17  H   UNL     1      45.671   3.923   7.582  0.00  0.00    +0.000 HD
ENDBRANCH   5   7
ENDBRANCH   4   5
ENDBRANCH   1   4
BRANCH   1  18
ATOM     18  C   UNL     1      47.816   8.903  13.909  0.00  0.00    +0.000 C 
BRANCH  18  19
ATOM     19  C   UNL     1      48.432   8.400  15.195  0.00  0.00    +0.000 A 
ATOM     20  C   UNL     1      48.119   9.006  16.418  0.00  0.00    +0.000 A 
ATOM     21  C   UNL     1      48.591   8.471  17.620  0.00  0.00    +0.000 A 
ATOM     22  C   UNL     1      49.384   7.317  17.620  0.00  0.00    +0.000 A 
ATOM     23  C   UNL     1      49.745   6.746  16.392  0.00  0.00    +0.000 A 
ATOM     24  C   UNL     1      49.278   7.285  15.191  0.00  0.00    +0.000 A 
BRANCH  22  25
ATOM     25  C   UNL     1      49.844   6.689  18.913  0.00  0.00    +0.000 C 
BRANCH  25  26
ATOM     26  C   UNL     1      48.727   6.008  19.711  0.00  0.00    +0.000 C 
BRANCH  26  27
ATOM     27  C   UNL     1      48.794   4.480  19.662  0.00  0.00    +0.000 C 
BRANCH  27  28
ATOM     28  N   UNL     1      48.446   3.977  18.345  0.00  0.00    +0.000 N 
ATOM     29  C   UNL     1      47.300   4.227  17.651  0.00  0.00    +0.000 A 
ATOM     30  C   UNL     1      47.441   3.546  16.468  0.00  0.00    +0.000 A 
ATOM     31  N   UNL     1      48.643   2.884  16.431  0.00  0.00    +0.000 NA
ATOM     32  C   UNL     1      49.223   3.155  17.579  0.00  0.00    +0.000 A 
ENDBRANCH  27  28
ENDBRANCH  26  27
ENDBRANCH  25  26
ENDBRANCH  22  25
ENDBRANCH  18  19
ENDBRANCH   1  18
TORSDOF 9
ENDMDL
MODEL 6
REMARK VINA RESULT:    -6.887      5.291      7.349
REMARK INTER + INTRA:         -11.184
REMARK INTER:                 -10.025
REMARK INTRA:                  -1.159
REMARK UNBOUND:                -0.674
REMARK  Name = 
REMARK  10 active torsions:
REMARK  status: ('A' for Active; 'I' for Inactive)
REMARK    1  A    between atoms: C_1  and  C_2
REMARK    2  A    between atoms: C_2  and  N_3
REMARK    3  A    between atoms: C_2  and  C_19
REMARK    4  A    between atoms: N_3  and  C_4
REMARK    5  A    between atoms: C_4  and  C_5
REMARK    6  A    between atoms: C_8  and  C_9
REMARK    7  A    between atoms: C_9  and  C_10
REMARK    8  A    between atoms: C_10  and  C_11
REMARK    9  A    between atoms: C_11  and  N_12
REMARK   10  A    between atoms: C_19  and  C_21
REMARK                            x       y       z     vdW  Elec       q    Type
REMARK                         _______ _______ _______ _____ _____    ______ ____
ROOT
ATOM      1  N   UNL     1      49.044   7.450  11.835  0.00  0.00    +0.000 NA
ATOM      2  H   UNL     1      49.835   6.812  11.749  0.00  0.00    +0.000 HD
ENDROOT
BRANCH   1   4
ATOM      3  C   UNL     1      50.825   8.788  12.994  0.00  0.00    +0.000 C 
ATOM      4  C   UNL     1      49.555   8.813  12.137  0.00  0.00    +0.000 C 
BRANCH   4   5
ATOM      5  C   UNL     1      48.456   9.722  12.749  0.00  0.00    +0.000 C 
ATOM      6  O   UNL     1      48.304   9.782  13.973  0.00  0.00    +0.000 OA
BRANCH   5   7
ATOM      7  C   UNL     1      47.622  10.537  11.854  0.00  0.00    +0.000 A 
ATOM      8  C   UNL     1      48.152  11.477  10.988  0.00  0.00    +0.000 A 
ATOM      9  S   UNL     1      46.967  12.260  10.038  0.00  0.00    +0.000 S 
ATOM     10  C   UNL     1      45.732  11.282  10.679  0.00  0.00    +0.000 A 
ATOM     11  N   UNL     1      44.473  11.319  10.163  0.00  0.00    +0.000 NA
ATOM     12  C   UNL     1      43.643  10.513  10.736  0.00  0.00    +0.000 A 
ATOM     13  N   UNL     1      43.943   9.716  11.810  0.00  0.00    +0.000 N 
ATOM     14  C   UNL     1      45.200   9.639  12.368  0.00  0.00    +0.000 A 
ATOM     15  O   UNL     1      45.415   8.887  13.311  0.00  0.00    +0.000 OA
ATOM     16  C   UNL     1      46.188  10.475  11.706  0.00  0.00    +0.000 A 
ATOM     17  H   UNL     1      43.240   9.127  12.233  0.00  0.00    +0.000 HD
ENDBRANCH   5   7
ENDBRANCH   4   5
ENDBRANCH   1   4
BRANCH   1  18
ATOM     18  C   UNL     1      48.149   6.929  12.872  0.00  0.00    +0.000 C 
BRANCH  18  19
ATOM     19  C   UNL     1      47.005   6.129  12.294  0.00  0.00    +0.000 A 
ATOM     20  C   UNL     1      46.473   6.453  11.039  0.00  0.00    +0.000 A 
ATOM     21  C   UNL     1      45.497   5.646  10.449  0.00  0.00    +0.000 A 
ATOM     22  C   UNL     1      45.035   4.496  11.104  0.00  0.00    +0.000 A 
ATOM     23  C   UNL     1      45.525   4.207  12.384  0.00  0.00    +0.000 A 
ATOM     24  C   UNL     1      46.495   5.018  12.976  0.00  0.00    +0.000 A 
BRANCH  22  25
ATOM     25  C   UNL     1      44.032   3.578  10.450  0.00  0.00    +0.000 C 
BRANCH  25  26
ATOM     26  C   UNL     1      44.405   3.156   9.024  0.00  0.00    +0.000 C 
BRANCH  26  27
ATOM     27  C   UNL     1      45.246   1.879   8.974  0.00  0.00    +0.000 C 
BRANCH  27  28
ATOM     28  N   UNL     1      46.301   1.978   7.982  0.00  0.00    +0.000 N 
ATOM     29  C   UNL     1      46.721   3.107   7.345  0.00  0.00    +0.000 A 
ATOM     30  C   UNL     1      47.738   2.696   6.520  0.00  0.00    +0.000 A 
ATOM     31  N   UNL     1      47.940   1.343   6.636  0.00  0.00    +0.000 NA
ATOM     32  C   UNL     1      47.054   0.936   7.518  0.00  0.00    +0.000 A 
ENDBRANCH  27  28
ENDBRANCH  26  27
ENDBRANCH  25  26
ENDBRANCH  22  25
ENDBRANCH  18  19
ENDBRANCH   1  18
TORSDOF 9
ENDMDL
MODEL 7
REMARK VINA RESULT:    -6.879      2.181      3.133
REMARK INTER + INTRA:         -11.172
REMARK INTER:                 -10.191
REMARK INTRA:                  -0.981
REMARK UNBOUND:                -0.674
REMARK  Name = 
REMARK  10 active torsions:
REMARK  status: ('A' for Active; 'I' for Inactive)
REMARK    1  A    between atoms: C_1  and  C_2
REMARK    2  A    between atoms: C_2  and  N_3
REMARK    3  A    between atoms: C_2  and  C_19
REMARK    4  A    between atoms: N_3  and  C_4
REMARK    5  A    between atoms: C_4  and  C_5
REMARK    6  A    between atoms: C_8  and  C_9
REMARK    7  A    between atoms: C_9  and  C_10
REMARK    8  A    between atoms: C_10  and  C_11
REMARK    9  A    between atoms: C_11  and  N_12
REMARK   10  A    between atoms: C_19  and  C_21
REMARK                            x       y       z     vdW  Elec       q    Type
REMARK                         _______ _______ _______ _____ _____    ______ ____
ROOT
ATOM      1  N   UNL     1      48.446   5.605  15.673  0.00  0.00    +0.000 NA
ATOM      2  H   UNL     1      47.571   5.555  16.194  0.00  0.00    +0.000 HD
ENDROOT
BRANCH   1   4
ATOM      3  C   UNL     1      50.610   6.868  15.844  0.00  0.00    +0.000 C 
ATOM      4  C   UNL     1      49.521   6.082  16.582  0.00  0.00    +0.000 C 
BRANCH   4   5
ATOM      5  C   UNL     1      50.112   4.929  17.436  0.00  0.00    +0.000 C 
ATOM      6  O   UNL     1      50.537   3.904  16.895  0.00  0.00    +0.000 OA
BRANCH   5   7
ATOM      7  C   UNL     1      50.191   5.089  18.895  0.00  0.00    +0.000 A 
ATOM      8  C   UNL     1      51.392   5.103  19.583  0.00  0.00    +0.000 A 
ATOM      9  S   UNL     1      51.202   5.337  21.264  0.00  0.00    +0.000 S 
ATOM     10  C   UNL     1      49.521   5.539  21.100  0.00  0.00    +0.000 A 
ATOM     11  N   UNL     1      48.760   5.940  22.153  0.00  0.00    +0.000 NA
ATOM     12  C   UNL     1      47.504   6.067  21.880  0.00  0.00    +0.000 A 
ATOM     13  N   UNL     1      46.935   5.777  20.667  0.00  0.00    +0.000 N 
ATOM     14  C   UNL     1      47.660   5.370  19.569  0.00  0.00    +0.000 A 
ATOM     15  O   UNL     1      47.100   5.151  18.502  0.00  0.00    +0.000 OA
ATOM     16  C   UNL     1      49.092   5.286  19.809  0.00  0.00    +0.000 A 
ATOM     17  H   UNL     1      45.940   5.869  20.524  0.00  0.00    +0.000 HD
ENDBRANCH   5   7
ENDBRANCH   4   5
ENDBRANCH   1   4
BRANCH   1  18
ATOM     18  C   UNL     1      48.239   6.481  14.517  0.00  0.00    +0.000 C 
BRANCH  18  19
ATOM     19  C   UNL     1      47.290   5.883  13.505  0.00  0.00    +0.000 A 
ATOM     20  C   UNL     1      46.745   4.609  13.708  0.00  0.00    +0.000 A 
ATOM     21  C   UNL     1      45.777   4.101  12.837  0.00  0.00    +0.000 A 
ATOM     22  C   UNL     1      45.334   4.861  11.747  0.00  0.00    +0.000 A 
ATOM     23  C   UNL     1      45.922   6.111  11.512  0.00  0.00    +0.000 A 
ATOM     24  C   UNL     1      46.895   6.615  12.379  0.00  0.00    +0.000 A 
BRANCH  22  25
ATOM     25  C   UNL     1      44.241   4.355  10.838  0.00  0.00    +0.000 C 
BRANCH  25  26
ATOM     26  C   UNL     1      44.679   3.226   9.898  0.00  0.00    +0.000 C 
BRANCH  26  27
ATOM     27  C   UNL     1      45.146   3.728   8.530  0.00  0.00    +0.000 C 
BRANCH  27  28
ATOM     28  N   UNL     1      46.110   2.820   7.934  0.00  0.00    +0.000 N 
ATOM     29  C   UNL     1      46.192   1.473   8.125  0.00  0.00    +0.000 A 
ATOM     30  C   UNL     1      47.245   1.063   7.346  0.00  0.00    +0.000 A 
ATOM     31  N   UNL     1      47.808   2.132   6.693  0.00  0.00    +0.000 NA
ATOM     32  C   UNL     1      47.108   3.178   7.073  0.00  0.00    +0.000 A 
ENDBRANCH  27  28
ENDBRANCH  26  27
ENDBRANCH  25  26
ENDBRANCH  22  25
ENDBRANCH  18  19
ENDBRANCH   1  18
TORSDOF 9
ENDMDL
MODEL 8
REMARK VINA RESULT:    -6.841      3.888      8.430
REMARK INTER + INTRA:         -11.114
REMARK INTER:                  -9.200
REMARK INTRA:                  -1.914
REMARK UNBOUND:                -0.674
REMARK  Name = 
REMARK  10 active torsions:
REMARK  status: ('A' for Active; 'I' for Inactive)
REMARK    1  A    between atoms: C_1  and  C_2
REMARK    2  A    between atoms: C_2  and  N_3
REMARK    3  A    between atoms: C_2  and  C_19
REMARK    4  A    between atoms: N_3  and  C_4
REMARK    5  A    between atoms: C_4  and  C_5
REMARK    6  A    between atoms: C_8  and  C_9
REMARK    7  A    between atoms: C_9  and  C_10
REMARK    8  A    between atoms: C_10  and  C_11
REMARK    9  A    between atoms: C_11  and  N_12
REMARK   10  A    between atoms: C_19  and  C_21
REMARK                            x       y       z     vdW  Elec       q    Type
REMARK                         _______ _______ _______ _____ _____    ______ ____
ROOT
ATOM      1  N   UNL     1      49.497   6.907  13.030  0.00  0.00    +0.000 NA
ATOM      2  H   UNL     1      50.162   6.405  12.441  0.00  0.00    +0.000 HD
ENDROOT
BRANCH   1   4
ATOM      3  C   UNL     1      49.188   8.988  11.659  0.00  0.00    +0.000 C 
ATOM      4  C   UNL     1      48.571   7.678  12.159  0.00  0.00    +0.000 C 
BRANCH   4   5
ATOM      5  C   UNL     1      47.192   7.903  12.834  0.00  0.00    +0.000 C 
ATOM      6  O   UNL     1      47.051   8.780  13.692  0.00  0.00    +0.000 OA
BRANCH   5   7
ATOM      7  C   UNL     1      46.048   7.081  12.413  0.00  0.00    +0.000 A 
ATOM      8  C   UNL     1      45.011   7.579  11.644  0.00  0.00    +0.000 A 
ATOM      9  S   UNL     1      43.828   6.406  11.268  0.00  0.00    +0.000 S 
ATOM     10  C   UNL     1      44.727   5.179  12.029  0.00  0.00    +0.000 A 
ATOM     11  N   UNL     1      44.355   3.875  11.926  0.00  0.00    +0.000 NA
ATOM     12  C   UNL     1      45.138   3.051  12.538  0.00  0.00    +0.000 A 
ATOM     13  N   UNL     1      46.226   3.418  13.288  0.00  0.00    +0.000 N 
ATOM     14  C   UNL     1      46.647   4.723  13.421  0.00  0.00    +0.000 A 
ATOM     15  O   UNL     1      47.644   4.988  14.083  0.00  0.00    +0.000 OA
ATOM     16  C   UNL     1      45.838   5.680  12.685  0.00  0.00    +0.000 A 
ATOM     17  H   UNL     1      46.784   2.727  13.768  0.00  0.00    +0.000 HD
ENDBRANCH   5   7
ENDBRANCH   4   5
ENDBRANCH   1   4
BRANCH   1  18
ATOM     18  C   UNL     1      50.255   7.754  13.954  0.00  0.00    +0.000 C 
BRANCH  18  19
ATOM     19  C   UNL     1      50.128   7.297  15.388  0.00  0.00    +0.000 A 
ATOM     20  C   UNL     1      51.241   6.800  16.077  0.00  0.00    +0.000 A 
ATOM     21  C   UNL     1      51.157   6.487  17.437  0.00  0.00    +0.000 A 
ATOM     22  C   UNL     1      49.955   6.669  18.134  0.00  0.00    +0.000 A 
ATOM     23  C   UNL     1      48.827   7.110  17.430  0.00  0.00    +0.000 A 
ATOM     24  C   UNL     1      48.910   7.415  16.069  0.00  0.00    +0.000 A 
BRANCH  22  25
ATOM     25  C   UNL     1      49.867   6.401  19.616  0.00  0.00    +0.000 C 
BRANCH  25  26
ATOM     26  C   UNL     1      50.034   4.926  19.998  0.00  0.00    +0.000 C 
BRANCH  26  27
ATOM     27  C   UNL     1      48.762   4.101  19.791  0.00  0.00    +0.000 C 
BRANCH  27  28
ATOM     28  N   UNL     1      48.730   3.497  18.472  0.00  0.00    +0.000 N 
ATOM     29  C   UNL     1      47.645   3.369  17.657  0.00  0.00    +0.000 A 
ATOM     30  C   UNL     1      48.117   2.751  16.525  0.00  0.00    +0.000 A 
ATOM     31  N   UNL     1      49.461   2.495  16.638  0.00  0.00    +0.000 NA
ATOM     32  C   UNL     1      49.801   2.949  17.824  0.00  0.00    +0.000 A 
ENDBRANCH  27  28
ENDBRANCH  26  27
ENDBRANCH  25  26
ENDBRANCH  22  25
ENDBRANCH  18  19
ENDBRANCH   1  18
TORSDOF 9
ENDMDL
MODEL 9
REMARK VINA RESULT:    -6.806      1.907      2.428
REMARK INTER + INTRA:         -11.061
REMARK INTER:                 -10.412
REMARK INTRA:                  -0.649
REMARK UNBOUND:                -0.674
REMARK  Name = 
REMARK  10 active torsions:
REMARK  status: ('A' for Active; 'I' for Inactive)
REMARK    1  A    between atoms: C_1  and  C_2
REMARK    2  A    between atoms: C_2  and  N_3
REMARK    3  A    between atoms: C_2  and  C_19
REMARK    4  A    between atoms: N_3  and  C_4
REMARK    5  A    between atoms: C_4  and  C_5
REMARK    6  A    between atoms: C_8  and  C_9
REMARK    7  A    between atoms: C_9  and  C_10
REMARK    8  A    between atoms: C_10  and  C_11
REMARK    9  A    between atoms: C_11  and  N_12
REMARK   10  A    between atoms: C_19  and  C_21
REMARK                            x       y       z     vdW  Elec       q    Type
REMARK                         _______ _______ _______ _____ _____    ______ ____
ROOT
ATOM      1  N   UNL     1      47.799   5.212  14.440  0.00  0.00    +0.000 NA
ATOM      2  H   UNL     1      48.248   4.302  14.327  0.00  0.00    +0.000 HD
ENDROOT
BRANCH   1   4
ATOM      3  C   UNL     1      49.364   6.755  15.655  0.00  0.00    +0.000 C 
ATOM      4  C   UNL     1      48.188   5.779  15.758  0.00  0.00    +0.000 C 
BRANCH   4   5
ATOM      5  C   UNL     1      48.441   4.670  16.814  0.00  0.00    +0.000 C 
ATOM      6  O   UNL     1      48.525   3.486  16.471  0.00  0.00    +0.000 OA
BRANCH   5   7
ATOM      7  C   UNL     1      48.615   5.051  18.223  0.00  0.00    +0.000 A 
ATOM      8  C   UNL     1      47.583   5.554  18.995  0.00  0.00    +0.000 A 
ATOM      9  S   UNL     1      48.046   5.884  20.606  0.00  0.00    +0.000 S 
ATOM     10  C   UNL     1      49.606   5.257  20.341  0.00  0.00    +0.000 A 
ATOM     11  N   UNL     1      50.473   5.085  21.374  0.00  0.00    +0.000 NA
ATOM     12  C   UNL     1      51.613   4.585  21.030  0.00  0.00    +0.000 A 
ATOM     13  N   UNL     1      51.982   4.295  19.742  0.00  0.00    +0.000 N 
ATOM     14  C   UNL     1      51.141   4.449  18.661  0.00  0.00    +0.000 A 
ATOM     15  O   UNL     1      51.518   4.147  17.535  0.00  0.00    +0.000 OA
ATOM     16  C   UNL     1      49.818   4.938  19.011  0.00  0.00    +0.000 A 
ATOM     17  H   UNL     1      52.901   3.933  19.533  0.00  0.00    +0.000 HD
ENDBRANCH   5   7
ENDBRANCH   4   5
ENDBRANCH   1   4
BRANCH   1  18
ATOM     18  C   UNL     1      46.353   5.027  14.298  0.00  0.00    +0.000 C 
BRANCH  18  19
ATOM     19  C   UNL     1      45.942   4.797  12.862  0.00  0.00    +0.000 A 
ATOM     20  C   UNL     1      45.214   3.654  12.505  0.00  0.00    +0.000 A 
ATOM     21  C   UNL     1      44.730   3.495  11.204  0.00  0.00    +0.000 A 
ATOM     22  C   UNL     1      44.963   4.479  10.234  0.00  0.00    +0.000 A 
ATOM     23  C   UNL     1      45.742   5.593  10.577  0.00  0.00    +0.000 A 
ATOM     24  C   UNL     1      46.231   5.747  11.876  0.00  0.00    +0.000 A 
BRANCH  22  25
ATOM     25  C   UNL     1      44.389   4.354   8.844  0.00  0.00    +0.000 C 
BRANCH  25  26
ATOM     26  C   UNL     1      44.602   2.980   8.199  0.00  0.00    +0.000 C 
BRANCH  26  27
ATOM     27  C   UNL     1      46.012   2.425   8.415  0.00  0.00    +0.000 C 
BRANCH  27  28
ATOM     28  N   UNL     1      46.706   2.236   7.154  0.00  0.00    +0.000 N 
ATOM     29  C   UNL     1      46.635   3.036   6.053  0.00  0.00    +0.000 A 
ATOM     30  C   UNL     1      47.470   2.455   5.132  0.00  0.00    +0.000 A 
ATOM     31  N   UNL     1      48.040   1.316   5.646  0.00  0.00    +0.000 NA
ATOM     32  C   UNL     1      47.555   1.206   6.863  0.00  0.00    +0.000 A 
ENDBRANCH  27  28
ENDBRANCH  26  27
ENDBRANCH  25  26
ENDBRANCH  22  25
ENDBRANCH  18  19
ENDBRANCH   1  18
TORSDOF 9
ENDMDL
