MODEL 1
REMARK VINA RESULT:    -6.866      0.000      0.000
REMARK INTER + INTRA:          -9.707
REMARK INTER:                  -9.074
REMARK INTRA:                  -0.634
REMARK UNBOUND:                -0.634
REMARK  Name = 
REMARK  6 active torsions:
REMARK  status: ('A' for Active; 'I' for Inactive)
REMARK    1  A    between atoms: N_1  and  C_2
REMARK    2  A    between atoms: C_2  and  C_3
REMARK    3  A    between atoms: C_7  and  N_8
REMARK    4  A    between atoms: N_8  and  C_9
REMARK    5  A    between atoms: C_9  and  C_10
REMARK    6  A    between atoms: C_10  and  C_11
REMARK                            x       y       z     vdW  Elec       q    Type
REMARK                         _______ _______ _______ _____ _____    ______ ____
ROOT
ATOM      1  C   UNL     1      46.698   2.000   7.326  0.00  0.00    +0.000 A 
ATOM      2  C   UNL     1      46.869   3.342   6.970  0.00  0.00    +0.000 A 
ATOM      3  C   UNL     1      46.205   4.341   7.674  0.00  0.00    +0.000 A 
ATOM      4  C   UNL     1      45.347   4.009   8.728  0.00  0.00    +0.000 A 
ATOM      5  C   UNL     1      45.112   2.675   9.080  0.00  0.00    +0.000 A 
ATOM      6  C   UNL     1      45.836   1.686   8.395  0.00  0.00    +0.000 A 
ENDROOT
BRANCH   5   7
ATOM      7  N   UNL     1      44.298   2.296  10.164  0.00  0.00    +0.000 N 
ATOM      8  H   UNL     1      43.574   1.650   9.850  0.00  0.00    +0.000 HD
BRANCH   7   9
ATOM      9  C   UNL     1      43.769   3.361  11.022  0.00  0.00    +0.000 C 
BRANCH   9  10
ATOM     10  C   UNL     1      44.379   3.274  12.426  0.00  0.00    +0.000 C 
BRANCH  10  11
ATOM     11  C   UNL     1      45.510   4.252  12.606  0.00  0.00    +0.000 A 
ATOM     12  C   UNL     1      45.581   5.437  11.871  0.00  0.00    +0.000 A 
ATOM     13  C   UNL     1      46.661   6.298  12.052  0.00  0.00    +0.000 A 
ATOM     14  C   UNL     1      47.641   5.940  12.962  0.00  0.00    +0.000 A 
ATOM     15  N   UNL     1      47.612   4.802  13.685  0.00  0.00    +0.000 NA
ATOM     16  C   UNL     1      46.551   3.986  13.492  0.00  0.00    +0.000 A 
ENDBRANCH  10  11
ENDBRANCH   9  10
ENDBRANCH   7   9
ENDBRANCH   5   7
BRANCH   1  17
ATOM     17  C   UNL     1      47.446   0.916   6.594  0.00  0.00    +0.000 C 
BRANCH  17  18
ATOM     18  N   UNL     1      48.226   1.455   5.484  0.00  0.00    +0.000 NA
ATOM     19  H   UNL     1      48.006   2.443   5.374  0.00  0.00    +0.000 HD
ATOM     20  H   UNL     1      47.926   0.996   4.624  0.00  0.00    +0.000 HD
ENDBRANCH  17  18
ENDBRANCH   1  17
TORSDOF 6
ENDMDL
MODEL 2
REMARK VINA RESULT:    -6.746      1.177      2.002
REMARK INTER + INTRA:          -9.548
REMARK INTER:                  -8.938
REMARK INTRA:                  -0.610
REMARK UNBOUND:                -0.634
REMARK  Name = 
REMARK  6 active torsions:
REMARK  status: ('A' for Active; 'I' for Inactive)
REMARK    1  A    between atoms: N_1  and  C_2
REMARK    2  A    between atoms: C_2  and  C_3
REMARK    3  A    between atoms: C_7  and  N_8
REMARK    4  A    between atoms: N_8  and  C_9
REMARK    5  A    between atoms: C_9  and  C_10
REMARK    6  A    between atoms: C_10  and  C_11
REMARK                            x       y       z     vdW  Elec       q    Type
REMARK                         _______ _______ _______ _____ _____    ______ ____
ROOT
ATOM      1  C   UNL     1      46.730   2.621   6.924  0.00  0.00    +0.000 A 
ATOM      2  C   UNL     1      46.690   1.365   7.537  0.00  0.00    +0.000 A 
ATOM      3  C   UNL     1      45.773   1.113   8.553  0.00  0.00    +0.000 A 
ATOM      4  C   UNL     1      44.901   2.119   8.979  0.00  0.00    +0.000 A 
ATOM      5  C   UNL     1      44.945   3.403   8.424  0.00  0.00    +0.000 A 
ATOM      6  C   UNL     1      45.838   3.619   7.362  0.00  0.00    +0.000 A 
ENDROOT
BRANCH   5   7
ATOM      7  N   UNL     1      44.054   4.430   8.786  0.00  0.00    +0.000 N 
ATOM      8  H   UNL     1      44.252   5.272   8.247  0.00  0.00    +0.000 HD
BRANCH   7   9
ATOM      9  C   UNL     1      43.879   4.705  10.216  0.00  0.00    +0.000 C 
BRANCH   9  10
ATOM     10  C   UNL     1      44.959   5.672  10.715  0.00  0.00    +0.000 C 
BRANCH  10  11
ATOM     11  C   UNL     1      45.670   5.135  11.930  0.00  0.00    +0.000 A 
ATOM     12  C   UNL     1      46.513   5.936  12.702  0.00  0.00    +0.000 A 
ATOM     13  C   UNL     1      47.171   5.388  13.801  0.00  0.00    +0.000 A 
ATOM     14  C   UNL     1      46.966   4.049  14.089  0.00  0.00    +0.000 A 
ATOM     15  N   UNL     1      46.164   3.242  13.365  0.00  0.00    +0.000 NA
ATOM     16  C   UNL     1      45.537   3.800  12.306  0.00  0.00    +0.000 A 
ENDBRANCH  10  11
ENDBRANCH   9  10
ENDBRANCH   7   9
ENDBRANCH   5   7
BRANCH   1  17
ATOM     17  C   UNL     1      47.693   2.889   5.796  0.00  0.00    +0.000 C 
BRANCH  17  18
ATOM     18  N   UNL     1      48.420   1.683   5.411  0.00  0.00    +0.000 NA
ATOM     19  H   UNL     1      48.589   1.704   4.408  0.00  0.00    +0.000 HD
ATOM     20  H   UNL     1      47.822   0.875   5.585  0.00  0.00    +0.000 HD
ENDBRANCH  17  18
ENDBRANCH   1  17
TORSDOF 6
ENDMDL
MODEL 3
REMARK VINA RESULT:    -6.672      1.491      5.965
REMARK INTER + INTRA:          -9.451
REMARK INTER:                  -9.009
REMARK INTRA:                  -0.442
REMARK UNBOUND:                -0.634
REMARK  Name = 
REMARK  6 active torsions:
REMARK  status: ('A' for Active; 'I' for Inactive)
REMARK    1  A    between atoms: N_1  and  C_2
REMARK    2  A    between atoms: C_2  and  C_3
REMARK    3  A    between atoms: C_7  and  N_8
REMARK    4  A    between atoms: N_8  and  C_9
REMARK    5  A    between atoms: C_9  and  C_10
REMARK    6  A    between atoms: C_10  and  C_11
REMARK                            x       y       z     vdW  Elec       q    Type
REMARK                         _______ _______ _______ _____ _____    ______ ____
ROOT
ATOM      1  C   UNL     1      46.686   5.334  13.523  0.00  0.00    +0.000 A 
ATOM      2  C   UNL     1      47.414   6.491  13.229  0.00  0.00    +0.000 A 
ATOM      3  C   UNL     1      47.093   7.251  12.109  0.00  0.00    +0.000 A 
ATOM      4  C   UNL     1      46.055   6.853  11.260  0.00  0.00    +0.000 A 
ATOM      5  C   UNL     1      45.338   5.675  11.494  0.00  0.00    +0.000 A 
ATOM      6  C   UNL     1      45.639   4.953  12.661  0.00  0.00    +0.000 A 
ENDROOT
BRANCH   5   7
ATOM      7  N   UNL     1      44.254   5.261  10.698  0.00  0.00    +0.000 N 
ATOM      8  H   UNL     1      43.379   5.378  11.207  0.00  0.00    +0.000 HD
BRANCH   7   9
ATOM      9  C   UNL     1      44.353   3.955  10.040  0.00  0.00    +0.000 C 
BRANCH   9  10
ATOM     10  C   UNL     1      44.649   4.126   8.545  0.00  0.00    +0.000 C 
BRANCH  10  11
ATOM     11  C   UNL     1      45.658   3.119   8.057  0.00  0.00    +0.000 A 
ATOM     12  C   UNL     1      46.627   3.450   7.108  0.00  0.00    +0.000 A 
ATOM     13  C   UNL     1      47.522   2.478   6.666  0.00  0.00    +0.000 A 
ATOM     14  C   UNL     1      47.413   1.199   7.188  0.00  0.00    +0.000 A 
ATOM     15  N   UNL     1      46.487   0.840   8.101  0.00  0.00    +0.000 NA
ATOM     16  C   UNL     1      45.634   1.803   8.514  0.00  0.00    +0.000 A 
ENDBRANCH  10  11
ENDBRANCH   9  10
ENDBRANCH   7   9
ENDBRANCH   5   7
BRANCH   1  17
ATOM     17  C   UNL     1      47.002   4.526  14.756  0.00  0.00    +0.000 C 
BRANCH  17  18
ATOM     18  N   UNL     1      47.411   3.166  14.418  0.00  0.00    +0.000 NA
ATOM     19  H   UNL     1      48.211   3.208  13.791  0.00  0.00    +0.000 HD
ATOM     20  H   UNL     1      46.658   2.722  13.894  0.00  0.00    +0.000 HD
ENDBRANCH  17  18
ENDBRANCH   1  17
TORSDOF 6
ENDMDL
MODEL 4
REMARK VINA RESULT:    -6.278      1.766      6.303
REMARK INTER + INTRA:          -8.931
REMARK INTER:                  -8.453
REMARK INTRA:                  -0.477
REMARK UNBOUND:                -0.634
REMARK  Name = 
REMARK  6 active torsions:
REMARK  status: ('A' for Active; 'I' for Inactive)
REMARK    1  A    between atoms: N_1  and  C_2
REMARK    2  A    between atoms: C_2  and  C_3
REMARK    3  A    between atoms: C_7  and  N_8
REMARK    4  A    between atoms: N_8  and  C_9
REMARK    5  A    between atoms: C_9  and  C_10
REMARK    6  A    between atoms: C_10  and  C_11
REMARK                            x       y       z     vdW  Elec       q    Type
REMARK                         _______ _______ _______ _____ _____    ______ ____
ROOT
ATOM      1  C   UNL     1      46.455   6.582  12.953  0.00  0.00    +0.000 A 
ATOM      2  C   UNL     1      46.886   5.458  13.665  0.00  0.00    +0.000 A 
ATOM      3  C   UNL     1      46.385   4.199  13.351  0.00  0.00    +0.000 A 
ATOM      4  C   UNL     1      45.433   4.053  12.337  0.00  0.00    +0.000 A 
ATOM      5  C   UNL     1      44.940   5.161  11.638  0.00  0.00    +0.000 A 
ATOM      6  C   UNL     1      45.502   6.414  11.930  0.00  0.00    +0.000 A 
ENDROOT
BRANCH   5   7
ATOM      7  N   UNL     1      44.021   5.056  10.577  0.00  0.00    +0.000 N 
ATOM      8  H   UNL     1      43.071   5.186  10.922  0.00  0.00    +0.000 HD
BRANCH   7   9
ATOM      9  C   UNL     1      44.144   3.900   9.683  0.00  0.00    +0.000 C 
BRANCH   9  10
ATOM     10  C   UNL     1      44.960   4.267   8.438  0.00  0.00    +0.000 C 
BRANCH  10  11
ATOM     11  C   UNL     1      45.834   3.126   7.988  0.00  0.00    +0.000 A 
ATOM     12  C   UNL     1      46.822   3.296   7.015  0.00  0.00    +0.000 A 
ATOM     13  C   UNL     1      47.588   2.204   6.611  0.00  0.00    +0.000 A 
ATOM     14  C   UNL     1      47.335   0.973   7.193  0.00  0.00    +0.000 A 
ATOM     15  N   UNL     1      46.387   0.768   8.130  0.00  0.00    +0.000 NA
ATOM     16  C   UNL     1      45.661   1.844   8.505  0.00  0.00    +0.000 A 
ENDBRANCH  10  11
ENDBRANCH   9  10
ENDBRANCH   7   9
ENDBRANCH   5   7
BRANCH   1  17
ATOM     17  C   UNL     1      47.023   7.944  13.261  0.00  0.00    +0.000 C 
BRANCH  17  18
ATOM     18  N   UNL     1      45.983   8.968  13.287  0.00  0.00    +0.000 NA
ATOM     19  H   UNL     1      45.073   8.514  13.331  0.00  0.00    +0.000 HD
ATOM     20  H   UNL     1      46.008   9.478  12.404  0.00  0.00    +0.000 HD
ENDBRANCH  17  18
ENDBRANCH   1  17
TORSDOF 6
ENDMDL
MODEL 5
REMARK VINA RESULT:    -6.065      2.222      5.922
REMARK INTER + INTRA:          -8.649
REMARK INTER:                  -7.993
REMARK INTRA:                  -0.656
REMARK UNBOUND:                -0.634
REMARK  Name = 
REMARK  6 active torsions:
REMARK  status: ('A' for Active; 'I' for Inactive)
REMARK    1  A    between atoms: N_1  and  C_2
REMARK    2  A    between atoms: C_2  and  C_3
REMARK    3  A    between atoms: C_7  and  N_8
REMARK    4  A    between atoms: N_8  and  C_9
REMARK    5  A    between atoms: C_9  and  C_10
REMARK    6  A    between atoms: C_10  and  C_11
REMARK                            x       y       z     vdW  Elec       q    Type
REMARK                         _______ _______ _______ _____ _____    ______ ____
ROOT
ATOM      1  C   UNL     1      45.579   7.738  12.223  0.00  0.00    +0.000 A 
ATOM      2  C   UNL     1      46.965   7.727  12.410  0.00  0.00    +0.000 A 
ATOM      3  C   UNL     1      47.603   6.563  12.828  0.00  0.00    +0.000 A 
ATOM      4  C   UNL     1      46.861   5.405  13.083  0.00  0.00    +0.000 A 
ATOM      5  C   UNL     1      45.467   5.393  12.955  0.00  0.00    +0.000 A 
ATOM      6  C   UNL     1      44.850   6.560  12.477  0.00  0.00    +0.000 A 
ENDROOT
BRANCH   5   7
ATOM      7  N   UNL     1      44.685   4.240  13.152  0.00  0.00    +0.000 N 
ATOM      8  H   UNL     1      44.680   3.983  14.138  0.00  0.00    +0.000 HD
BRANCH   7   9
ATOM      9  C   UNL     1      44.933   3.093  12.272  0.00  0.00    +0.000 C 
BRANCH   9  10
ATOM     10  C   UNL     1      44.036   3.163  11.031  0.00  0.00    +0.000 C 
BRANCH  10  11
ATOM     11  C   UNL     1      44.843   3.307   9.766  0.00  0.00    +0.000 A 
ATOM     12  C   UNL     1      45.283   2.196   9.045  0.00  0.00    +0.000 A 
ATOM     13  C   UNL     1      46.050   2.378   7.896  0.00  0.00    +0.000 A 
ATOM     14  C   UNL     1      46.355   3.673   7.509  0.00  0.00    +0.000 A 
ATOM     15  N   UNL     1      45.954   4.770   8.182  0.00  0.00    +0.000 NA
ATOM     16  C   UNL     1      45.209   4.564   9.291  0.00  0.00    +0.000 A 
ENDBRANCH  10  11
ENDBRANCH   9  10
ENDBRANCH   7   9
ENDBRANCH   5   7
BRANCH   1  17
ATOM     17  C   UNL     1      44.886   8.983  11.732  0.00  0.00    +0.000 C 
BRANCH  17  18
ATOM     18  N   UNL     1      43.695   8.663  10.951  0.00  0.00    +0.000 NA
ATOM     19  H   UNL     1      43.878   7.832  10.394  0.00  0.00    +0.000 HD
ATOM     20  H   UNL     1      43.527   9.421  10.290  0.00  0.00    +0.000 HD
ENDBRANCH  17  18
ENDBRANCH   1  17
TORSDOF 6
ENDMDL
MODEL 6
REMARK VINA RESULT:    -5.909      1.903      2.725
REMARK INTER + INTRA:          -8.442
REMARK INTER:                  -7.941
REMARK INTRA:                  -0.501
REMARK UNBOUND:                -0.634
REMARK  Name = 
REMARK  6 active torsions:
REMARK  status: ('A' for Active; 'I' for Inactive)
REMARK    1  A    between atoms: N_1  and  C_2
REMARK    2  A    between atoms: C_2  and  C_3
REMARK    3  A    between atoms: C_7  and  N_8
REMARK    4  A    between atoms: N_8  and  C_9
REMARK    5  A    between atoms: C_9  and  C_10
REMARK    6  A    between atoms: C_10  and  C_11
REMARK                            x       y       z     vdW  Elec       q    Type
REMARK                         _______ _______ _______ _____ _____    ______ ____
ROOT
ATOM      1  C   UNL     1      46.256   3.138   7.523  0.00  0.00    +0.000 A 
ATOM      2  C   UNL     1      46.006   1.833   7.957  0.00  0.00    +0.000 A 
ATOM      3  C   UNL     1      45.101   1.602   8.989  0.00  0.00    +0.000 A 
ATOM      4  C   UNL     1      44.452   2.674   9.609  0.00  0.00    +0.000 A 
ATOM      5  C   UNL     1      44.715   3.997   9.236  0.00  0.00    +0.000 A 
ATOM      6  C   UNL     1      45.587   4.204   8.155  0.00  0.00    +0.000 A 
ENDROOT
BRANCH   5   7
ATOM      7  N   UNL     1      44.049   5.102   9.796  0.00  0.00    +0.000 N 
ATOM      8  H   UNL     1      44.289   5.952   9.288  0.00  0.00    +0.000 HD
BRANCH   7   9
ATOM      9  C   UNL     1      44.124   5.275  11.250  0.00  0.00    +0.000 C 
BRANCH   9  10
ATOM     10  C   UNL     1      45.586   5.310  11.713  0.00  0.00    +0.000 C 
BRANCH  10  11
ATOM     11  C   UNL     1      46.071   6.721  11.924  0.00  0.00    +0.000 A 
ATOM     12  C   UNL     1      47.426   7.051  11.849  0.00  0.00    +0.000 A 
ATOM     13  C   UNL     1      47.830   8.364  12.079  0.00  0.00    +0.000 A 
ATOM     14  C   UNL     1      46.862   9.306  12.381  0.00  0.00    +0.000 A 
ATOM     15  N   UNL     1      45.545   9.025  12.468  0.00  0.00    +0.000 NA
ATOM     16  C   UNL     1      45.180   7.744  12.238  0.00  0.00    +0.000 A 
ENDBRANCH  10  11
ENDBRANCH   9  10
ENDBRANCH   7   9
ENDBRANCH   5   7
BRANCH   1  17
ATOM     17  C   UNL     1      47.205   3.393   6.380  0.00  0.00    +0.000 C 
BRANCH  17  18
ATOM     18  N   UNL     1      48.413   2.580   6.492  0.00  0.00    +0.000 NA
ATOM     19  H   UNL     1      49.147   2.998   5.924  0.00  0.00    +0.000 HD
ATOM     20  H   UNL     1      48.224   1.663   6.089  0.00  0.00    +0.000 HD
ENDBRANCH  17  18
ENDBRANCH   1  17
TORSDOF 6
ENDMDL
MODEL 7
REMARK VINA RESULT:    -5.787      1.828      6.303
REMARK INTER + INTRA:          -8.281
REMARK INTER:                  -8.087
REMARK INTRA:                  -0.194
REMARK UNBOUND:                -0.634
REMARK  Name = 
REMARK  6 active torsions:
REMARK  status: ('A' for Active; 'I' for Inactive)
REMARK    1  A    between atoms: N_1  and  C_2
REMARK    2  A    between atoms: C_2  and  C_3
REMARK    3  A    between atoms: C_7  and  N_8
REMARK    4  A    between atoms: N_8  and  C_9
REMARK    5  A    between atoms: C_9  and  C_10
REMARK    6  A    between atoms: C_10  and  C_11
REMARK                            x       y       z     vdW  Elec       q    Type
REMARK                         _______ _______ _______ _____ _____    ______ ____
ROOT
ATOM      1  C   UNL     1      44.357   4.749  12.543  0.00  0.00    +0.000 A 
ATOM      2  C   UNL     1      45.066   5.722  13.254  0.00  0.00    +0.000 A 
ATOM      3  C   UNL     1      45.929   6.585  12.584  0.00  0.00    +0.000 A 
ATOM      4  C   UNL     1      46.107   6.470  11.202  0.00  0.00    +0.000 A 
ATOM      5  C   UNL     1      45.453   5.476  10.465  0.00  0.00    +0.000 A 
ATOM      6  C   UNL     1      44.543   4.654  11.150  0.00  0.00    +0.000 A 
ENDROOT
BRANCH   5   7
ATOM      7  N   UNL     1      45.562   5.356   9.067  0.00  0.00    +0.000 N 
ATOM      8  H   UNL     1      45.261   6.219   8.616  0.00  0.00    +0.000 HD
BRANCH   7   9
ATOM      9  C   UNL     1      44.985   4.162   8.441  0.00  0.00    +0.000 C 
BRANCH   9  10
ATOM     10  C   UNL     1      45.868   2.936   8.704  0.00  0.00    +0.000 C 
BRANCH  10  11
ATOM     11  C   UNL     1      46.461   2.391   7.431  0.00  0.00    +0.000 A 
ATOM     12  C   UNL     1      46.608   3.184   6.290  0.00  0.00    +0.000 A 
ATOM     13  C   UNL     1      47.136   2.629   5.127  0.00  0.00    +0.000 A 
ATOM     14  C   UNL     1      47.496   1.292   5.142  0.00  0.00    +0.000 A 
ATOM     15  N   UNL     1      47.365   0.493   6.221  0.00  0.00    +0.000 NA
ATOM     16  C   UNL     1      46.852   1.058   7.337  0.00  0.00    +0.000 A 
ENDBRANCH  10  11
ENDBRANCH   9  10
ENDBRANCH   7   9
ENDBRANCH   5   7
BRANCH   1  17
ATOM     17  C   UNL     1      43.391   3.837  13.255  0.00  0.00    +0.000 C 
BRANCH  17  18
ATOM     18  N   UNL     1      43.481   2.466  12.761  0.00  0.00    +0.000 NA
ATOM     19  H   UNL     1      43.503   2.481  11.744  0.00  0.00    +0.000 HD
ATOM     20  H   UNL     1      42.630   1.970  13.024  0.00  0.00    +0.000 HD
ENDBRANCH  17  18
ENDBRANCH   1  17
TORSDOF 6
ENDMDL
MODEL 8
REMARK VINA RESULT:    -5.446      3.649      5.938
REMARK INTER + INTRA:          -7.830
REMARK INTER:                  -7.540
REMARK INTRA:                  -0.290
REMARK UNBOUND:                -0.634
REMARK  Name = 
REMARK  6 active torsions:
REMARK  status: ('A' for Active; 'I' for Inactive)
REMARK    1  A    between atoms: N_1  and  C_2
REMARK    2  A    between atoms: C_2  and  C_3
REMARK    3  A    between atoms: C_7  and  N_8
REMARK    4  A    between atoms: N_8  and  C_9
REMARK    5  A    between atoms: C_9  and  C_10
REMARK    6  A    between atoms: C_10  and  C_11
REMARK                            x       y       z     vdW  Elec       q    Type
REMARK                         _______ _______ _______ _____ _____    ______ ____
ROOT
ATOM      1  C   UNL     1      44.576   4.582  11.762  0.00  0.00    +0.000 A 
ATOM      2  C   UNL     1      45.069   5.799  11.282  0.00  0.00    +0.000 A 
ATOM      3  C   UNL     1      46.179   6.387  11.880  0.00  0.00    +0.000 A 
ATOM      4  C   UNL     1      46.796   5.774  12.976  0.00  0.00    +0.000 A 
ATOM      5  C   UNL     1      46.301   4.582  13.515  0.00  0.00    +0.000 A 
ATOM      6  C   UNL     1      45.215   3.976  12.862  0.00  0.00    +0.000 A 
ENDROOT
BRANCH   5   7
ATOM      7  N   UNL     1      46.918   3.904  14.583  0.00  0.00    +0.000 N 
ATOM      8  H   UNL     1      46.418   3.039  14.786  0.00  0.00    +0.000 HD
BRANCH   7   9
ATOM      9  C   UNL     1      47.222   4.675  15.792  0.00  0.00    +0.000 C 
BRANCH   9  10
ATOM     10  C   UNL     1      47.374   3.744  17.001  0.00  0.00    +0.000 C 
BRANCH  10  11
ATOM     11  C   UNL     1      48.781   3.223  17.131  0.00  0.00    +0.000 A 
ATOM     12  C   UNL     1      49.776   3.948  17.791  0.00  0.00    +0.000 A 
ATOM     13  C   UNL     1      51.070   3.437  17.862  0.00  0.00    +0.000 A 
ATOM     14  C   UNL     1      51.328   2.215  17.264  0.00  0.00    +0.000 A 
ATOM     15  N   UNL     1      50.397   1.489  16.613  0.00  0.00    +0.000 NA
ATOM     16  C   UNL     1      49.149   2.006  16.561  0.00  0.00    +0.000 A 
ENDBRANCH  10  11
ENDBRANCH   9  10
ENDBRANCH   7   9
ENDBRANCH   5   7
BRANCH   1  17
ATOM     17  C   UNL     1      43.397   3.920  11.095  0.00  0.00    +0.000 C 
BRANCH  17  18
ATOM     18  N   UNL     1      43.257   2.527  11.510  0.00  0.00    +0.000 NA
ATOM     19  H   UNL     1      42.329   2.197  11.253  0.00  0.00    +0.000 HD
ATOM     20  H   UNL     1      43.306   2.486  12.527  0.00  0.00    +0.000 HD
ENDBRANCH  17  18
ENDBRANCH   1  17
TORSDOF 6
ENDMDL
MODEL 9
REMARK VINA RESULT:    -5.202      3.442      5.678
REMARK INTER + INTRA:          -7.507
REMARK INTER:                  -7.130
REMARK INTRA:                  -0.378
REMARK UNBOUND:                -0.634
REMARK  Name = 
REMARK  6 active torsions:
REMARK  status: ('A' for Active; 'I' for Inactive)
REMARK    1  A    between atoms: N_1  and  C_2
REMARK    2  A    between atoms: C_2  and  C_3
REMARK    3  A    between atoms: C_7  and  N_8
REMARK    4  A    between atoms: N_8  and  C_9
REMARK    5  A    between atoms: C_9  and  C_10
REMARK    6  A    between atoms: C_10  and  C_11
REMARK                            x       y       z     vdW  Elec       q    Type
REMARK                         _______ _______ _______ _____ _____    ______ ____
ROOT
ATOM      1  C   UNL     1      44.820   4.360  12.065  0.00  0.00    +0.000 A 
ATOM      2  C   UNL     1      44.990   4.783  10.743  0.00  0.00    +0.000 A 
ATOM      3  C   UNL     1      45.827   5.858  10.456  0.00  0.00    +0.000 A 
ATOM      4  C   UNL     1      46.485   6.532  11.489  0.00  0.00    +0.000 A 
ATOM      5  C   UNL     1      46.300   6.169  12.828  0.00  0.00    +0.000 A 
ATOM      6  C   UNL     1      45.498   5.047  13.090  0.00  0.00    +0.000 A 
ENDROOT
BRANCH   5   7
ATOM      7  N   UNL     1      46.980   6.786  13.895  0.00  0.00    +0.000 N 
ATOM      8  H   UNL     1      46.974   7.798  13.777  0.00  0.00    +0.000 HD
BRANCH   7   9
ATOM      9  C   UNL     1      48.306   6.267  14.245  0.00  0.00    +0.000 C 
BRANCH   9  10
ATOM     10  C   UNL     1      48.577   6.450  15.743  0.00  0.00    +0.000 C 
BRANCH  10  11
ATOM     11  C   UNL     1      48.322   5.181  16.515  0.00  0.00    +0.000 A 
ATOM     12  C   UNL     1      49.277   4.642  17.379  0.00  0.00    +0.000 A 
ATOM     13  C   UNL     1      49.006   3.452  18.051  0.00  0.00    +0.000 A 
ATOM     14  C   UNL     1      47.786   2.836  17.831  0.00  0.00    +0.000 A 
ATOM     15  N   UNL     1      46.841   3.322  17.001  0.00  0.00    +0.000 NA
ATOM     16  C   UNL     1      47.128   4.480  16.364  0.00  0.00    +0.000 A 
ENDBRANCH  10  11
ENDBRANCH   9  10
ENDBRANCH   7   9
ENDBRANCH   5   7
BRANCH   1  17
ATOM     17  C   UNL     1      43.946   3.172  12.378  0.00  0.00    +0.000 C 
BRANCH  17  18
ATOM     18  N   UNL     1      42.889   3.005  11.386  0.00  0.00    +0.000 NA
ATOM     19  H   UNL     1      43.312   2.793  10.484  0.00  0.00    +0.000 HD
ATOM     20  H   UNL     1      42.405   3.895  11.274  0.00  0.00    +0.000 HD
ENDBRANCH  17  18
ENDBRANCH   1  17
TORSDOF 6
ENDMDL
