MODEL 1
REMARK VINA RESULT:    -8.717      0.000      0.000
REMARK INTER + INTRA:         -13.790
REMARK INTER:                 -12.540
REMARK INTRA:                  -1.250
REMARK UNBOUND:                -1.250
REMARK  Name = 
REMARK  9 active torsions:
REMARK  status: ('A' for Active; 'I' for Inactive)
REMARK    1  A    between atoms: C_1  and  O_2
REMARK    2  A    between atoms: O_2  and  C_3
REMARK    3  A    between atoms: C_5  and  C_6
REMARK    4  A    between atoms: C_6  and  O_7
REMARK    5  A    between atoms: C_6  and  C_8
REMARK    6  A    between atoms: C_8  and  O_9
REMARK    7  A    between atoms: O_9  and  C_10
REMARK    8  A    between atoms: C_13  and  C_14
REMARK    9  A    between atoms: C_20  and  C_21
REMARK                            x       y       z     vdW  Elec       q    Type
REMARK                         _______ _______ _______ _____ _____    ______ ____
ROOT
ATOM      1  C   UNL     1      43.547   5.130  12.317  0.00  0.00    +0.000 C 
ENDROOT
BRANCH   1   4
ATOM      2  C   UNL     1      46.938   4.417  13.899  0.00  0.00    +0.000 A 
ATOM      3  C   UNL     1      45.598   4.273  13.580  0.00  0.00    +0.000 A 
ATOM      4  C   UNL     1      45.008   5.203  12.715  0.00  0.00    +0.000 A 
ATOM      5  C   UNL     1      45.809   6.245  12.232  0.00  0.00    +0.000 A 
ATOM      6  C   UNL     1      47.148   6.335  12.621  0.00  0.00    +0.000 A 
ATOM      7  N   UNL     1      47.712   5.416  13.438  0.00  0.00    +0.000 NA
BRANCH   6   8
ATOM      8  C   UNL     1      48.035   7.442  12.219  0.00  0.00    +0.000 A 
ATOM      9  C   UNL     1      47.565   8.760  12.089  0.00  0.00    +0.000 A 
ATOM     10  C   UNL     1      48.427   9.806  11.746  0.00  0.00    +0.000 A 
ATOM     11  C   UNL     1      49.778   9.555  11.527  0.00  0.00    +0.000 A 
ATOM     12  C   UNL     1      50.272   8.260  11.652  0.00  0.00    +0.000 A 
ATOM     13  C   UNL     1      49.407   7.218  11.996  0.00  0.00    +0.000 A 
ENDBRANCH   6   8
BRANCH   2  15
ATOM     14  C   UNL     1      47.419   3.910  16.128  0.00  0.00    +0.000 C 
ATOM     15  O   UNL     1      47.481   3.488  14.766  0.00  0.00    +0.000 OA
ENDBRANCH   2  15
ENDBRANCH   1   4
BRANCH   1  16
ATOM     16  O   UNL     1      43.118   6.434  11.922  0.00  0.00    +0.000 OA
ATOM     17  H   UNL     1      43.099   6.997  12.713  0.00  0.00    +0.000 HD
ENDBRANCH   1  16
BRANCH   1  18
ATOM     18  C   UNL     1      43.310   4.086  11.213  0.00  0.00    +0.000 C 
BRANCH  18  19
ATOM     19  O   UNL     1      43.524   4.652   9.910  0.00  0.00    +0.000 OA
BRANCH  19  20
ATOM     20  C   UNL     1      44.488   3.953   9.208  0.00  0.00    +0.000 A 
ATOM     21  C   UNL     1      44.579   2.587   9.418  0.00  0.00    +0.000 A 
ATOM     22  C   UNL     1      45.546   1.871   8.704  0.00  0.00    +0.000 A 
ATOM     23  C   UNL     1      46.387   2.539   7.809  0.00  0.00    +0.000 A 
ATOM     24  C   UNL     1      46.216   3.908   7.679  0.00  0.00    +0.000 A 
ATOM     25  N   UNL     1      45.290   4.627   8.355  0.00  0.00    +0.000 NA
BRANCH  23  26
ATOM     26  C   UNL     1      47.409   1.778   7.046  0.00  0.00    +0.000 C 
ATOM     27  N   UNL     1      48.459   2.453   6.485  0.00  0.00    +0.000 N 
ATOM     28  O   UNL     1      47.319   0.565   6.910  0.00  0.00    +0.000 OA
ATOM     29  H   UNL     1      48.622   3.447   6.520  0.00  0.00    +0.000 HD
ATOM     30  H   UNL     1      49.127   1.897   5.967  0.00  0.00    +0.000 HD
ENDBRANCH  23  26
ENDBRANCH  19  20
ENDBRANCH  18  19
ENDBRANCH   1  18
TORSDOF 8
ENDMDL
MODEL 2
REMARK VINA RESULT:    -8.654      0.820      1.429
REMARK INTER + INTRA:         -13.699
REMARK INTER:                 -12.525
REMARK INTRA:                  -1.174
REMARK UNBOUND:                -1.250
REMARK  Name = 
REMARK  9 active torsions:
REMARK  status: ('A' for Active; 'I' for Inactive)
REMARK    1  A    between atoms: C_1  and  O_2
REMARK    2  A    between atoms: O_2  and  C_3
REMARK    3  A    between atoms: C_5  and  C_6
REMARK    4  A    between atoms: C_6  and  O_7
REMARK    5  A    between atoms: C_6  and  C_8
REMARK    6  A    between atoms: C_8  and  O_9
REMARK    7  A    between atoms: O_9  and  C_10
REMARK    8  A    between atoms: C_13  and  C_14
REMARK    9  A    between atoms: C_20  and  C_21
REMARK                            x       y       z     vdW  Elec       q    Type
REMARK                         _______ _______ _______ _____ _____    ______ ____
ROOT
ATOM      1  C   UNL     1      43.700   4.857  11.997  0.00  0.00    +0.000 C 
ENDROOT
BRANCH   1   4
ATOM      2  C   UNL     1      47.001   4.232  13.794  0.00  0.00    +0.000 A 
ATOM      3  C   UNL     1      45.693   4.046  13.379  0.00  0.00    +0.000 A 
ATOM      4  C   UNL     1      45.127   4.975  12.496  0.00  0.00    +0.000 A 
ATOM      5  C   UNL     1      45.918   6.057  12.094  0.00  0.00    +0.000 A 
ATOM      6  C   UNL     1      47.222   6.187  12.576  0.00  0.00    +0.000 A 
ATOM      7  N   UNL     1      47.765   5.269  13.409  0.00  0.00    +0.000 NA
BRANCH   6   8
ATOM      8  C   UNL     1      48.092   7.336  12.261  0.00  0.00    +0.000 A 
ATOM      9  C   UNL     1      49.457   7.174  11.965  0.00  0.00    +0.000 A 
ATOM     10  C   UNL     1      50.260   8.267  11.629  0.00  0.00    +0.000 A 
ATOM     11  C   UNL     1      49.714   9.546  11.580  0.00  0.00    +0.000 A 
ATOM     12  C   UNL     1      48.365   9.735  11.864  0.00  0.00    +0.000 A 
ATOM     13  C   UNL     1      47.566   8.640  12.199  0.00  0.00    +0.000 A 
ENDBRANCH   6   8
BRANCH   2  15
ATOM     14  C   UNL     1      47.407   3.717  16.036  0.00  0.00    +0.000 C 
ATOM     15  O   UNL     1      47.519   3.302  14.675  0.00  0.00    +0.000 OA
ENDBRANCH   2  15
ENDBRANCH   1   4
BRANCH   1  16
ATOM     16  O   UNL     1      42.974   6.011  12.422  0.00  0.00    +0.000 OA
ATOM     17  H   UNL     1      42.135   5.714  12.809  0.00  0.00    +0.000 HD
ENDBRANCH   1  16
BRANCH   1  18
ATOM     18  C   UNL     1      43.645   4.670  10.472  0.00  0.00    +0.000 C 
BRANCH  18  19
ATOM     19  O   UNL     1      43.612   3.277  10.121  0.00  0.00    +0.000 OA
BRANCH  19  20
ATOM     20  C   UNL     1      44.606   2.961   9.214  0.00  0.00    +0.000 A 
ATOM     21  C   UNL     1      45.120   3.984   8.434  0.00  0.00    +0.000 A 
ATOM     22  C   UNL     1      46.133   3.675   7.519  0.00  0.00    +0.000 A 
ATOM     23  C   UNL     1      46.597   2.360   7.414  0.00  0.00    +0.000 A 
ATOM     24  C   UNL     1      46.010   1.411   8.237  0.00  0.00    +0.000 A 
ATOM     25  N   UNL     1      45.030   1.682   9.130  0.00  0.00    +0.000 NA
BRANCH  23  26
ATOM     26  C   UNL     1      47.677   2.032   6.448  0.00  0.00    +0.000 C 
ATOM     27  N   UNL     1      48.780   2.838   6.385  0.00  0.00    +0.000 N 
ATOM     28  O   UNL     1      47.586   1.059   5.710  0.00  0.00    +0.000 OA
ATOM     29  H   UNL     1      48.951   3.668   6.930  0.00  0.00    +0.000 HD
ATOM     30  H   UNL     1      49.487   2.582   5.707  0.00  0.00    +0.000 HD
ENDBRANCH  23  26
ENDBRANCH  19  20
ENDBRANCH  18  19
ENDBRANCH   1  18
TORSDOF 8
ENDMDL
MODEL 3
REMARK VINA RESULT:    -8.236      1.579      3.855
REMARK INTER + INTRA:         -13.097
REMARK INTER:                 -11.947
REMARK INTRA:                  -1.150
REMARK UNBOUND:                -1.250
REMARK  Name = 
REMARK  9 active torsions:
REMARK  status: ('A' for Active; 'I' for Inactive)
REMARK    1  A    between atoms: C_1  and  O_2
REMARK    2  A    between atoms: O_2  and  C_3
REMARK    3  A    between atoms: C_5  and  C_6
REMARK    4  A    between atoms: C_6  and  O_7
REMARK    5  A    between atoms: C_6  and  C_8
REMARK    6  A    between atoms: C_8  and  O_9
REMARK    7  A    between atoms: O_9  and  C_10
REMARK    8  A    between atoms: C_13  and  C_14
REMARK    9  A    between atoms: C_20  and  C_21
REMARK                            x       y       z     vdW  Elec       q    Type
REMARK                         _______ _______ _______ _____ _____    ______ ____
ROOT
ATOM      1  C   UNL     1      43.759   4.669  12.533  0.00  0.00    +0.000 C 
ENDROOT
BRANCH   1   4
ATOM      2  C   UNL     1      47.193   6.318  12.498  0.00  0.00    +0.000 A 
ATOM      3  C   UNL     1      45.919   5.961  12.086  0.00  0.00    +0.000 A 
ATOM      4  C   UNL     1      45.157   5.119  12.906  0.00  0.00    +0.000 A 
ATOM      5  C   UNL     1      45.738   4.668  14.098  0.00  0.00    +0.000 A 
ATOM      6  C   UNL     1      47.039   5.055  14.431  0.00  0.00    +0.000 A 
ATOM      7  N   UNL     1      47.754   5.889  13.641  0.00  0.00    +0.000 NA
BRANCH   6   8
ATOM      8  C   UNL     1      47.748   4.564  15.627  0.00  0.00    +0.000 A 
ATOM      9  C   UNL     1      47.747   3.205  15.984  0.00  0.00    +0.000 A 
ATOM     10  C   UNL     1      48.458   2.748  17.098  0.00  0.00    +0.000 A 
ATOM     11  C   UNL     1      49.186   3.642  17.877  0.00  0.00    +0.000 A 
ATOM     12  C   UNL     1      49.209   4.993  17.544  0.00  0.00    +0.000 A 
ATOM     13  C   UNL     1      48.497   5.445  16.430  0.00  0.00    +0.000 A 
ENDBRANCH   6   8
BRANCH   2  15
ATOM     14  C   UNL     1      49.267   7.311  12.090  0.00  0.00    +0.000 C 
ATOM     15  O   UNL     1      47.918   7.139  11.656  0.00  0.00    +0.000 OA
ENDBRANCH   2  15
ENDBRANCH   1   4
BRANCH   1  16
ATOM     16  O   UNL     1      42.818   5.460  13.261  0.00  0.00    +0.000 OA
ATOM     17  H   UNL     1      42.072   4.890  13.508  0.00  0.00    +0.000 HD
ENDBRANCH   1  16
BRANCH   1  18
ATOM     18  C   UNL     1      43.524   4.744  11.015  0.00  0.00    +0.000 C 
BRANCH  18  19
ATOM     19  O   UNL     1      43.397   3.432  10.444  0.00  0.00    +0.000 OA
BRANCH  19  20
ATOM     20  C   UNL     1      44.389   3.188   9.515  0.00  0.00    +0.000 A 
ATOM     21  C   UNL     1      44.892   4.266   8.805  0.00  0.00    +0.000 A 
ATOM     22  C   UNL     1      45.904   4.028   7.868  0.00  0.00    +0.000 A 
ATOM     23  C   UNL     1      46.379   2.728   7.672  0.00  0.00    +0.000 A 
ATOM     24  C   UNL     1      45.802   1.720   8.430  0.00  0.00    +0.000 A 
ATOM     25  N   UNL     1      44.824   1.920   9.342  0.00  0.00    +0.000 NA
BRANCH  23  26
ATOM     26  C   UNL     1      47.458   2.475   6.683  0.00  0.00    +0.000 C 
ATOM     27  N   UNL     1      47.452   3.165   5.501  0.00  0.00    +0.000 N 
ATOM     28  O   UNL     1      48.341   1.658   6.910  0.00  0.00    +0.000 OA
ATOM     29  H   UNL     1      46.769   3.845   5.205  0.00  0.00    +0.000 HD
ATOM     30  H   UNL     1      48.200   2.955   4.853  0.00  0.00    +0.000 HD
ENDBRANCH  23  26
ENDBRANCH  19  20
ENDBRANCH  18  19
ENDBRANCH   1  18
TORSDOF 8
ENDMDL
MODEL 4
REMARK VINA RESULT:    -7.591      2.618      6.921
REMARK INTER + INTRA:         -12.169
REMARK INTER:                 -10.951
REMARK INTRA:                  -1.217
REMARK UNBOUND:                -1.250
REMARK  Name = 
REMARK  9 active torsions:
REMARK  status: ('A' for Active; 'I' for Inactive)
REMARK    1  A    between atoms: C_1  and  O_2
REMARK    2  A    between atoms: O_2  and  C_3
REMARK    3  A    between atoms: C_5  and  C_6
REMARK    4  A    between atoms: C_6  and  O_7
REMARK    5  A    between atoms: C_6  and  C_8
REMARK    6  A    between atoms: C_8  and  O_9
REMARK    7  A    between atoms: O_9  and  C_10
REMARK    8  A    between atoms: C_13  and  C_14
REMARK    9  A    between atoms: C_20  and  C_21
REMARK                            x       y       z     vdW  Elec       q    Type
REMARK                         _______ _______ _______ _____ _____    ______ ____
ROOT
ATOM      1  C   UNL     1      45.505   7.059  10.847  0.00  0.00    +0.000 C 
ENDROOT
BRANCH   1   4
ATOM      2  C   UNL     1      43.856   3.628  10.685  0.00  0.00    +0.000 A 
ATOM      3  C   UNL     1      44.150   4.909  11.125  0.00  0.00    +0.000 A 
ATOM      4  C   UNL     1      45.113   5.654  10.433  0.00  0.00    +0.000 A 
ATOM      5  C   UNL     1      45.743   5.051   9.338  0.00  0.00    +0.000 A 
ATOM      6  C   UNL     1      45.407   3.745   8.972  0.00  0.00    +0.000 A 
ATOM      7  N   UNL     1      44.457   3.045   9.634  0.00  0.00    +0.000 NA
BRANCH   6   8
ATOM      8  C   UNL     1      46.076   3.013   7.881  0.00  0.00    +0.000 A 
ATOM      9  C   UNL     1      46.414   3.636   6.667  0.00  0.00    +0.000 A 
ATOM     10  C   UNL     1      47.084   2.940   5.656  0.00  0.00    +0.000 A 
ATOM     11  C   UNL     1      47.432   1.605   5.841  0.00  0.00    +0.000 A 
ATOM     12  C   UNL     1      47.115   0.964   7.034  0.00  0.00    +0.000 A 
ATOM     13  C   UNL     1      46.446   1.663   8.041  0.00  0.00    +0.000 A 
ENDBRANCH   6   8
BRANCH   2  15
ATOM     14  C   UNL     1      43.414   2.442  12.648  0.00  0.00    +0.000 C 
ATOM     15  O   UNL     1      42.911   2.920  11.401  0.00  0.00    +0.000 OA
ENDBRANCH   2  15
ENDBRANCH   1   4
BRANCH   1  16
ATOM     16  O   UNL     1      44.369   7.911  10.692  0.00  0.00    +0.000 OA
ATOM     17  H   UNL     1      44.424   8.612  11.362  0.00  0.00    +0.000 HD
ENDBRANCH   1  16
BRANCH   1  18
ATOM     18  C   UNL     1      46.062   7.094  12.280  0.00  0.00    +0.000 C 
BRANCH  18  19
ATOM     19  O   UNL     1      47.282   6.342  12.381  0.00  0.00    +0.000 OA
BRANCH  19  20
ATOM     20  C   UNL     1      47.356   5.658  13.579  0.00  0.00    +0.000 A 
ATOM     21  C   UNL     1      46.604   4.501  13.712  0.00  0.00    +0.000 A 
ATOM     22  C   UNL     1      46.680   3.798  14.919  0.00  0.00    +0.000 A 
ATOM     23  C   UNL     1      47.500   4.268  15.948  0.00  0.00    +0.000 A 
ATOM     24  C   UNL     1      48.205   5.439  15.714  0.00  0.00    +0.000 A 
ATOM     25  N   UNL     1      48.152   6.140  14.558  0.00  0.00    +0.000 NA
BRANCH  23  26
ATOM     26  C   UNL     1      47.587   3.518  17.227  0.00  0.00    +0.000 C 
ATOM     27  N   UNL     1      48.690   3.680  18.020  0.00  0.00    +0.000 N 
ATOM     28  O   UNL     1      46.691   2.758  17.573  0.00  0.00    +0.000 OA
ATOM     29  H   UNL     1      49.490   4.263  17.826  0.00  0.00    +0.000 HD
ATOM     30  H   UNL     1      48.712   3.143  18.878  0.00  0.00    +0.000 HD
ENDBRANCH  23  26
ENDBRANCH  19  20
ENDBRANCH  18  19
ENDBRANCH   1  18
TORSDOF 8
ENDMDL
MODEL 5
REMARK VINA RESULT:    -7.354      1.981      3.092
REMARK INTER + INTRA:         -11.828
REMARK INTER:                 -10.645
REMARK INTRA:                  -1.183
REMARK UNBOUND:                -1.250
REMARK  Name = 
REMARK  9 active torsions:
REMARK  status: ('A' for Active; 'I' for Inactive)
REMARK    1  A    between atoms: C_1  and  O_2
REMARK    2  A    between atoms: O_2  and  C_3
REMARK    3  A    between atoms: C_5  and  C_6
REMARK    4  A    between atoms: C_6  and  O_7
REMARK    5  A    between atoms: C_6  and  C_8
REMARK    6  A    between atoms: C_8  and  O_9
REMARK    7  A    between atoms: O_9  and  C_10
REMARK    8  A    between atoms: C_13  and  C_14
REMARK    9  A    between atoms: C_20  and  C_21
REMARK                            x       y       z     vdW  Elec       q    Type
REMARK                         _______ _______ _______ _____ _____    ______ ____
ROOT
ATOM      1  C   UNL     1      43.730   4.568  12.780  0.00  0.00    +0.000 C 
ENDROOT
BRANCH   1   4
ATOM      2  C   UNL     1      44.612   8.036  11.473  0.00  0.00    +0.000 A 
ATOM      3  C   UNL     1      43.873   6.891  11.721  0.00  0.00    +0.000 A 
ATOM      4  C   UNL     1      44.459   5.860  12.468  0.00  0.00    +0.000 A 
ATOM      5  C   UNL     1      45.774   6.042  12.910  0.00  0.00    +0.000 A 
ATOM      6  C   UNL     1      46.461   7.217  12.598  0.00  0.00    +0.000 A 
ATOM      7  N   UNL     1      45.875   8.215  11.897  0.00  0.00    +0.000 NA
BRANCH   6   8
ATOM      8  C   UNL     1      47.871   7.453  12.960  0.00  0.00    +0.000 A 
ATOM      9  C   UNL     1      48.775   8.055  12.069  0.00  0.00    +0.000 A 
ATOM     10  C   UNL     1      50.099   8.309  12.440  0.00  0.00    +0.000 A 
ATOM     11  C   UNL     1      50.545   7.966  13.713  0.00  0.00    +0.000 A 
ATOM     12  C   UNL     1      49.670   7.373  14.618  0.00  0.00    +0.000 A 
ATOM     13  C   UNL     1      48.348   7.122  14.243  0.00  0.00    +0.000 A 
ENDBRANCH   6   8
BRANCH   2  15
ATOM     14  C   UNL     1      43.942  10.273  11.411  0.00  0.00    +0.000 C 
ATOM     15  O   UNL     1      44.005   9.024  10.722  0.00  0.00    +0.000 OA
ENDBRANCH   2  15
ENDBRANCH   1   4
BRANCH   1  16
ATOM     16  O   UNL     1      42.328   4.784  12.605  0.00  0.00    +0.000 OA
ATOM     17  H   UNL     1      42.087   5.598  13.075  0.00  0.00    +0.000 HD
ENDBRANCH   1  16
BRANCH   1  18
ATOM     18  C   UNL     1      44.246   3.402  11.921  0.00  0.00    +0.000 C 
BRANCH  18  19
ATOM     19  O   UNL     1      43.643   3.413  10.616  0.00  0.00    +0.000 OA
BRANCH  19  20
ATOM     20  C   UNL     1      44.581   3.194   9.626  0.00  0.00    +0.000 A 
ATOM     21  C   UNL     1      45.093   4.297   8.962  0.00  0.00    +0.000 A 
ATOM     22  C   UNL     1      46.051   4.084   7.964  0.00  0.00    +0.000 A 
ATOM     23  C   UNL     1      46.464   2.783   7.663  0.00  0.00    +0.000 A 
ATOM     24  C   UNL     1      45.883   1.749   8.382  0.00  0.00    +0.000 A 
ATOM     25  N   UNL     1      44.956   1.925   9.352  0.00  0.00    +0.000 NA
BRANCH  23  26
ATOM     26  C   UNL     1      47.484   2.556   6.608  0.00  0.00    +0.000 C 
ATOM     27  N   UNL     1      47.377   3.230   5.423  0.00  0.00    +0.000 N 
ATOM     28  O   UNL     1      48.409   1.773   6.785  0.00  0.00    +0.000 OA
ATOM     29  H   UNL     1      46.653   3.882   5.165  0.00  0.00    +0.000 HD
ATOM     30  H   UNL     1      48.089   3.039   4.729  0.00  0.00    +0.000 HD
ENDBRANCH  23  26
ENDBRANCH  19  20
ENDBRANCH  18  19
ENDBRANCH   1  18
TORSDOF 8
ENDMDL
MODEL 6
REMARK VINA RESULT:    -7.100      2.814      3.552
REMARK INTER + INTRA:         -11.463
REMARK INTER:                 -10.329
REMARK INTRA:                  -1.134
REMARK UNBOUND:                -1.250
REMARK  Name = 
REMARK  9 active torsions:
REMARK  status: ('A' for Active; 'I' for Inactive)
REMARK    1  A    between atoms: C_1  and  O_2
REMARK    2  A    between atoms: O_2  and  C_3
REMARK    3  A    between atoms: C_5  and  C_6
REMARK    4  A    between atoms: C_6  and  O_7
REMARK    5  A    between atoms: C_6  and  C_8
REMARK    6  A    between atoms: C_8  and  O_9
REMARK    7  A    between atoms: O_9  and  C_10
REMARK    8  A    between atoms: C_13  and  C_14
REMARK    9  A    between atoms: C_20  and  C_21
REMARK                            x       y       z     vdW  Elec       q    Type
REMARK                         _______ _______ _______ _____ _____    ______ ____
ROOT
ATOM      1  C   UNL     1      43.259   5.012  12.206  0.00  0.00    +0.000 C 
ENDROOT
BRANCH   1   4
ATOM      2  C   UNL     1      46.199   7.371  12.761  0.00  0.00    +0.000 A 
ATOM      3  C   UNL     1      45.424   6.225  12.823  0.00  0.00    +0.000 A 
ATOM      4  C   UNL     1      44.178   6.218  12.183  0.00  0.00    +0.000 A 
ATOM      5  C   UNL     1      43.775   7.387  11.527  0.00  0.00    +0.000 A 
ATOM      6  C   UNL     1      44.604   8.511  11.530  0.00  0.00    +0.000 A 
ATOM      7  N   UNL     1      45.816   8.496  12.131  0.00  0.00    +0.000 NA
BRANCH   6   8
ATOM      8  C   UNL     1      44.221   9.802  10.928  0.00  0.00    +0.000 A 
ATOM      9  C   UNL     1      44.958  10.976  11.161  0.00  0.00    +0.000 A 
ATOM     10  C   UNL     1      44.607  12.185  10.552  0.00  0.00    +0.000 A 
ATOM     11  C   UNL     1      43.512  12.242   9.695  0.00  0.00    +0.000 A 
ATOM     12  C   UNL     1      42.767  11.094   9.443  0.00  0.00    +0.000 A 
ATOM     13  C   UNL     1      43.121   9.889  10.054  0.00  0.00    +0.000 A 
ENDBRANCH   6   8
BRANCH   2  15
ATOM     14  C   UNL     1      48.060   6.074  13.317  0.00  0.00    +0.000 C 
ATOM     15  O   UNL     1      47.415   7.344  13.415  0.00  0.00    +0.000 OA
ENDBRANCH   2  15
ENDBRANCH   1   4
BRANCH   1  16
ATOM     16  O   UNL     1      42.117   5.296  11.395  0.00  0.00    +0.000 OA
ATOM     17  H   UNL     1      41.427   5.667  11.968  0.00  0.00    +0.000 HD
ENDBRANCH   1  16
BRANCH   1  18
ATOM     18  C   UNL     1      43.986   3.735  11.753  0.00  0.00    +0.000 C 
BRANCH  18  19
ATOM     19  O   UNL     1      43.430   3.229  10.528  0.00  0.00    +0.000 OA
BRANCH  19  20
ATOM     20  C   UNL     1      44.408   3.038   9.571  0.00  0.00    +0.000 A 
ATOM     21  C   UNL     1      44.833   4.142   8.849  0.00  0.00    +0.000 A 
ATOM     22  C   UNL     1      45.830   3.958   7.884  0.00  0.00    +0.000 A 
ATOM     23  C   UNL     1      46.368   2.685   7.673  0.00  0.00    +0.000 A 
ATOM     24  C   UNL     1      45.867   1.648   8.445  0.00  0.00    +0.000 A 
ATOM     25  N   UNL     1      44.904   1.796   9.384  0.00  0.00    +0.000 NA
BRANCH  23  26
ATOM     26  C   UNL     1      47.431   2.490   6.654  0.00  0.00    +0.000 C 
ATOM     27  N   UNL     1      47.437   3.283   5.540  0.00  0.00    +0.000 N 
ATOM     28  O   UNL     1      48.289   1.629   6.798  0.00  0.00    +0.000 OA
ATOM     29  H   UNL     1      46.774   4.007   5.313  0.00  0.00    +0.000 HD
ATOM     30  H   UNL     1      48.174   3.110   4.868  0.00  0.00    +0.000 HD
ENDBRANCH  23  26
ENDBRANCH  19  20
ENDBRANCH  18  19
ENDBRANCH   1  18
TORSDOF 8
ENDMDL
MODEL 7
REMARK VINA RESULT:    -6.869      4.292      7.230
REMARK INTER + INTRA:         -11.131
REMARK INTER:                 -10.388
REMARK INTRA:                  -0.743
REMARK UNBOUND:                -1.250
REMARK  Name = 
REMARK  9 active torsions:
REMARK  status: ('A' for Active; 'I' for Inactive)
REMARK    1  A    between atoms: C_1  and  O_2
REMARK    2  A    between atoms: O_2  and  C_3
REMARK    3  A    between atoms: C_5  and  C_6
REMARK    4  A    between atoms: C_6  and  O_7
REMARK    5  A    between atoms: C_6  and  C_8
REMARK    6  A    between atoms: C_8  and  O_9
REMARK    7  A    between atoms: O_9  and  C_10
REMARK    8  A    between atoms: C_13  and  C_14
REMARK    9  A    between atoms: C_20  and  C_21
REMARK                            x       y       z     vdW  Elec       q    Type
REMARK                         _______ _______ _______ _____ _____    ______ ____
ROOT
ATOM      1  C   UNL     1      47.624   3.137  16.807  0.00  0.00    +0.000 C 
ENDROOT
BRANCH   1   4
ATOM      2  C   UNL     1      50.198   4.978  18.929  0.00  0.00    +0.000 A 
ATOM      3  C   UNL     1      48.990   4.683  18.318  0.00  0.00    +0.000 A 
ATOM      4  C   UNL     1      48.902   3.534  17.521  0.00  0.00    +0.000 A 
ATOM      5  C   UNL     1      50.054   2.754  17.371  0.00  0.00    +0.000 A 
ATOM      6  C   UNL     1      51.241   3.133  18.001  0.00  0.00    +0.000 A 
ATOM      7  N   UNL     1      51.307   4.231  18.789  0.00  0.00    +0.000 NA
BRANCH   6   8
ATOM      8  C   UNL     1      52.515   2.409  17.832  0.00  0.00    +0.000 A 
ATOM      9  C   UNL     1      52.555   1.021  17.610  0.00  0.00    +0.000 A 
ATOM     10  C   UNL     1      53.768   0.354  17.412  0.00  0.00    +0.000 A 
ATOM     11  C   UNL     1      54.966   1.062  17.430  0.00  0.00    +0.000 A 
ATOM     12  C   UNL     1      54.955   2.437  17.643  0.00  0.00    +0.000 A 
ATOM     13  C   UNL     1      53.742   3.100  17.841  0.00  0.00    +0.000 A 
ENDBRANCH   6   8
BRANCH   2  15
ATOM     14  C   UNL     1      50.261   7.313  18.904  0.00  0.00    +0.000 C 
ATOM     15  O   UNL     1      50.250   6.126  19.696  0.00  0.00    +0.000 OA
ENDBRANCH   2  15
ENDBRANCH   1   4
BRANCH   1  16
ATOM     16  O   UNL     1      46.560   3.117  17.760  0.00  0.00    +0.000 OA
ATOM     17  H   UNL     1      45.884   2.497  17.443  0.00  0.00    +0.000 HD
ENDBRANCH   1  16
BRANCH   1  18
ATOM     18  C   UNL     1      47.321   4.070  15.624  0.00  0.00    +0.000 C 
BRANCH  18  19
ATOM     19  O   UNL     1      47.512   3.395  14.369  0.00  0.00    +0.000 OA
BRANCH  19  20
ATOM     20  C   UNL     1      46.567   3.783  13.439  0.00  0.00    +0.000 A 
ATOM     21  C   UNL     1      46.507   5.124  13.096  0.00  0.00    +0.000 A 
ATOM     22  C   UNL     1      45.559   5.523  12.147  0.00  0.00    +0.000 A 
ATOM     23  C   UNL     1      44.707   4.575  11.574  0.00  0.00    +0.000 A 
ATOM     24  C   UNL     1      44.846   3.261  11.992  0.00  0.00    +0.000 A 
ATOM     25  N   UNL     1      45.753   2.846  12.906  0.00  0.00    +0.000 NA
BRANCH  23  26
ATOM     26  C   UNL     1      43.705   4.997  10.562  0.00  0.00    +0.000 C 
ATOM     27  N   UNL     1      43.876   4.619   9.259  0.00  0.00    +0.000 N 
ATOM     28  O   UNL     1      42.738   5.678  10.880  0.00  0.00    +0.000 OA
ATOM     29  H   UNL     1      44.639   4.076   8.885  0.00  0.00    +0.000 HD
ATOM     30  H   UNL     1      43.174   4.936   8.601  0.00  0.00    +0.000 HD
ENDBRANCH  23  26
ENDBRANCH  19  20
ENDBRANCH  18  19
ENDBRANCH   1  18
TORSDOF 8
ENDMDL
MODEL 8
REMARK VINA RESULT:    -6.652      4.208      6.948
REMARK INTER + INTRA:         -10.819
REMARK INTER:                 -10.093
REMARK INTRA:                  -0.726
REMARK UNBOUND:                -1.250
REMARK  Name = 
REMARK  9 active torsions:
REMARK  status: ('A' for Active; 'I' for Inactive)
REMARK    1  A    between atoms: C_1  and  O_2
REMARK    2  A    between atoms: O_2  and  C_3
REMARK    3  A    between atoms: C_5  and  C_6
REMARK    4  A    between atoms: C_6  and  O_7
REMARK    5  A    between atoms: C_6  and  C_8
REMARK    6  A    between atoms: C_8  and  O_9
REMARK    7  A    between atoms: O_9  and  C_10
REMARK    8  A    between atoms: C_13  and  C_14
REMARK    9  A    between atoms: C_20  and  C_21
REMARK                            x       y       z     vdW  Elec       q    Type
REMARK                         _______ _______ _______ _____ _____    ______ ____
ROOT
ATOM      1  C   UNL     1      47.676   3.372  17.007  0.00  0.00    +0.000 C 
ENDROOT
BRANCH   1   4
ATOM      2  C   UNL     1      50.501   4.885  19.067  0.00  0.00    +0.000 A 
ATOM      3  C   UNL     1      49.838   4.028  18.205  0.00  0.00    +0.000 A 
ATOM      4  C   UNL     1      48.484   4.262  17.931  0.00  0.00    +0.000 A 
ATOM      5  C   UNL     1      47.869   5.348  18.565  0.00  0.00    +0.000 A 
ATOM      6  C   UNL     1      48.601   6.152  19.441  0.00  0.00    +0.000 A 
ATOM      7  N   UNL     1      49.915   5.930  19.677  0.00  0.00    +0.000 NA
BRANCH   6   8
ATOM      8  C   UNL     1      48.009   7.266  20.205  0.00  0.00    +0.000 A 
ATOM      9  C   UNL     1      47.738   8.511  19.611  0.00  0.00    +0.000 A 
ATOM     10  C   UNL     1      47.140   9.546  20.337  0.00  0.00    +0.000 A 
ATOM     11  C   UNL     1      46.798   9.355  21.672  0.00  0.00    +0.000 A 
ATOM     12  C   UNL     1      47.051   8.131  22.285  0.00  0.00    +0.000 A 
ATOM     13  C   UNL     1      47.649   7.100  21.556  0.00  0.00    +0.000 A 
ENDBRANCH   6   8
BRANCH   2  15
ATOM     14  C   UNL     1      52.329   3.531  18.537  0.00  0.00    +0.000 C 
ATOM     15  O   UNL     1      51.832   4.614  19.323  0.00  0.00    +0.000 OA
ENDBRANCH   2  15
ENDBRANCH   1   4
BRANCH   1  16
ATOM     16  O   UNL     1      46.598   2.804  17.754  0.00  0.00    +0.000 OA
ATOM     17  H   UNL     1      46.470   3.339  18.553  0.00  0.00    +0.000 HD
ENDBRANCH   1  16
BRANCH   1  18
ATOM     18  C   UNL     1      47.181   4.138  15.770  0.00  0.00    +0.000 C 
BRANCH  18  19
ATOM     19  O   UNL     1      47.312   3.342  14.581  0.00  0.00    +0.000 OA
BRANCH  19  20
ATOM     20  C   UNL     1      46.418   3.741  13.605  0.00  0.00    +0.000 A 
ATOM     21  C   UNL     1      46.221   5.100  13.423  0.00  0.00    +0.000 A 
ATOM     22  C   UNL     1      45.325   5.512  12.431  0.00  0.00    +0.000 A 
ATOM     23  C   UNL     1      44.658   4.558  11.657  0.00  0.00    +0.000 A 
ATOM     24  C   UNL     1      44.922   3.224  11.925  0.00  0.00    +0.000 A 
ATOM     25  N   UNL     1      45.783   2.796  12.877  0.00  0.00    +0.000 NA
BRANCH  23  26
ATOM     26  C   UNL     1      43.711   4.995  10.599  0.00  0.00    +0.000 C 
ATOM     27  N   UNL     1      43.899   4.558   9.316  0.00  0.00    +0.000 N 
ATOM     28  O   UNL     1      42.776   5.741  10.860  0.00  0.00    +0.000 OA
ATOM     29  H   UNL     1      44.640   3.959   8.987  0.00  0.00    +0.000 HD
ATOM     30  H   UNL     1      43.235   4.887   8.626  0.00  0.00    +0.000 HD
ENDBRANCH  23  26
ENDBRANCH  19  20
ENDBRANCH  18  19
ENDBRANCH   1  18
TORSDOF 8
ENDMDL
MODEL 9
REMARK VINA RESULT:    -6.369      3.628      7.673
REMARK INTER + INTRA:         -10.411
REMARK INTER:                  -9.308
REMARK INTRA:                  -1.104
REMARK UNBOUND:                -1.250
REMARK  Name = 
REMARK  9 active torsions:
REMARK  status: ('A' for Active; 'I' for Inactive)
REMARK    1  A    between atoms: C_1  and  O_2
REMARK    2  A    between atoms: O_2  and  C_3
REMARK    3  A    between atoms: C_5  and  C_6
REMARK    4  A    between atoms: C_6  and  O_7
REMARK    5  A    between atoms: C_6  and  C_8
REMARK    6  A    between atoms: C_8  and  O_9
REMARK    7  A    between atoms: O_9  and  C_10
REMARK    8  A    between atoms: C_13  and  C_14
REMARK    9  A    between atoms: C_20  and  C_21
REMARK                            x       y       z     vdW  Elec       q    Type
REMARK                         _______ _______ _______ _____ _____    ______ ____
ROOT
ATOM      1  C   UNL     1      48.974   8.442  12.351  0.00  0.00    +0.000 C 
ENDROOT
BRANCH   1   4
ATOM      2  C   UNL     1      45.261   9.159  11.892  0.00  0.00    +0.000 A 
ATOM      3  C   UNL     1      46.612   9.387  12.097  0.00  0.00    +0.000 A 
ATOM      4  C   UNL     1      47.483   8.290  12.124  0.00  0.00    +0.000 A 
ATOM      5  C   UNL     1      46.931   7.014  11.959  0.00  0.00    +0.000 A 
ATOM      6  C   UNL     1      45.553   6.867  11.782  0.00  0.00    +0.000 A 
ATOM      7  N   UNL     1      44.727   7.936  11.732  0.00  0.00    +0.000 NA
BRANCH   6   8
ATOM      8  C   UNL     1      44.886   5.556  11.677  0.00  0.00    +0.000 A 
ATOM      9  C   UNL     1      44.299   4.931  12.792  0.00  0.00    +0.000 A 
ATOM     10  C   UNL     1      43.634   3.707  12.670  0.00  0.00    +0.000 A 
ATOM     11  C   UNL     1      43.541   3.083  11.430  0.00  0.00    +0.000 A 
ATOM     12  C   UNL     1      44.109   3.681  10.309  0.00  0.00    +0.000 A 
ATOM     13  C   UNL     1      44.772   4.904  10.435  0.00  0.00    +0.000 A 
ENDBRANCH   6   8
BRANCH   2  15
ATOM     14  C   UNL     1      45.131  11.470  11.575  0.00  0.00    +0.000 C 
ATOM     15  O   UNL     1      44.432  10.265  11.885  0.00  0.00    +0.000 OA
ENDBRANCH   2  15
ENDBRANCH   1   4
BRANCH   1  16
ATOM     16  O   UNL     1      49.223   9.751  12.867  0.00  0.00    +0.000 OA
ATOM     17  H   UNL     1      50.123  10.010  12.611  0.00  0.00    +0.000 HD
ENDBRANCH   1  16
BRANCH   1  18
ATOM     18  C   UNL     1      49.524   7.343  13.275  0.00  0.00    +0.000 C 
BRANCH  18  19
ATOM     19  O   UNL     1      49.398   7.717  14.657  0.00  0.00    +0.000 OA
BRANCH  19  20
ATOM     20  C   UNL     1      48.953   6.659  15.427  0.00  0.00    +0.000 A 
ATOM     21  C   UNL     1      49.422   6.561  16.727  0.00  0.00    +0.000 A 
ATOM     22  C   UNL     1      48.969   5.498  17.516  0.00  0.00    +0.000 A 
ATOM     23  C   UNL     1      48.066   4.573  16.984  0.00  0.00    +0.000 A 
ATOM     24  C   UNL     1      47.665   4.759  15.670  0.00  0.00    +0.000 A 
ATOM     25  N   UNL     1      48.086   5.777  14.884  0.00  0.00    +0.000 NA
BRANCH  23  26
ATOM     26  C   UNL     1      47.579   3.448  17.823  0.00  0.00    +0.000 C 
ATOM     27  N   UNL     1      48.251   3.136  18.973  0.00  0.00    +0.000 N 
ATOM     28  O   UNL     1      46.595   2.798  17.494  0.00  0.00    +0.000 OA
ATOM     29  H   UNL     1      49.078   3.591  19.329  0.00  0.00    +0.000 HD
ATOM     30  H   UNL     1      47.890   2.357  19.509  0.00  0.00    +0.000 HD
ENDBRANCH  23  26
ENDBRANCH  19  20
ENDBRANCH  18  19
ENDBRANCH   1  18
TORSDOF 8
ENDMDL
