MODEL 1
REMARK VINA RESULT:    -7.694      0.000      0.000
REMARK INTER + INTRA:         -10.523
REMARK INTER:                  -9.943
REMARK INTRA:                  -0.580
REMARK UNBOUND:                -0.580
REMARK  Name = 
REMARK  5 active torsions:
REMARK  status: ('A' for Active; 'I' for Inactive)
REMARK    1  A    between atoms: C_2  and  C_4
REMARK    2  A    between atoms: C_8  and  C_9
REMARK    3  A    between atoms: C_9  and  S_10
REMARK    4  A    between atoms: S_10  and  C_11
REMARK    5  A    between atoms: C_15  and  C_16
REMARK                            x       y       z     vdW  Elec       q    Type
REMARK                         _______ _______ _______ _____ _____    ______ ____
ROOT
ATOM      1  S   UNL     1      43.519   4.717  11.139  0.00  0.00    +0.000 S 
ENDROOT
BRANCH   1   2
ATOM      2  C   UNL     1      44.962   5.201  12.073  0.00  0.00    +0.000 A 
ATOM      3  C   UNL     1      45.307   4.484  13.214  0.00  0.00    +0.000 A 
ATOM      4  N   UNL     1      46.374   4.764  13.999  0.00  0.00    +0.000 NA
ATOM      5  C   UNL     1      47.135   5.823  13.637  0.00  0.00    +0.000 A 
ATOM      6  C   UNL     1      46.900   6.635  12.525  0.00  0.00    +0.000 A 
ATOM      7  C   UNL     1      45.776   6.292  11.751  0.00  0.00    +0.000 A 
BRANCH   6   8
ATOM      8  C   UNL     1      47.771   7.774  12.172  0.00  0.00    +0.000 A 
ATOM      9  C   UNL     1      47.303   9.099  12.151  0.00  0.00    +0.000 A 
ATOM     10  C   UNL     1      48.149  10.152  11.800  0.00  0.00    +0.000 A 
ATOM     11  C   UNL     1      49.462   9.860  11.482  0.00  0.00    +0.000 A 
ATOM     12  N   UNL     1      49.966   8.611  11.484  0.00  0.00    +0.000 NA
ATOM     13  C   UNL     1      49.115   7.609  11.822  0.00  0.00    +0.000 A 
ENDBRANCH   6   8
ENDBRANCH   1   2
BRANCH   1  14
ATOM     14  C   UNL     1      44.005   3.075  10.520  0.00  0.00    +0.000 C 
BRANCH  14  19
ATOM     15  C   UNL     1      46.421   2.022   7.761  0.00  0.00    +0.000 A 
ATOM     16  C   UNL     1      46.702   3.251   7.154  0.00  0.00    +0.000 A 
ATOM     17  C   UNL     1      46.151   4.424   7.671  0.00  0.00    +0.000 A 
ATOM     18  C   UNL     1      45.305   4.374   8.780  0.00  0.00    +0.000 A 
ATOM     19  C   UNL     1      44.984   3.147   9.376  0.00  0.00    +0.000 A 
ATOM     20  C   UNL     1      45.560   1.973   8.865  0.00  0.00    +0.000 A 
BRANCH  15  22
ATOM     21  N   UNL     1      47.733   0.807   6.106  0.00  0.00    +0.000 N 
ATOM     22  C   UNL     1      46.977   0.745   7.243  0.00  0.00    +0.000 C 
ATOM     23  O   UNL     1      46.798  -0.317   7.826  0.00  0.00    +0.000 OA
ATOM     24  H   UNL     1      48.197  -0.050   5.832  0.00  0.00    +0.000 HD
ATOM     25  H   UNL     1      48.106   1.676   5.754  0.00  0.00    +0.000 HD
ENDBRANCH  15  22
ENDBRANCH  14  19
ENDBRANCH   1  14
TORSDOF 5
ENDMDL
MODEL 2
REMARK VINA RESULT:    -7.601      2.712      6.432
REMARK INTER + INTRA:         -10.402
REMARK INTER:                 -10.018
REMARK INTRA:                  -0.384
REMARK UNBOUND:                -0.580
REMARK  Name = 
REMARK  5 active torsions:
REMARK  status: ('A' for Active; 'I' for Inactive)
REMARK    1  A    between atoms: C_2  and  C_4
REMARK    2  A    between atoms: C_8  and  C_9
REMARK    3  A    between atoms: C_9  and  S_10
REMARK    4  A    between atoms: S_10  and  C_11
REMARK    5  A    between atoms: C_15  and  C_16
REMARK                            x       y       z     vdW  Elec       q    Type
REMARK                         _______ _______ _______ _____ _____    ______ ____
ROOT
ATOM      1  S   UNL     1      43.339   6.750  11.391  0.00  0.00    +0.000 S 
ENDROOT
BRANCH   1   2
ATOM      2  C   UNL     1      43.646   5.046  10.954  0.00  0.00    +0.000 A 
ATOM      3  C   UNL     1      43.054   4.034  11.701  0.00  0.00    +0.000 A 
ATOM      4  N   UNL     1      43.220   2.711  11.464  0.00  0.00    +0.000 NA
ATOM      5  C   UNL     1      44.029   2.375  10.432  0.00  0.00    +0.000 A 
ATOM      6  C   UNL     1      44.694   3.284   9.607  0.00  0.00    +0.000 A 
ATOM      7  C   UNL     1      44.481   4.642   9.907  0.00  0.00    +0.000 A 
BRANCH   6   8
ATOM      8  C   UNL     1      45.559   2.859   8.488  0.00  0.00    +0.000 A 
ATOM      9  C   UNL     1      45.938   3.736   7.458  0.00  0.00    +0.000 A 
ATOM     10  C   UNL     1      46.746   3.300   6.407  0.00  0.00    +0.000 A 
ATOM     11  C   UNL     1      47.172   1.985   6.409  0.00  0.00    +0.000 A 
ATOM     12  N   UNL     1      46.841   1.100   7.369  0.00  0.00    +0.000 NA
ATOM     13  C   UNL     1      46.047   1.554   8.372  0.00  0.00    +0.000 A 
ENDBRANCH   6   8
ENDBRANCH   1   2
BRANCH   1  14
ATOM     14  C   UNL     1      44.992   7.489  11.204  0.00  0.00    +0.000 C 
BRANCH  14  19
ATOM     15  C   UNL     1      46.889   5.295  13.683  0.00  0.00    +0.000 A 
ATOM     16  C   UNL     1      47.832   6.198  14.188  0.00  0.00    +0.000 A 
ATOM     17  C   UNL     1      47.818   7.528  13.765  0.00  0.00    +0.000 A 
ATOM     18  C   UNL     1      46.879   7.956  12.825  0.00  0.00    +0.000 A 
ATOM     19  C   UNL     1      45.953   7.055  12.281  0.00  0.00    +0.000 A 
ATOM     20  C   UNL     1      45.958   5.725  12.728  0.00  0.00    +0.000 A 
BRANCH  15  22
ATOM     21  N   UNL     1      46.197   2.992  13.289  0.00  0.00    +0.000 N 
ATOM     22  C   UNL     1      46.868   3.869  14.096  0.00  0.00    +0.000 C 
ATOM     23  O   UNL     1      47.455   3.481  15.099  0.00  0.00    +0.000 OA
ATOM     24  H   UNL     1      46.289   2.012  13.522  0.00  0.00    +0.000 HD
ATOM     25  H   UNL     1      45.929   3.227  12.345  0.00  0.00    +0.000 HD
ENDBRANCH  15  22
ENDBRANCH  14  19
ENDBRANCH   1  14
TORSDOF 5
ENDMDL
MODEL 3
REMARK VINA RESULT:    -7.362      2.027      2.417
REMARK INTER + INTRA:         -10.094
REMARK INTER:                  -9.378
REMARK INTRA:                  -0.716
REMARK UNBOUND:                -0.580
REMARK  Name = 
REMARK  5 active torsions:
REMARK  status: ('A' for Active; 'I' for Inactive)
REMARK    1  A    between atoms: C_2  and  C_4
REMARK    2  A    between atoms: C_8  and  C_9
REMARK    3  A    between atoms: C_9  and  S_10
REMARK    4  A    between atoms: S_10  and  C_11
REMARK    5  A    between atoms: C_15  and  C_16
REMARK                            x       y       z     vdW  Elec       q    Type
REMARK                         _______ _______ _______ _____ _____    ______ ____
ROOT
ATOM      1  S   UNL     1      44.676   3.155  12.140  0.00  0.00    +0.000 S 
ENDROOT
BRANCH   1   2
ATOM      2  C   UNL     1      45.458   4.718  12.507  0.00  0.00    +0.000 A 
ATOM      3  C   UNL     1      46.596   4.740  13.306  0.00  0.00    +0.000 A 
ATOM      4  N   UNL     1      47.266   5.864  13.652  0.00  0.00    +0.000 NA
ATOM      5  C   UNL     1      46.771   7.035  13.186  0.00  0.00    +0.000 A 
ATOM      6  C   UNL     1      45.634   7.162  12.385  0.00  0.00    +0.000 A 
ATOM      7  C   UNL     1      44.984   5.957  12.062  0.00  0.00    +0.000 A 
BRANCH   6   8
ATOM      8  C   UNL     1      45.145   8.467  11.897  0.00  0.00    +0.000 A 
ATOM      9  C   UNL     1      45.791   9.675  12.207  0.00  0.00    +0.000 A 
ATOM     10  C   UNL     1      45.295  10.893  11.741  0.00  0.00    +0.000 A 
ATOM     11  C   UNL     1      44.156  10.881  10.958  0.00  0.00    +0.000 A 
ATOM     12  N   UNL     1      43.494   9.755  10.629  0.00  0.00    +0.000 NA
ATOM     13  C   UNL     1      43.998   8.588  11.106  0.00  0.00    +0.000 A 
ENDBRANCH   6   8
ENDBRANCH   1   2
BRANCH   1  14
ATOM     14  C   UNL     1      43.967   3.467  10.493  0.00  0.00    +0.000 C 
BRANCH  14  19
ATOM     15  C   UNL     1      46.397   2.151   7.862  0.00  0.00    +0.000 A 
ATOM     16  C   UNL     1      46.818   3.339   7.254  0.00  0.00    +0.000 A 
ATOM     17  C   UNL     1      46.356   4.567   7.731  0.00  0.00    +0.000 A 
ATOM     18  C   UNL     1      45.459   4.613   8.800  0.00  0.00    +0.000 A 
ATOM     19  C   UNL     1      44.999   3.430   9.395  0.00  0.00    +0.000 A 
ATOM     20  C   UNL     1      45.486   2.200   8.925  0.00  0.00    +0.000 A 
BRANCH  15  22
ATOM     21  N   UNL     1      47.620   0.790   6.254  0.00  0.00    +0.000 N 
ATOM     22  C   UNL     1      46.855   0.821   7.386  0.00  0.00    +0.000 C 
ATOM     23  O   UNL     1      46.591  -0.207   7.998  0.00  0.00    +0.000 OA
ATOM     24  H   UNL     1      48.018  -0.108   6.009  0.00  0.00    +0.000 HD
ATOM     25  H   UNL     1      48.062   1.617   5.879  0.00  0.00    +0.000 HD
ENDBRANCH  15  22
ENDBRANCH  14  19
ENDBRANCH   1  14
TORSDOF 5
ENDMDL
MODEL 4
REMARK VINA RESULT:    -7.179      1.523      2.030
REMARK INTER + INTRA:          -9.857
REMARK INTER:                  -9.175
REMARK INTRA:                  -0.682
REMARK UNBOUND:                -0.580
REMARK  Name = 
REMARK  5 active torsions:
REMARK  status: ('A' for Active; 'I' for Inactive)
REMARK    1  A    between atoms: C_2  and  C_4
REMARK    2  A    between atoms: C_8  and  C_9
REMARK    3  A    between atoms: C_9  and  S_10
REMARK    4  A    between atoms: S_10  and  C_11
REMARK    5  A    between atoms: C_15  and  C_16
REMARK                            x       y       z     vdW  Elec       q    Type
REMARK                         _______ _______ _______ _____ _____    ______ ____
ROOT
ATOM      1  S   UNL     1      44.019   5.418  11.131  0.00  0.00    +0.000 S 
ENDROOT
BRANCH   1   2
ATOM      2  C   UNL     1      45.359   5.356  12.310  0.00  0.00    +0.000 A 
ATOM      3  C   UNL     1      45.289   4.464  13.375  0.00  0.00    +0.000 A 
ATOM      4  N   UNL     1      46.241   4.334  14.328  0.00  0.00    +0.000 NA
ATOM      5  C   UNL     1      47.320   5.145  14.224  0.00  0.00    +0.000 A 
ATOM      6  C   UNL     1      47.516   6.092  13.216  0.00  0.00    +0.000 A 
ATOM      7  C   UNL     1      46.490   6.177  12.257  0.00  0.00    +0.000 A 
BRANCH   6   8
ATOM      8  C   UNL     1      48.720   6.945  13.147  0.00  0.00    +0.000 A 
ATOM      9  C   UNL     1      49.211   7.454  11.933  0.00  0.00    +0.000 A 
ATOM     10  C   UNL     1      50.359   8.247  11.901  0.00  0.00    +0.000 A 
ATOM     11  C   UNL     1      50.997   8.527  13.095  0.00  0.00    +0.000 A 
ATOM     12  N   UNL     1      50.573   8.066  14.288  0.00  0.00    +0.000 NA
ATOM     13  C   UNL     1      49.458   7.291  14.283  0.00  0.00    +0.000 A 
ENDBRANCH   6   8
ENDBRANCH   1   2
BRANCH   1  14
ATOM     14  C   UNL     1      44.914   5.440   9.546  0.00  0.00    +0.000 C 
BRANCH  14  19
ATOM     15  C   UNL     1      46.515   2.595   7.571  0.00  0.00    +0.000 A 
ATOM     16  C   UNL     1      45.904   1.477   8.149  0.00  0.00    +0.000 A 
ATOM     17  C   UNL     1      44.937   1.648   9.141  0.00  0.00    +0.000 A 
ATOM     18  C   UNL     1      44.590   2.930   9.571  0.00  0.00    +0.000 A 
ATOM     19  C   UNL     1      45.221   4.058   9.028  0.00  0.00    +0.000 A 
ATOM     20  C   UNL     1      46.176   3.880   8.015  0.00  0.00    +0.000 A 
BRANCH  15  22
ATOM     21  N   UNL     1      47.405   3.226   5.392  0.00  0.00    +0.000 N 
ATOM     22  C   UNL     1      47.554   2.465   6.518  0.00  0.00    +0.000 C 
ATOM     23  O   UNL     1      48.528   1.735   6.662  0.00  0.00    +0.000 OA
ATOM     24  H   UNL     1      48.177   3.212   4.738  0.00  0.00    +0.000 HD
ATOM     25  H   UNL     1      46.771   4.010   5.352  0.00  0.00    +0.000 HD
ENDBRANCH  15  22
ENDBRANCH  14  19
ENDBRANCH   1  14
TORSDOF 5
ENDMDL
MODEL 5
REMARK VINA RESULT:    -7.100      2.980      7.331
REMARK INTER + INTRA:          -9.755
REMARK INTER:                  -9.132
REMARK INTRA:                  -0.623
REMARK UNBOUND:                -0.580
REMARK  Name = 
REMARK  5 active torsions:
REMARK  status: ('A' for Active; 'I' for Inactive)
REMARK    1  A    between atoms: C_2  and  C_4
REMARK    2  A    between atoms: C_8  and  C_9
REMARK    3  A    between atoms: C_9  and  S_10
REMARK    4  A    between atoms: S_10  and  C_11
REMARK    5  A    between atoms: C_15  and  C_16
REMARK                            x       y       z     vdW  Elec       q    Type
REMARK                         _______ _______ _______ _____ _____    ______ ____
ROOT
ATOM      1  S   UNL     1      44.794   7.145  11.318  0.00  0.00    +0.000 S 
ENDROOT
BRANCH   1   2
ATOM      2  C   UNL     1      44.556   5.462  10.771  0.00  0.00    +0.000 A 
ATOM      3  C   UNL     1      43.613   4.665  11.410  0.00  0.00    +0.000 A 
ATOM      4  N   UNL     1      43.353   3.377  11.083  0.00  0.00    +0.000 NA
ATOM      5  C   UNL     1      44.080   2.847  10.072  0.00  0.00    +0.000 A 
ATOM      6  C   UNL     1      45.064   3.527   9.352  0.00  0.00    +0.000 A 
ATOM      7  C   UNL     1      45.287   4.860   9.740  0.00  0.00    +0.000 A 
BRANCH   6   8
ATOM      8  C   UNL     1      45.821   2.900   8.249  0.00  0.00    +0.000 A 
ATOM      9  C   UNL     1      46.219   3.617   7.109  0.00  0.00    +0.000 A 
ATOM     10  C   UNL     1      46.922   2.992   6.078  0.00  0.00    +0.000 A 
ATOM     11  C   UNL     1      47.225   1.650   6.211  0.00  0.00    +0.000 A 
ATOM     12  N   UNL     1      46.870   0.912   7.281  0.00  0.00    +0.000 NA
ATOM     13  C   UNL     1      46.180   1.549   8.261  0.00  0.00    +0.000 A 
ENDBRANCH   6   8
ENDBRANCH   1   2
BRANCH   1  14
ATOM     14  C   UNL     1      45.626   6.906  12.920  0.00  0.00    +0.000 C 
BRANCH  14  19
ATOM     15  C   UNL     1      49.249   7.428  13.995  0.00  0.00    +0.000 A 
ATOM     16  C   UNL     1      49.877   7.637  12.762  0.00  0.00    +0.000 A 
ATOM     17  C   UNL     1      49.119   7.662  11.591  0.00  0.00    +0.000 A 
ATOM     18  C   UNL     1      47.739   7.459  11.642  0.00  0.00    +0.000 A 
ATOM     19  C   UNL     1      47.101   7.210  12.865  0.00  0.00    +0.000 A 
ATOM     20  C   UNL     1      47.866   7.209  14.042  0.00  0.00    +0.000 A 
BRANCH  15  22
ATOM     21  N   UNL     1      50.366   8.582  15.827  0.00  0.00    +0.000 N 
ATOM     22  C   UNL     1      50.013   7.386  15.268  0.00  0.00    +0.000 C 
ATOM     23  O   UNL     1      50.288   6.326  15.818  0.00  0.00    +0.000 OA
ATOM     24  H   UNL     1      50.783   8.539  16.748  0.00  0.00    +0.000 HD
ATOM     25  H   UNL     1      49.943   9.454  15.545  0.00  0.00    +0.000 HD
ENDBRANCH  15  22
ENDBRANCH  14  19
ENDBRANCH   1  14
TORSDOF 5
ENDMDL
MODEL 6
REMARK VINA RESULT:    -7.027      2.351      4.170
REMARK INTER + INTRA:          -9.661
REMARK INTER:                  -9.123
REMARK INTRA:                  -0.538
REMARK UNBOUND:                -0.580
REMARK  Name = 
REMARK  5 active torsions:
REMARK  status: ('A' for Active; 'I' for Inactive)
REMARK    1  A    between atoms: C_2  and  C_4
REMARK    2  A    between atoms: C_8  and  C_9
REMARK    3  A    between atoms: C_9  and  S_10
REMARK    4  A    between atoms: S_10  and  C_11
REMARK    5  A    between atoms: C_15  and  C_16
REMARK                            x       y       z     vdW  Elec       q    Type
REMARK                         _______ _______ _______ _____ _____    ______ ____
ROOT
ATOM      1  S   UNL     1      44.327   5.124  11.399  0.00  0.00    +0.000 S 
ENDROOT
BRANCH   1   2
ATOM      2  C   UNL     1      45.780   5.557  12.343  0.00  0.00    +0.000 A 
ATOM      3  C   UNL     1      46.684   6.475  11.819  0.00  0.00    +0.000 A 
ATOM      4  N   UNL     1      47.818   6.872  12.443  0.00  0.00    +0.000 NA
ATOM      5  C   UNL     1      48.074   6.319  13.651  0.00  0.00    +0.000 A 
ATOM      6  C   UNL     1      47.261   5.380  14.290  0.00  0.00    +0.000 A 
ATOM      7  C   UNL     1      46.099   5.008  13.590  0.00  0.00    +0.000 A 
BRANCH   6   8
ATOM      8  C   UNL     1      47.586   4.815  15.616  0.00  0.00    +0.000 A 
ATOM      9  C   UNL     1      48.548   5.392  16.462  0.00  0.00    +0.000 A 
ATOM     10  C   UNL     1      48.841   4.826  17.703  0.00  0.00    +0.000 A 
ATOM     11  C   UNL     1      48.154   3.688  18.084  0.00  0.00    +0.000 A 
ATOM     12  N   UNL     1      47.223   3.092  17.315  0.00  0.00    +0.000 NA
ATOM     13  C   UNL     1      46.968   3.662  16.110  0.00  0.00    +0.000 A 
ENDBRANCH   6   8
ENDBRANCH   1   2
BRANCH   1  14
ATOM     14  C   UNL     1      44.926   5.294   9.688  0.00  0.00    +0.000 C 
BRANCH  14  19
ATOM     15  C   UNL     1      46.432   2.685   7.345  0.00  0.00    +0.000 A 
ATOM     16  C   UNL     1      45.969   1.496   7.920  0.00  0.00    +0.000 A 
ATOM     17  C   UNL     1      45.128   1.542   9.033  0.00  0.00    +0.000 A 
ATOM     18  C   UNL     1      44.762   2.770   9.586  0.00  0.00    +0.000 A 
ATOM     19  C   UNL     1      45.248   3.969   9.046  0.00  0.00    +0.000 A 
ATOM     20  C   UNL     1      46.075   3.915   7.913  0.00  0.00    +0.000 A 
BRANCH  15  22
ATOM     21  N   UNL     1      48.679   2.641   6.406  0.00  0.00    +0.000 N 
ATOM     22  C   UNL     1      47.334   2.688   6.166  0.00  0.00    +0.000 C 
ATOM     23  O   UNL     1      46.897   2.695   5.022  0.00  0.00    +0.000 OA
ATOM     24  H   UNL     1      49.274   2.528   5.595  0.00  0.00    +0.000 HD
ATOM     25  H   UNL     1      49.057   2.379   7.305  0.00  0.00    +0.000 HD
ENDBRANCH  15  22
ENDBRANCH  14  19
ENDBRANCH   1  14
TORSDOF 5
ENDMDL
MODEL 7
REMARK VINA RESULT:    -6.853      3.354      7.607
REMARK INTER + INTRA:          -9.435
REMARK INTER:                  -8.898
REMARK INTRA:                  -0.537
REMARK UNBOUND:                -0.580
REMARK  Name = 
REMARK  5 active torsions:
REMARK  status: ('A' for Active; 'I' for Inactive)
REMARK    1  A    between atoms: C_2  and  C_4
REMARK    2  A    between atoms: C_8  and  C_9
REMARK    3  A    between atoms: C_9  and  S_10
REMARK    4  A    between atoms: S_10  and  C_11
REMARK    5  A    between atoms: C_15  and  C_16
REMARK                            x       y       z     vdW  Elec       q    Type
REMARK                         _______ _______ _______ _____ _____    ______ ____
ROOT
ATOM      1  S   UNL     1      45.019   6.639  12.314  0.00  0.00    +0.000 S 
ENDROOT
BRANCH   1   2
ATOM      2  C   UNL     1      44.630   5.118  11.462  0.00  0.00    +0.000 A 
ATOM      3  C   UNL     1      43.567   4.340  11.909  0.00  0.00    +0.000 A 
ATOM      4  N   UNL     1      43.186   3.169  11.345  0.00  0.00    +0.000 NA
ATOM      5  C   UNL     1      43.909   2.743  10.283  0.00  0.00    +0.000 A 
ATOM      6  C   UNL     1      45.003   3.416   9.736  0.00  0.00    +0.000 A 
ATOM      7  C   UNL     1      45.348   4.624  10.368  0.00  0.00    +0.000 A 
BRANCH   6   8
ATOM      8  C   UNL     1      45.750   2.906   8.568  0.00  0.00    +0.000 A 
ATOM      9  C   UNL     1      46.144   3.739   7.507  0.00  0.00    +0.000 A 
ATOM     10  C   UNL     1      46.837   3.224   6.411  0.00  0.00    +0.000 A 
ATOM     11  C   UNL     1      47.135   1.875   6.399  0.00  0.00    +0.000 A 
ATOM     12  N   UNL     1      46.782   1.028   7.385  0.00  0.00    +0.000 NA
ATOM     13  C   UNL     1      46.101   1.560   8.433  0.00  0.00    +0.000 A 
ENDBRANCH   6   8
ENDBRANCH   1   2
BRANCH   1  14
ATOM     14  C   UNL     1      46.828   6.521  12.484  0.00  0.00    +0.000 C 
BRANCH  14  19
ATOM     15  C   UNL     1      47.506  10.222  11.851  0.00  0.00    +0.000 A 
ATOM     16  C   UNL     1      48.875  10.208  11.559  0.00  0.00    +0.000 A 
ATOM     17  C   UNL     1      49.564   8.995  11.515  0.00  0.00    +0.000 A 
ATOM     18  C   UNL     1      48.897   7.798  11.781  0.00  0.00    +0.000 A 
ATOM     19  C   UNL     1      47.536   7.799  12.113  0.00  0.00    +0.000 A 
ATOM     20  C   UNL     1      46.843   9.020  12.132  0.00  0.00    +0.000 A 
BRANCH  15  22
ATOM     21  N   UNL     1      45.373  11.384  12.040  0.00  0.00    +0.000 N 
ATOM     22  C   UNL     1      46.731  11.487  11.917  0.00  0.00    +0.000 C 
ATOM     23  O   UNL     1      47.282  12.581  11.898  0.00  0.00    +0.000 OA
ATOM     24  H   UNL     1      44.872  12.249  12.198  0.00  0.00    +0.000 HD
ATOM     25  H   UNL     1      44.921  10.524  12.313  0.00  0.00    +0.000 HD
ENDBRANCH  15  22
ENDBRANCH  14  19
ENDBRANCH   1  14
TORSDOF 5
ENDMDL
MODEL 8
REMARK VINA RESULT:    -6.720      3.568      7.565
REMARK INTER + INTRA:          -9.264
REMARK INTER:                  -8.665
REMARK INTRA:                  -0.600
REMARK UNBOUND:                -0.580
REMARK  Name = 
REMARK  5 active torsions:
REMARK  status: ('A' for Active; 'I' for Inactive)
REMARK    1  A    between atoms: C_2  and  C_4
REMARK    2  A    between atoms: C_8  and  C_9
REMARK    3  A    between atoms: C_9  and  S_10
REMARK    4  A    between atoms: S_10  and  C_11
REMARK    5  A    between atoms: C_15  and  C_16
REMARK                            x       y       z     vdW  Elec       q    Type
REMARK                         _______ _______ _______ _____ _____    ______ ____
ROOT
ATOM      1  S   UNL     1      46.107   7.747  12.184  0.00  0.00    +0.000 S 
ENDROOT
BRANCH   1   2
ATOM      2  C   UNL     1      45.192   6.492  11.303  0.00  0.00    +0.000 A 
ATOM      3  C   UNL     1      43.813   6.413  11.468  0.00  0.00    +0.000 A 
ATOM      4  N   UNL     1      43.021   5.501  10.856  0.00  0.00    +0.000 NA
ATOM      5  C   UNL     1      43.635   4.611  10.042  0.00  0.00    +0.000 A 
ATOM      6  C   UNL     1      45.009   4.568   9.793  0.00  0.00    +0.000 A 
ATOM      7  C   UNL     1      45.776   5.540  10.460  0.00  0.00    +0.000 A 
BRANCH   6   8
ATOM      8  C   UNL     1      45.624   3.577   8.886  0.00  0.00    +0.000 A 
ATOM      9  C   UNL     1      46.335   3.954   7.735  0.00  0.00    +0.000 A 
ATOM     10  C   UNL     1      46.893   2.992   6.891  0.00  0.00    +0.000 A 
ATOM     11  C   UNL     1      46.737   1.660   7.222  0.00  0.00    +0.000 A 
ATOM     12  N   UNL     1      46.066   1.239   8.312  0.00  0.00    +0.000 NA
ATOM     13  C   UNL     1      45.528   2.200   9.106  0.00  0.00    +0.000 A 
ENDBRANCH   6   8
ENDBRANCH   1   2
BRANCH   1  14
ATOM     14  C   UNL     1      47.711   6.926  12.450  0.00  0.00    +0.000 C 
BRANCH  14  19
ATOM     15  C   UNL     1      48.509   5.845  16.020  0.00  0.00    +0.000 A 
ATOM     16  C   UNL     1      47.725   4.693  16.144  0.00  0.00    +0.000 A 
ATOM     17  C   UNL     1      46.981   4.238  15.055  0.00  0.00    +0.000 A 
ATOM     18  C   UNL     1      47.000   4.940  13.848  0.00  0.00    +0.000 A 
ATOM     19  C   UNL     1      47.751   6.117  13.721  0.00  0.00    +0.000 A 
ATOM     20  C   UNL     1      48.515   6.556  14.813  0.00  0.00    +0.000 A 
BRANCH  15  22
ATOM     21  N   UNL     1      50.663   6.481  16.966  0.00  0.00    +0.000 N 
ATOM     22  C   UNL     1      49.313   6.373  17.152  0.00  0.00    +0.000 C 
ATOM     23  O   UNL     1      48.790   6.732  18.200  0.00  0.00    +0.000 OA
ATOM     24  H   UNL     1      51.179   6.948  17.701  0.00  0.00    +0.000 HD
ATOM     25  H   UNL     1      51.085   6.440  16.050  0.00  0.00    +0.000 HD
ENDBRANCH  15  22
ENDBRANCH  14  19
ENDBRANCH   1  14
TORSDOF 5
ENDMDL
MODEL 9
REMARK VINA RESULT:    -6.626      4.328      8.062
REMARK INTER + INTRA:          -9.142
REMARK INTER:                  -8.335
REMARK INTRA:                  -0.807
REMARK UNBOUND:                -0.580
REMARK  Name = 
REMARK  5 active torsions:
REMARK  status: ('A' for Active; 'I' for Inactive)
REMARK    1  A    between atoms: C_2  and  C_4
REMARK    2  A    between atoms: C_8  and  C_9
REMARK    3  A    between atoms: C_9  and  S_10
REMARK    4  A    between atoms: S_10  and  C_11
REMARK    5  A    between atoms: C_15  and  C_16
REMARK                            x       y       z     vdW  Elec       q    Type
REMARK                         _______ _______ _______ _____ _____    ______ ____
ROOT
ATOM      1  S   UNL     1      50.005   7.208  15.457  0.00  0.00    +0.000 S 
ENDROOT
BRANCH   1   2
ATOM      2  C   UNL     1      48.937   7.047  14.034  0.00  0.00    +0.000 A 
ATOM      3  C   UNL     1      49.257   7.723  12.862  0.00  0.00    +0.000 A 
ATOM      4  N   UNL     1      48.520   7.677  11.727  0.00  0.00    +0.000 NA
ATOM      5  C   UNL     1      47.395   6.926  11.763  0.00  0.00    +0.000 A 
ATOM      6  C   UNL     1      46.948   6.204  12.872  0.00  0.00    +0.000 A 
ATOM      7  C   UNL     1      47.758   6.293  14.019  0.00  0.00    +0.000 A 
BRANCH   6   8
ATOM      8  C   UNL     1      45.715   5.391  12.851  0.00  0.00    +0.000 A 
ATOM      9  C   UNL     1      44.435   5.969  12.883  0.00  0.00    +0.000 A 
ATOM     10  C   UNL     1      43.289   5.172  12.874  0.00  0.00    +0.000 A 
ATOM     11  C   UNL     1      43.445   3.799  12.824  0.00  0.00    +0.000 A 
ATOM     12  N   UNL     1      44.646   3.190  12.793  0.00  0.00    +0.000 NA
ATOM     13  C   UNL     1      45.740   3.994  12.811  0.00  0.00    +0.000 A 
ENDBRANCH   6   8
ENDBRANCH   1   2
BRANCH   1  14
ATOM     14  C   UNL     1      48.805   7.237  16.826  0.00  0.00    +0.000 C 
BRANCH  14  19
ATOM     15  C   UNL     1      49.252   3.561  17.744  0.00  0.00    +0.000 A 
ATOM     16  C   UNL     1      48.846   3.558  19.083  0.00  0.00    +0.000 A 
ATOM     17  C   UNL     1      48.378   4.734  19.671  0.00  0.00    +0.000 A 
ATOM     18  C   UNL     1      48.332   5.919  18.933  0.00  0.00    +0.000 A 
ATOM     19  C   UNL     1      48.771   5.946  17.603  0.00  0.00    +0.000 A 
ATOM     20  C   UNL     1      49.219   4.755  17.011  0.00  0.00    +0.000 A 
BRANCH  15  22
ATOM     21  N   UNL     1      50.794   1.676  17.686  0.00  0.00    +0.000 N 
ATOM     22  C   UNL     1      49.765   2.338  17.077  0.00  0.00    +0.000 C 
ATOM     23  O   UNL     1      49.267   1.913  16.041  0.00  0.00    +0.000 OA
ATOM     24  H   UNL     1      51.054   0.785  17.281  0.00  0.00    +0.000 HD
ATOM     25  H   UNL     1      51.050   1.846  18.648  0.00  0.00    +0.000 HD
ENDBRANCH  15  22
ENDBRANCH  14  19
ENDBRANCH   1  14
TORSDOF 5
ENDMDL
