MODEL 1
REMARK VINA RESULT:    -8.351      0.000      0.000
REMARK INTER + INTRA:         -11.562
REMARK INTER:                 -10.792
REMARK INTRA:                  -0.770
REMARK UNBOUND:                -0.770
REMARK  Name = 
REMARK  5 active torsions:
REMARK  status: ('A' for Active; 'I' for Inactive)
REMARK    1  A    between atoms: C_2  and  C_3
REMARK    2  A    between atoms: C_7  and  N_8
REMARK    3  A    between atoms: N_8  and  C_9
REMARK    4  A    between atoms: C_9  and  C_10
REMARK    5  A    between atoms: C_14  and  C_15
REMARK                            x       y       z     vdW  Elec       q    Type
REMARK                         _______ _______ _______ _____ _____    ______ ____
ROOT
ATOM      1  C   UNL     1      43.594   4.913  10.799  0.00  0.00    +0.000 A 
ATOM      2  C   UNL     1      43.039   3.892  11.559  0.00  0.00    +0.000 A 
ATOM      3  N   UNL     1      43.257   2.582  11.331  0.00  0.00    +0.000 NA
ATOM      4  C   UNL     1      44.086   2.271  10.303  0.00  0.00    +0.000 A 
ATOM      5  C   UNL     1      44.719   3.193   9.465  0.00  0.00    +0.000 A 
ATOM      6  C   UNL     1      44.445   4.542   9.746  0.00  0.00    +0.000 A 
ENDROOT
BRANCH   5   7
ATOM      7  C   UNL     1      45.617   2.776   8.360  0.00  0.00    +0.000 A 
ATOM      8  C   UNL     1      45.962   3.652   7.312  0.00  0.00    +0.000 A 
ATOM      9  C   UNL     1      46.807   3.253   6.270  0.00  0.00    +0.000 A 
ATOM     10  C   UNL     1      47.342   1.970   6.257  0.00  0.00    +0.000 A 
ATOM     11  C   UNL     1      47.021   1.083   7.278  0.00  0.00    +0.000 A 
ATOM     12  C   UNL     1      46.164   1.480   8.311  0.00  0.00    +0.000 A 
ENDBRANCH   5   7
BRANCH   1  13
ATOM     13  C   UNL     1      43.276   6.350  11.094  0.00  0.00    +0.000 C 
BRANCH  13  14
ATOM     14  N   UNL     1      43.985   6.819  12.257  0.00  0.00    +0.000 N 
ATOM     15  H   UNL     1      43.506   7.358  12.969  0.00  0.00    +0.000 HD
BRANCH  14  20
ATOM     16  C   UNL     1      46.930   5.403  13.634  0.00  0.00    +0.000 A 
ATOM     17  C   UNL     1      47.978   6.107  13.059  0.00  0.00    +0.000 A 
ATOM     18  C   UNL     1      47.662   7.110  12.158  0.00  0.00    +0.000 A 
ATOM     19  C   UNL     1      46.324   7.367  11.870  0.00  0.00    +0.000 A 
ATOM     20  C   UNL     1      45.321   6.623  12.487  0.00  0.00    +0.000 A 
ATOM     21  N   UNL     1      45.621   5.646  13.365  0.00  0.00    +0.000 NA
BRANCH  16  23
ATOM     22  N   UNL     1      47.395   3.459  15.294  0.00  0.00    +0.000 NA
ATOM     23  C   UNL     1      47.196   4.346  14.573  0.00  0.00    +0.000 C 
ENDBRANCH  16  23
ENDBRANCH  14  20
ENDBRANCH  13  14
ENDBRANCH   1  13
TORSDOF 5
ENDMDL
MODEL 2
REMARK VINA RESULT:    -8.341      0.027      1.024
REMARK INTER + INTRA:         -11.548
REMARK INTER:                 -10.790
REMARK INTRA:                  -0.758
REMARK UNBOUND:                -0.770
REMARK  Name = 
REMARK  5 active torsions:
REMARK  status: ('A' for Active; 'I' for Inactive)
REMARK    1  A    between atoms: C_2  and  C_3
REMARK    2  A    between atoms: C_7  and  N_8
REMARK    3  A    between atoms: N_8  and  C_9
REMARK    4  A    between atoms: C_9  and  C_10
REMARK    5  A    between atoms: C_14  and  C_15
REMARK                            x       y       z     vdW  Elec       q    Type
REMARK                         _______ _______ _______ _____ _____    ______ ____
ROOT
ATOM      1  C   UNL     1      43.582   4.908  10.801  0.00  0.00    +0.000 A 
ATOM      2  C   UNL     1      43.021   3.888  11.556  0.00  0.00    +0.000 A 
ATOM      3  N   UNL     1      43.237   2.577  11.326  0.00  0.00    +0.000 NA
ATOM      4  C   UNL     1      44.070   2.267  10.301  0.00  0.00    +0.000 A 
ATOM      5  C   UNL     1      44.709   3.189   9.468  0.00  0.00    +0.000 A 
ATOM      6  C   UNL     1      44.436   4.538   9.751  0.00  0.00    +0.000 A 
ENDROOT
BRANCH   5   7
ATOM      7  C   UNL     1      45.611   2.772   8.367  0.00  0.00    +0.000 A 
ATOM      8  C   UNL     1      46.153   1.473   8.302  0.00  0.00    +0.000 A 
ATOM      9  C   UNL     1      47.005   1.084   7.262  0.00  0.00    +0.000 A 
ATOM     10  C   UNL     1      47.328   1.982   6.250  0.00  0.00    +0.000 A 
ATOM     11  C   UNL     1      46.808   3.271   6.287  0.00  0.00    +0.000 A 
ATOM     12  C   UNL     1      45.967   3.661   7.336  0.00  0.00    +0.000 A 
ENDBRANCH   5   7
BRANCH   1  13
ATOM     13  C   UNL     1      43.265   6.346  11.097  0.00  0.00    +0.000 C 
BRANCH  13  14
ATOM     14  N   UNL     1      43.985   6.816  12.254  0.00  0.00    +0.000 N 
ATOM     15  H   UNL     1      43.515   7.366  12.963  0.00  0.00    +0.000 HD
BRANCH  14  20
ATOM     16  C   UNL     1      46.919   5.365  13.617  0.00  0.00    +0.000 A 
ATOM     17  C   UNL     1      47.973   6.062  13.044  0.00  0.00    +0.000 A 
ATOM     18  C   UNL     1      47.665   7.073  12.148  0.00  0.00    +0.000 A 
ATOM     19  C   UNL     1      46.328   7.344  11.865  0.00  0.00    +0.000 A 
ATOM     20  C   UNL     1      45.320   6.606  12.480  0.00  0.00    +0.000 A 
ATOM     21  N   UNL     1      45.612   5.622  13.352  0.00  0.00    +0.000 NA
BRANCH  16  23
ATOM     22  N   UNL     1      47.431   3.462  15.311  0.00  0.00    +0.000 NA
ATOM     23  C   UNL     1      47.177   4.300  14.550  0.00  0.00    +0.000 C 
ENDBRANCH  16  23
ENDBRANCH  14  20
ENDBRANCH  13  14
ENDBRANCH   1  13
TORSDOF 5
ENDMDL
MODEL 3
REMARK VINA RESULT:    -7.656      1.307      2.132
REMARK INTER + INTRA:         -10.663
REMARK INTER:                  -9.863
REMARK INTRA:                  -0.800
REMARK UNBOUND:                -0.770
REMARK  Name = 
REMARK  5 active torsions:
REMARK  status: ('A' for Active; 'I' for Inactive)
REMARK    1  A    between atoms: C_2  and  C_3
REMARK    2  A    between atoms: C_7  and  N_8
REMARK    3  A    between atoms: N_8  and  C_9
REMARK    4  A    between atoms: C_9  and  C_10
REMARK    5  A    between atoms: C_14  and  C_15
REMARK                            x       y       z     vdW  Elec       q    Type
REMARK                         _______ _______ _______ _____ _____    ______ ____
ROOT
ATOM      1  C   UNL     1      43.710   4.836  10.756  0.00  0.00    +0.000 A 
ATOM      2  C   UNL     1      43.125   3.803  11.474  0.00  0.00    +0.000 A 
ATOM      3  N   UNL     1      43.306   2.497  11.195  0.00  0.00    +0.000 NA
ATOM      4  C   UNL     1      44.129   2.204  10.157  0.00  0.00    +0.000 A 
ATOM      5  C   UNL     1      44.790   3.139   9.357  0.00  0.00    +0.000 A 
ATOM      6  C   UNL     1      44.553   4.484   9.690  0.00  0.00    +0.000 A 
ENDROOT
BRANCH   5   7
ATOM      7  C   UNL     1      45.679   2.740   8.239  0.00  0.00    +0.000 A 
ATOM      8  C   UNL     1      45.978   3.618   7.177  0.00  0.00    +0.000 A 
ATOM      9  C   UNL     1      46.815   3.237   6.123  0.00  0.00    +0.000 A 
ATOM     10  C   UNL     1      47.388   1.970   6.108  0.00  0.00    +0.000 A 
ATOM     11  C   UNL     1      47.113   1.081   7.141  0.00  0.00    +0.000 A 
ATOM     12  C   UNL     1      46.264   1.461   8.187  0.00  0.00    +0.000 A 
ENDBRANCH   5   7
BRANCH   1  13
ATOM     13  C   UNL     1      43.431   6.270  11.106  0.00  0.00    +0.000 C 
BRANCH  13  14
ATOM     14  N   UNL     1      43.993   6.618  12.386  0.00  0.00    +0.000 N 
ATOM     15  H   UNL     1      43.404   6.988  13.123  0.00  0.00    +0.000 HD
BRANCH  14  20
ATOM     16  C   UNL     1      47.434   7.466  12.511  0.00  0.00    +0.000 A 
ATOM     17  C   UNL     1      48.031   6.467  13.266  0.00  0.00    +0.000 A 
ATOM     18  C   UNL     1      47.218   5.458  13.756  0.00  0.00    +0.000 A 
ATOM     19  C   UNL     1      45.853   5.489  13.475  0.00  0.00    +0.000 A 
ATOM     20  C   UNL     1      45.322   6.522  12.707  0.00  0.00    +0.000 A 
ATOM     21  N   UNL     1      46.106   7.506  12.226  0.00  0.00    +0.000 NA
BRANCH  16  23
ATOM     22  N   UNL     1      48.902   9.379  11.541  0.00  0.00    +0.000 NA
ATOM     23  C   UNL     1      48.226   8.544  11.980  0.00  0.00    +0.000 C 
ENDBRANCH  16  23
ENDBRANCH  14  20
ENDBRANCH  13  14
ENDBRANCH   1  13
TORSDOF 5
ENDMDL
MODEL 4
REMARK VINA RESULT:    -7.356      2.080      6.256
REMARK INTER + INTRA:         -10.276
REMARK INTER:                  -9.479
REMARK INTRA:                  -0.797
REMARK UNBOUND:                -0.770
REMARK  Name = 
REMARK  5 active torsions:
REMARK  status: ('A' for Active; 'I' for Inactive)
REMARK    1  A    between atoms: C_2  and  C_3
REMARK    2  A    between atoms: C_7  and  N_8
REMARK    3  A    between atoms: N_8  and  C_9
REMARK    4  A    between atoms: C_9  and  C_10
REMARK    5  A    between atoms: C_14  and  C_15
REMARK                            x       y       z     vdW  Elec       q    Type
REMARK                         _______ _______ _______ _____ _____    ______ ____
ROOT
ATOM      1  C   UNL     1      44.816   4.836  11.557  0.00  0.00    +0.000 A 
ATOM      2  C   UNL     1      44.686   3.971  12.633  0.00  0.00    +0.000 A 
ATOM      3  N   UNL     1      45.532   3.944  13.683  0.00  0.00    +0.000 NA
ATOM      4  C   UNL     1      46.551   4.840  13.667  0.00  0.00    +0.000 A 
ATOM      5  C   UNL     1      46.795   5.773  12.657  0.00  0.00    +0.000 A 
ATOM      6  C   UNL     1      45.886   5.745  11.585  0.00  0.00    +0.000 A 
ENDROOT
BRANCH   5   7
ATOM      7  C   UNL     1      47.931   6.725  12.712  0.00  0.00    +0.000 A 
ATOM      8  C   UNL     1      48.706   6.891  13.878  0.00  0.00    +0.000 A 
ATOM      9  C   UNL     1      49.775   7.792  13.926  0.00  0.00    +0.000 A 
ATOM     10  C   UNL     1      50.109   8.542  12.804  0.00  0.00    +0.000 A 
ATOM     11  C   UNL     1      49.364   8.400  11.639  0.00  0.00    +0.000 A 
ATOM     12  C   UNL     1      48.286   7.508  11.598  0.00  0.00    +0.000 A 
ENDBRANCH   5   7
BRANCH   1  13
ATOM     13  C   UNL     1      43.852   4.782  10.406  0.00  0.00    +0.000 C 
BRANCH  13  14
ATOM     14  N   UNL     1      43.986   3.552   9.665  0.00  0.00    +0.000 N 
ATOM     15  H   UNL     1      43.304   2.811   9.772  0.00  0.00    +0.000 HD
BRANCH  14  20
ATOM     16  C   UNL     1      46.356   1.612   7.879  0.00  0.00    +0.000 A 
ATOM     17  C   UNL     1      47.086   2.524   7.130  0.00  0.00    +0.000 A 
ATOM     18  C   UNL     1      46.750   3.864   7.240  0.00  0.00    +0.000 A 
ATOM     19  C   UNL     1      45.707   4.234   8.087  0.00  0.00    +0.000 A 
ATOM     20  C   UNL     1      45.019   3.265   8.812  0.00  0.00    +0.000 A 
ATOM     21  N   UNL     1      45.340   1.961   8.710  0.00  0.00    +0.000 NA
BRANCH  16  23
ATOM     22  N   UNL     1      46.877  -0.927   7.690  0.00  0.00    +0.000 NA
ATOM     23  C   UNL     1      46.654   0.207   7.801  0.00  0.00    +0.000 C 
ENDBRANCH  16  23
ENDBRANCH  14  20
ENDBRANCH  13  14
ENDBRANCH   1  13
TORSDOF 5
ENDMDL
MODEL 5
REMARK VINA RESULT:    -7.356      1.206      1.623
REMARK INTER + INTRA:         -10.275
REMARK INTER:                  -9.540
REMARK INTRA:                  -0.735
REMARK UNBOUND:                -0.770
REMARK  Name = 
REMARK  5 active torsions:
REMARK  status: ('A' for Active; 'I' for Inactive)
REMARK    1  A    between atoms: C_2  and  C_3
REMARK    2  A    between atoms: C_7  and  N_8
REMARK    3  A    between atoms: N_8  and  C_9
REMARK    4  A    between atoms: C_9  and  C_10
REMARK    5  A    between atoms: C_14  and  C_15
REMARK                            x       y       z     vdW  Elec       q    Type
REMARK                         _______ _______ _______ _____ _____    ______ ____
ROOT
ATOM      1  C   UNL     1      44.442   5.015  10.668  0.00  0.00    +0.000 A 
ATOM      2  C   UNL     1      43.608   4.103  11.300  0.00  0.00    +0.000 A 
ATOM      3  N   UNL     1      43.482   2.814  10.925  0.00  0.00    +0.000 NA
ATOM      4  C   UNL     1      44.241   2.408   9.877  0.00  0.00    +0.000 A 
ATOM      5  C   UNL     1      45.127   3.212   9.156  0.00  0.00    +0.000 A 
ATOM      6  C   UNL     1      45.207   4.547   9.588  0.00  0.00    +0.000 A 
ENDROOT
BRANCH   5   7
ATOM      7  C   UNL     1      45.927   2.693   8.020  0.00  0.00    +0.000 A 
ATOM      8  C   UNL     1      46.450   1.385   8.015  0.00  0.00    +0.000 A 
ATOM      9  C   UNL     1      47.206   0.900   6.942  0.00  0.00    +0.000 A 
ATOM     10  C   UNL     1      47.447   1.707   5.837  0.00  0.00    +0.000 A 
ATOM     11  C   UNL     1      46.944   3.003   5.811  0.00  0.00    +0.000 A 
ATOM     12  C   UNL     1      46.200   3.490   6.892  0.00  0.00    +0.000 A 
ENDBRANCH   5   7
BRANCH   1  13
ATOM     13  C   UNL     1      44.502   6.445  11.123  0.00  0.00    +0.000 C 
BRANCH  13  14
ATOM     14  N   UNL     1      45.137   6.561  12.412  0.00  0.00    +0.000 N 
ATOM     15  H   UNL     1      44.588   6.515  13.262  0.00  0.00    +0.000 HD
BRANCH  14  20
ATOM     16  C   UNL     1      48.276   6.590  14.061  0.00  0.00    +0.000 A 
ATOM     17  C   UNL     1      49.165   7.137  13.147  0.00  0.00    +0.000 A 
ATOM     18  C   UNL     1      48.668   7.510  11.909  0.00  0.00    +0.000 A 
ATOM     19  C   UNL     1      47.314   7.324  11.637  0.00  0.00    +0.000 A 
ATOM     20  C   UNL     1      46.477   6.772  12.604  0.00  0.00    +0.000 A 
ATOM     21  N   UNL     1      46.954   6.406  13.810  0.00  0.00    +0.000 NA
BRANCH  16  23
ATOM     22  N   UNL     1      49.058   5.825  16.418  0.00  0.00    +0.000 NA
ATOM     23  C   UNL     1      48.735   6.177  15.361  0.00  0.00    +0.000 C 
ENDBRANCH  16  23
ENDBRANCH  14  20
ENDBRANCH  13  14
ENDBRANCH   1  13
TORSDOF 5
ENDMDL
MODEL 6
REMARK VINA RESULT:    -7.089      1.819      2.625
REMARK INTER + INTRA:          -9.930
REMARK INTER:                  -9.301
REMARK INTRA:                  -0.629
REMARK UNBOUND:                -0.770
REMARK  Name = 
REMARK  5 active torsions:
REMARK  status: ('A' for Active; 'I' for Inactive)
REMARK    1  A    between atoms: C_2  and  C_3
REMARK    2  A    between atoms: C_7  and  N_8
REMARK    3  A    between atoms: N_8  and  C_9
REMARK    4  A    between atoms: C_9  and  C_10
REMARK    5  A    between atoms: C_14  and  C_15
REMARK                            x       y       z     vdW  Elec       q    Type
REMARK                         _______ _______ _______ _____ _____    ______ ____
ROOT
ATOM      1  C   UNL     1      44.142   5.099  11.006  0.00  0.00    +0.000 A 
ATOM      2  C   UNL     1      43.317   4.163  11.614  0.00  0.00    +0.000 A 
ATOM      3  N   UNL     1      43.228   2.875  11.227  0.00  0.00    +0.000 NA
ATOM      4  C   UNL     1      44.017   2.494  10.190  0.00  0.00    +0.000 A 
ATOM      5  C   UNL     1      44.898   3.325   9.494  0.00  0.00    +0.000 A 
ATOM      6  C   UNL     1      44.938   4.658   9.938  0.00  0.00    +0.000 A 
ENDROOT
BRANCH   5   7
ATOM      7  C   UNL     1      45.732   2.834   8.370  0.00  0.00    +0.000 A 
ATOM      8  C   UNL     1      46.185   1.501   8.307  0.00  0.00    +0.000 A 
ATOM      9  C   UNL     1      46.973   1.042   7.246  0.00  0.00    +0.000 A 
ATOM     10  C   UNL     1      47.319   1.903   6.210  0.00  0.00    +0.000 A 
ATOM     11  C   UNL     1      46.888   3.224   6.243  0.00  0.00    +0.000 A 
ATOM     12  C   UNL     1      46.111   3.683   7.314  0.00  0.00    +0.000 A 
ENDBRANCH   5   7
BRANCH   1  13
ATOM     13  C   UNL     1      44.159   6.526  11.473  0.00  0.00    +0.000 C 
BRANCH  13  14
ATOM     14  N   UNL     1      45.247   6.768  12.387  0.00  0.00    +0.000 N 
ATOM     15  H   UNL     1      45.364   6.190  13.211  0.00  0.00    +0.000 HD
BRANCH  14  20
ATOM     16  C   UNL     1      48.372   8.341  11.806  0.00  0.00    +0.000 A 
ATOM     17  C   UNL     1      48.133   9.699  11.962  0.00  0.00    +0.000 A 
ATOM     18  C   UNL     1      46.843  10.093  12.278  0.00  0.00    +0.000 A 
ATOM     19  C   UNL     1      45.853   9.124  12.424  0.00  0.00    +0.000 A 
ATOM     20  C   UNL     1      46.165   7.777  12.256  0.00  0.00    +0.000 A 
ATOM     21  N   UNL     1      47.416   7.386  11.950  0.00  0.00    +0.000 NA
BRANCH  16  23
ATOM     22  N   UNL     1      50.759   7.533  11.173  0.00  0.00    +0.000 NA
ATOM     23  C   UNL     1      49.690   7.871  11.472  0.00  0.00    +0.000 C 
ENDBRANCH  16  23
ENDBRANCH  14  20
ENDBRANCH  13  14
ENDBRANCH   1  13
TORSDOF 5
ENDMDL
MODEL 7
REMARK VINA RESULT:    -6.971      2.883      4.745
REMARK INTER + INTRA:          -9.778
REMARK INTER:                  -9.282
REMARK INTRA:                  -0.496
REMARK UNBOUND:                -0.770
REMARK  Name = 
REMARK  5 active torsions:
REMARK  status: ('A' for Active; 'I' for Inactive)
REMARK    1  A    between atoms: C_2  and  C_3
REMARK    2  A    between atoms: C_7  and  N_8
REMARK    3  A    between atoms: N_8  and  C_9
REMARK    4  A    between atoms: C_9  and  C_10
REMARK    5  A    between atoms: C_14  and  C_15
REMARK                            x       y       z     vdW  Elec       q    Type
REMARK                         _______ _______ _______ _____ _____    ______ ____
ROOT
ATOM      1  C   UNL     1      44.495   5.389  10.925  0.00  0.00    +0.000 A 
ATOM      2  C   UNL     1      43.541   4.584  11.532  0.00  0.00    +0.000 A 
ATOM      3  N   UNL     1      43.275   3.318  11.153  0.00  0.00    +0.000 NA
ATOM      4  C   UNL     1      44.012   2.821  10.128  0.00  0.00    +0.000 A 
ATOM      5  C   UNL     1      45.008   3.512   9.435  0.00  0.00    +0.000 A 
ATOM      6  C   UNL     1      45.232   4.831   9.869  0.00  0.00    +0.000 A 
ENDROOT
BRANCH   5   7
ATOM      7  C   UNL     1      45.775   2.899   8.324  0.00  0.00    +0.000 A 
ATOM      8  C   UNL     1      46.184   1.551   8.358  0.00  0.00    +0.000 A 
ATOM      9  C   UNL     1      46.909   0.977   7.308  0.00  0.00    +0.000 A 
ATOM     10  C   UNL     1      47.234   1.732   6.187  0.00  0.00    +0.000 A 
ATOM     11  C   UNL     1      46.844   3.066   6.123  0.00  0.00    +0.000 A 
ATOM     12  C   UNL     1      46.131   3.641   7.182  0.00  0.00    +0.000 A 
ENDBRANCH   5   7
BRANCH   1  13
ATOM     13  C   UNL     1      44.710   6.803  11.382  0.00  0.00    +0.000 C 
BRANCH  13  14
ATOM     14  N   UNL     1      43.529   7.605  11.182  0.00  0.00    +0.000 N 
ATOM     15  H   UNL     1      42.614   7.172  11.136  0.00  0.00    +0.000 HD
BRANCH  14  20
ATOM     16  C   UNL     1      42.306  10.837  10.386  0.00  0.00    +0.000 A 
ATOM     17  C   UNL     1      43.374  11.696  10.598  0.00  0.00    +0.000 A 
ATOM     18  C   UNL     1      44.567  11.144  11.036  0.00  0.00    +0.000 A 
ATOM     19  C   UNL     1      44.642   9.768  11.242  0.00  0.00    +0.000 A 
ATOM     20  C   UNL     1      43.530   8.964  11.005  0.00  0.00    +0.000 A 
ATOM     21  N   UNL     1      42.368   9.494  10.579  0.00  0.00    +0.000 NA
BRANCH  16  23
ATOM     22  N   UNL     1      39.997  11.749   9.617  0.00  0.00    +0.000 NA
ATOM     23  C   UNL     1      41.040  11.353   9.937  0.00  0.00    +0.000 C 
ENDBRANCH  16  23
ENDBRANCH  14  20
ENDBRANCH  13  14
ENDBRANCH   1  13
TORSDOF 5
ENDMDL
MODEL 8
REMARK VINA RESULT:    -6.820      2.722      4.115
REMARK INTER + INTRA:          -9.583
REMARK INTER:                  -9.094
REMARK INTRA:                  -0.489
REMARK UNBOUND:                -0.770
REMARK  Name = 
REMARK  5 active torsions:
REMARK  status: ('A' for Active; 'I' for Inactive)
REMARK    1  A    between atoms: C_2  and  C_3
REMARK    2  A    between atoms: C_7  and  N_8
REMARK    3  A    between atoms: N_8  and  C_9
REMARK    4  A    between atoms: C_9  and  C_10
REMARK    5  A    between atoms: C_14  and  C_15
REMARK                            x       y       z     vdW  Elec       q    Type
REMARK                         _______ _______ _______ _____ _____    ______ ____
ROOT
ATOM      1  C   UNL     1      44.513   5.508  10.945  0.00  0.00    +0.000 A 
ATOM      2  C   UNL     1      43.545   4.715  11.546  0.00  0.00    +0.000 A 
ATOM      3  N   UNL     1      43.263   3.454  11.163  0.00  0.00    +0.000 NA
ATOM      4  C   UNL     1      43.998   2.949  10.140  0.00  0.00    +0.000 A 
ATOM      5  C   UNL     1      45.006   3.629   9.452  0.00  0.00    +0.000 A 
ATOM      6  C   UNL     1      45.246   4.943   9.890  0.00  0.00    +0.000 A 
ENDROOT
BRANCH   5   7
ATOM      7  C   UNL     1      45.769   3.007   8.343  0.00  0.00    +0.000 A 
ATOM      8  C   UNL     1      46.145   1.649   8.368  0.00  0.00    +0.000 A 
ATOM      9  C   UNL     1      46.867   1.068   7.320  0.00  0.00    +0.000 A 
ATOM     10  C   UNL     1      47.220   1.826   6.210  0.00  0.00    +0.000 A 
ATOM     11  C   UNL     1      46.863   3.169   6.155  0.00  0.00    +0.000 A 
ATOM     12  C   UNL     1      46.154   3.751   7.211  0.00  0.00    +0.000 A 
ENDBRANCH   5   7
BRANCH   1  13
ATOM     13  C   UNL     1      44.744   6.919  11.405  0.00  0.00    +0.000 C 
BRANCH  13  14
ATOM     14  N   UNL     1      43.619   7.765  11.095  0.00  0.00    +0.000 N 
ATOM     15  H   UNL     1      42.705   7.363  10.926  0.00  0.00    +0.000 HD
BRANCH  14  20
ATOM     16  C   UNL     1      44.948  11.047  11.288  0.00  0.00    +0.000 A 
ATOM     17  C   UNL     1      43.957  11.874  10.780  0.00  0.00    +0.000 A 
ATOM     18  C   UNL     1      42.782  11.281  10.349  0.00  0.00    +0.000 A 
ATOM     19  C   UNL     1      42.645   9.898  10.444  0.00  0.00    +0.000 A 
ATOM     20  C   UNL     1      43.681   9.128  10.968  0.00  0.00    +0.000 A 
ATOM     21  N   UNL     1      44.827   9.698  11.389  0.00  0.00    +0.000 NA
BRANCH  16  23
ATOM     22  N   UNL     1      47.183  12.046  12.161  0.00  0.00    +0.000 NA
ATOM     23  C   UNL     1      46.194  11.605  11.744  0.00  0.00    +0.000 C 
ENDBRANCH  16  23
ENDBRANCH  14  20
ENDBRANCH  13  14
ENDBRANCH   1  13
TORSDOF 5
ENDMDL
MODEL 9
REMARK VINA RESULT:    -6.602      2.277      3.297
REMARK INTER + INTRA:          -9.301
REMARK INTER:                  -8.575
REMARK INTRA:                  -0.726
REMARK UNBOUND:                -0.770
REMARK  Name = 
REMARK  5 active torsions:
REMARK  status: ('A' for Active; 'I' for Inactive)
REMARK    1  A    between atoms: C_2  and  C_3
REMARK    2  A    between atoms: C_7  and  N_8
REMARK    3  A    between atoms: N_8  and  C_9
REMARK    4  A    between atoms: C_9  and  C_10
REMARK    5  A    between atoms: C_14  and  C_15
REMARK                            x       y       z     vdW  Elec       q    Type
REMARK                         _______ _______ _______ _____ _____    ______ ____
ROOT
ATOM      1  C   UNL     1      44.445   6.016  11.770  0.00  0.00    +0.000 A 
ATOM      2  C   UNL     1      43.337   5.356  12.284  0.00  0.00    +0.000 A 
ATOM      3  N   UNL     1      42.881   4.177  11.817  0.00  0.00    +0.000 NA
ATOM      4  C   UNL     1      43.576   3.615  10.796  0.00  0.00    +0.000 A 
ATOM      5  C   UNL     1      44.711   4.161  10.191  0.00  0.00    +0.000 A 
ATOM      6  C   UNL     1      45.131   5.396  10.714  0.00  0.00    +0.000 A 
ENDROOT
BRANCH   5   7
ATOM      7  C   UNL     1      45.421   3.485   9.078  0.00  0.00    +0.000 A 
ATOM      8  C   UNL     1      45.974   4.207   8.002  0.00  0.00    +0.000 A 
ATOM      9  C   UNL     1      46.641   3.564   6.953  0.00  0.00    +0.000 A 
ATOM     10  C   UNL     1      46.785   2.182   6.959  0.00  0.00    +0.000 A 
ATOM     11  C   UNL     1      46.250   1.441   8.007  0.00  0.00    +0.000 A 
ATOM     12  C   UNL     1      45.571   2.086   9.048  0.00  0.00    +0.000 A 
ENDBRANCH   5   7
BRANCH   1  13
ATOM     13  C   UNL     1      44.871   7.346  12.322  0.00  0.00    +0.000 C 
BRANCH  13  14
ATOM     14  N   UNL     1      46.093   7.236  13.077  0.00  0.00    +0.000 N 
ATOM     15  H   UNL     1      46.085   6.855  14.016  0.00  0.00    +0.000 HD
BRANCH  14  20
ATOM     16  C   UNL     1      48.563   9.370  11.691  0.00  0.00    +0.000 A 
ATOM     17  C   UNL     1      49.735   8.628  11.700  0.00  0.00    +0.000 A 
ATOM     18  C   UNL     1      49.678   7.340  12.206  0.00  0.00    +0.000 A 
ATOM     19  C   UNL     1      48.462   6.849  12.678  0.00  0.00    +0.000 A 
ATOM     20  C   UNL     1      47.323   7.649  12.635  0.00  0.00    +0.000 A 
ATOM     21  N   UNL     1      47.371   8.902  12.145  0.00  0.00    +0.000 NA
BRANCH  16  23
ATOM     22  N   UNL     1      48.508  11.799  10.770  0.00  0.00    +0.000 NA
ATOM     23  C   UNL     1      48.561  10.716  11.184  0.00  0.00    +0.000 C 
ENDBRANCH  16  23
ENDBRANCH  14  20
ENDBRANCH  13  14
ENDBRANCH   1  13
TORSDOF 5
ENDMDL
