MODEL 1
REMARK VINA RESULT:    -8.343      0.000      0.000
REMARK INTER + INTRA:         -13.204
REMARK INTER:                 -12.001
REMARK INTRA:                  -1.203
REMARK UNBOUND:                -1.203
REMARK  Name = 
REMARK  9 active torsions:
REMARK  status: ('A' for Active; 'I' for Inactive)
REMARK    1  A    between atoms: C_1  and  C_2
REMARK    2  A    between atoms: C_2  and  O_3
REMARK    3  A    between atoms: C_2  and  C_4
REMARK    4  A    between atoms: C_2  and  C_15
REMARK    5  A    between atoms: C_4  and  O_5
REMARK    6  A    between atoms: O_5  and  C_6
REMARK    7  A    between atoms: C_9  and  C_10
REMARK    8  A    between atoms: C_19  and  O_20
REMARK    9  A    between atoms: O_20  and  C_21
REMARK                            x       y       z     vdW  Elec       q    Type
REMARK                         _______ _______ _______ _____ _____    ______ ____
ROOT
ATOM      1  C   UNL     1      43.693   3.505  13.061  0.00  0.00    +0.000 C 
ATOM      2  C   UNL     1      43.867   4.864  12.368  0.00  0.00    +0.000 C 
ENDROOT
BRANCH   2   3
ATOM      3  C   UNL     1      45.264   5.442  12.630  0.00  0.00    +0.000 A 
ATOM      4  C   UNL     1      45.870   6.331  11.725  0.00  0.00    +0.000 A 
ATOM      5  C   UNL     1      47.204   6.690  11.859  0.00  0.00    +0.000 A 
ATOM      6  C   UNL     1      47.940   6.247  12.950  0.00  0.00    +0.000 A 
ATOM      7  C   UNL     1      47.320   5.524  13.969  0.00  0.00    +0.000 A 
ATOM      8  C   UNL     1      46.001   5.082  13.780  0.00  0.00    +0.000 A 
BRANCH   7   9
ATOM      9  O   UNL     1      47.906   5.224  15.179  0.00  0.00    +0.000 OA
BRANCH   9  10
ATOM     10  C   UNL     1      47.258   4.197  15.953  0.00  0.00    +0.000 C 
ATOM     11  C   UNL     1      47.176   4.588  17.422  0.00  0.00    +0.000 C 
ATOM     12  C   UNL     1      48.375   3.933  18.081  0.00  0.00    +0.000 C 
ATOM     13  N   UNL     1      48.693   2.739  17.301  0.00  0.00    +0.000 NA
ATOM     14  C   UNL     1      48.043   2.878  15.989  0.00  0.00    +0.000 C 
ATOM     15  H   UNL     1      48.342   1.904  17.770  0.00  0.00    +0.000 HD
ENDBRANCH   9  10
ENDBRANCH   7   9
ENDBRANCH   2   3
BRANCH   2  16
ATOM     16  O   UNL     1      42.897   5.758  12.938  0.00  0.00    +0.000 OA
ATOM     17  H   UNL     1      42.481   6.238  12.199  0.00  0.00    +0.000 HD
ENDBRANCH   2  16
BRANCH   2  18
ATOM     18  C   UNL     1      43.511   4.706  10.865  0.00  0.00    +0.000 C 
BRANCH  18  19
ATOM     19  O   UNL     1      43.532   3.327  10.451  0.00  0.00    +0.000 OA
BRANCH  19  20
ATOM     20  C   UNL     1      44.448   3.114   9.444  0.00  0.00    +0.000 A 
ATOM     21  C   UNL     1      44.939   4.223   8.779  0.00  0.00    +0.000 A 
ATOM     22  C   UNL     1      45.949   4.031   7.836  0.00  0.00    +0.000 A 
ATOM     23  C   UNL     1      46.406   2.740   7.578  0.00  0.00    +0.000 A 
ATOM     24  C   UNL     1      45.818   1.688   8.263  0.00  0.00    +0.000 A 
ATOM     25  N   UNL     1      44.839   1.847   9.181  0.00  0.00    +0.000 NA
BRANCH  23  26
ATOM     26  C   UNL     1      47.524   2.447   6.663  0.00  0.00    +0.000 C 
ATOM     27  N   UNL     1      47.553   3.130   5.475  0.00  0.00    +0.000 N 
ATOM     28  O   UNL     1      48.383   1.628   6.940  0.00  0.00    +0.000 OA
ATOM     29  H   UNL     1      46.782   3.678   5.122  0.00  0.00    +0.000 HD
ATOM     30  H   UNL     1      48.295   2.883   4.826  0.00  0.00    +0.000 HD
ENDBRANCH  23  26
ENDBRANCH  19  20
ENDBRANCH  18  19
ENDBRANCH   2  18
TORSDOF 8
ENDMDL
MODEL 2
REMARK VINA RESULT:    -7.011      2.398      2.766
REMARK INTER + INTRA:         -11.289
REMARK INTER:                 -10.310
REMARK INTRA:                  -0.979
REMARK UNBOUND:                -1.203
REMARK  Name = 
REMARK  9 active torsions:
REMARK  status: ('A' for Active; 'I' for Inactive)
REMARK    1  A    between atoms: C_1  and  C_2
REMARK    2  A    between atoms: C_2  and  O_3
REMARK    3  A    between atoms: C_2  and  C_4
REMARK    4  A    between atoms: C_2  and  C_15
REMARK    5  A    between atoms: C_4  and  O_5
REMARK    6  A    between atoms: O_5  and  C_6
REMARK    7  A    between atoms: C_9  and  C_10
REMARK    8  A    between atoms: C_19  and  O_20
REMARK    9  A    between atoms: O_20  and  C_21
REMARK                            x       y       z     vdW  Elec       q    Type
REMARK                         _______ _______ _______ _____ _____    ______ ____
ROOT
ATOM      1  C   UNL     1      44.641   3.973  12.915  0.00  0.00    +0.000 C 
ATOM      2  C   UNL     1      43.742   5.066  12.320  0.00  0.00    +0.000 C 
ENDROOT
BRANCH   2   3
ATOM      3  C   UNL     1      44.459   6.423  12.304  0.00  0.00    +0.000 A 
ATOM      4  C   UNL     1      43.983   7.494  11.529  0.00  0.00    +0.000 A 
ATOM      5  C   UNL     1      44.739   8.646  11.356  0.00  0.00    +0.000 A 
ATOM      6  C   UNL     1      45.946   8.796  12.028  0.00  0.00    +0.000 A 
ATOM      7  C   UNL     1      46.357   7.839  12.956  0.00  0.00    +0.000 A 
ATOM      8  C   UNL     1      45.640   6.635  13.051  0.00  0.00    +0.000 A 
BRANCH   7   9
ATOM      9  O   UNL     1      47.420   7.996  13.818  0.00  0.00    +0.000 OA
BRANCH   9  10
ATOM     10  C   UNL     1      48.434   6.974  13.756  0.00  0.00    +0.000 C 
ATOM     11  C   UNL     1      49.281   6.967  15.022  0.00  0.00    +0.000 C 
ATOM     12  C   UNL     1      50.503   7.804  14.693  0.00  0.00    +0.000 C 
ATOM     13  N   UNL     1      50.720   7.697  13.252  0.00  0.00    +0.000 NA
ATOM     14  C   UNL     1      49.470   7.213  12.648  0.00  0.00    +0.000 C 
ATOM     15  H   UNL     1      51.473   7.039  13.054  0.00  0.00    +0.000 HD
ENDBRANCH   9  10
ENDBRANCH   7   9
ENDBRANCH   2   3
BRANCH   2  16
ATOM     16  O   UNL     1      42.590   5.178  13.171  0.00  0.00    +0.000 OA
ATOM     17  H   UNL     1      41.809   5.222  12.591  0.00  0.00    +0.000 HD
ENDBRANCH   2  16
BRANCH   2  18
ATOM     18  C   UNL     1      43.236   4.594  10.930  0.00  0.00    +0.000 C 
BRANCH  18  19
ATOM     19  O   UNL     1      43.520   3.202  10.701  0.00  0.00    +0.000 OA
BRANCH  19  20
ATOM     20  C   UNL     1      44.354   3.025   9.619  0.00  0.00    +0.000 A 
ATOM     21  C   UNL     1      44.582   4.117   8.801  0.00  0.00    +0.000 A 
ATOM     22  C   UNL     1      45.512   3.982   7.770  0.00  0.00    +0.000 A 
ATOM     23  C   UNL     1      46.152   2.759   7.581  0.00  0.00    +0.000 A 
ATOM     24  C   UNL     1      45.821   1.710   8.425  0.00  0.00    +0.000 A 
ATOM     25  N   UNL     1      44.924   1.814   9.431  0.00  0.00    +0.000 NA
BRANCH  23  26
ATOM     26  C   UNL     1      47.207   2.546   6.574  0.00  0.00    +0.000 C 
ATOM     27  N   UNL     1      48.199   1.655   6.890  0.00  0.00    +0.000 N 
ATOM     28  O   UNL     1      47.210   3.141   5.511  0.00  0.00    +0.000 OA
ATOM     29  H   UNL     1      48.341   1.276   7.815  0.00  0.00    +0.000 HD
ATOM     30  H   UNL     1      48.952   1.554   6.215  0.00  0.00    +0.000 HD
ENDBRANCH  23  26
ENDBRANCH  19  20
ENDBRANCH  18  19
ENDBRANCH   2  18
TORSDOF 8
ENDMDL
MODEL 3
REMARK VINA RESULT:    -7.000      1.904      8.030
REMARK INTER + INTRA:         -11.273
REMARK INTER:                 -10.534
REMARK INTRA:                  -0.739
REMARK UNBOUND:                -1.203
REMARK  Name = 
REMARK  9 active torsions:
REMARK  status: ('A' for Active; 'I' for Inactive)
REMARK    1  A    between atoms: C_1  and  C_2
REMARK    2  A    between atoms: C_2  and  O_3
REMARK    3  A    between atoms: C_2  and  C_4
REMARK    4  A    between atoms: C_2  and  C_15
REMARK    5  A    between atoms: C_4  and  O_5
REMARK    6  A    between atoms: O_5  and  C_6
REMARK    7  A    between atoms: C_9  and  C_10
REMARK    8  A    between atoms: C_19  and  O_20
REMARK    9  A    between atoms: O_20  and  C_21
REMARK                            x       y       z     vdW  Elec       q    Type
REMARK                         _______ _______ _______ _____ _____    ______ ____
ROOT
ATOM      1  C   UNL     1      46.122   8.070  11.772  0.00  0.00    +0.000 C 
ATOM      2  C   UNL     1      45.703   6.680  12.269  0.00  0.00    +0.000 C 
ENDROOT
BRANCH   2   3
ATOM      3  C   UNL     1      45.181   5.814  11.115  0.00  0.00    +0.000 A 
ATOM      4  C   UNL     1      43.890   5.258  11.143  0.00  0.00    +0.000 A 
ATOM      5  C   UNL     1      43.496   4.315  10.203  0.00  0.00    +0.000 A 
ATOM      6  C   UNL     1      44.345   3.975   9.157  0.00  0.00    +0.000 A 
ATOM      7  C   UNL     1      45.554   4.648   8.987  0.00  0.00    +0.000 A 
ATOM      8  C   UNL     1      45.989   5.525   9.993  0.00  0.00    +0.000 A 
BRANCH   7   9
ATOM      9  O   UNL     1      46.360   4.532   7.875  0.00  0.00    +0.000 OA
BRANCH   9  10
ATOM     10  C   UNL     1      46.095   3.401   7.023  0.00  0.00    +0.000 C 
ATOM     11  C   UNL     1      46.698   2.127   7.600  0.00  0.00    +0.000 C 
ATOM     12  C   UNL     1      48.042   1.972   6.914  0.00  0.00    +0.000 C 
ATOM     13  N   UNL     1      47.932   2.613   5.607  0.00  0.00    +0.000 NA
ATOM     14  C   UNL     1      46.766   3.508   5.646  0.00  0.00    +0.000 C 
ATOM     15  H   UNL     1      47.802   1.914   4.877  0.00  0.00    +0.000 HD
ENDBRANCH   9  10
ENDBRANCH   7   9
ENDBRANCH   2   3
BRANCH   2  16
ATOM     16  O   UNL     1      44.632   6.870  13.208  0.00  0.00    +0.000 OA
ATOM     17  H   UNL     1      44.273   5.989  13.415  0.00  0.00    +0.000 HD
ENDBRANCH   2  16
BRANCH   2  18
ATOM     18  C   UNL     1      46.888   6.053  13.053  0.00  0.00    +0.000 C 
BRANCH  18  19
ATOM     19  O   UNL     1      46.530   4.790  13.645  0.00  0.00    +0.000 OA
BRANCH  19  20
ATOM     20  C   UNL     1      47.276   4.529  14.774  0.00  0.00    +0.000 A 
ATOM     21  C   UNL     1      47.859   5.606  15.418  0.00  0.00    +0.000 A 
ATOM     22  C   UNL     1      48.521   5.370  16.623  0.00  0.00    +0.000 A 
ATOM     23  C   UNL     1      48.597   4.070  17.118  0.00  0.00    +0.000 A 
ATOM     24  C   UNL     1      48.021   3.051  16.375  0.00  0.00    +0.000 A 
ATOM     25  N   UNL     1      47.374   3.253  15.206  0.00  0.00    +0.000 NA
BRANCH  23  26
ATOM     26  C   UNL     1      49.201   3.735  18.421  0.00  0.00    +0.000 C 
ATOM     27  N   UNL     1      48.353   3.315  19.411  0.00  0.00    +0.000 N 
ATOM     28  O   UNL     1      50.399   3.836  18.618  0.00  0.00    +0.000 OA
ATOM     29  H   UNL     1      47.347   3.384  19.358  0.00  0.00    +0.000 HD
ATOM     30  H   UNL     1      48.768   3.138  20.322  0.00  0.00    +0.000 HD
ENDBRANCH  23  26
ENDBRANCH  19  20
ENDBRANCH  18  19
ENDBRANCH   2  18
TORSDOF 8
ENDMDL
MODEL 4
REMARK VINA RESULT:    -6.790      2.077      2.425
REMARK INTER + INTRA:         -10.971
REMARK INTER:                 -10.347
REMARK INTRA:                  -0.624
REMARK UNBOUND:                -1.203
REMARK  Name = 
REMARK  9 active torsions:
REMARK  status: ('A' for Active; 'I' for Inactive)
REMARK    1  A    between atoms: C_1  and  C_2
REMARK    2  A    between atoms: C_2  and  O_3
REMARK    3  A    between atoms: C_2  and  C_4
REMARK    4  A    between atoms: C_2  and  C_15
REMARK    5  A    between atoms: C_4  and  O_5
REMARK    6  A    between atoms: O_5  and  C_6
REMARK    7  A    between atoms: C_9  and  C_10
REMARK    8  A    between atoms: C_19  and  O_20
REMARK    9  A    between atoms: O_20  and  C_21
REMARK                            x       y       z     vdW  Elec       q    Type
REMARK                         _______ _______ _______ _____ _____    ______ ____
ROOT
ATOM      1  C   UNL     1      45.321   3.937  12.502  0.00  0.00    +0.000 C 
ATOM      2  C   UNL     1      45.260   5.425  12.129  0.00  0.00    +0.000 C 
ENDROOT
BRANCH   2   3
ATOM      3  C   UNL     1      46.572   6.137  12.481  0.00  0.00    +0.000 A 
ATOM      4  C   UNL     1      47.167   7.056  11.599  0.00  0.00    +0.000 A 
ATOM      5  C   UNL     1      48.448   7.541  11.826  0.00  0.00    +0.000 A 
ATOM      6  C   UNL     1      49.130   7.195  12.986  0.00  0.00    +0.000 A 
ATOM      7  C   UNL     1      48.497   6.442  13.975  0.00  0.00    +0.000 A 
ATOM      8  C   UNL     1      47.244   5.875  13.697  0.00  0.00    +0.000 A 
BRANCH   7   9
ATOM      9  O   UNL     1      49.009   6.227  15.236  0.00  0.00    +0.000 OA
BRANCH   9  10
ATOM     10  C   UNL     1      49.136   7.396  16.069  0.00  0.00    +0.000 C 
ATOM     11  C   UNL     1      50.597   7.791  16.237  0.00  0.00    +0.000 C 
ATOM     12  C   UNL     1      51.038   7.158  17.543  0.00  0.00    +0.000 C 
ATOM     13  N   UNL     1      49.850   7.044  18.386  0.00  0.00    +0.000 NA
ATOM     14  C   UNL     1      48.672   7.163  17.515  0.00  0.00    +0.000 C 
ATOM     15  H   UNL     1      49.836   7.787  19.084  0.00  0.00    +0.000 HD
ENDBRANCH   9  10
ENDBRANCH   7   9
ENDBRANCH   2   3
BRANCH   2  16
ATOM     16  O   UNL     1      44.206   6.015  12.909  0.00  0.00    +0.000 OA
ATOM     17  H   UNL     1      43.737   6.641  12.330  0.00  0.00    +0.000 HD
ENDBRANCH   2  16
BRANCH   2  18
ATOM     18  C   UNL     1      44.844   5.550  10.639  0.00  0.00    +0.000 C 
BRANCH  18  19
ATOM     19  O   UNL     1      44.284   4.323  10.134  0.00  0.00    +0.000 OA
BRANCH  19  20
ATOM     20  C   UNL     1      45.129   3.713   9.232  0.00  0.00    +0.000 A 
ATOM     21  C   UNL     1      45.218   2.333   9.272  0.00  0.00    +0.000 A 
ATOM     22  C   UNL     1      45.980   1.696   8.292  0.00  0.00    +0.000 A 
ATOM     23  C   UNL     1      46.642   2.462   7.335  0.00  0.00    +0.000 A 
ATOM     24  C   UNL     1      46.528   3.842   7.407  0.00  0.00    +0.000 A 
ATOM     25  N   UNL     1      45.796   4.484   8.345  0.00  0.00    +0.000 NA
BRANCH  23  26
ATOM     26  C   UNL     1      47.400   1.876   6.215  0.00  0.00    +0.000 C 
ATOM     27  N   UNL     1      48.094   2.743   5.412  0.00  0.00    +0.000 N 
ATOM     28  O   UNL     1      47.404   0.677   5.999  0.00  0.00    +0.000 OA
ATOM     29  H   UNL     1      47.981   3.746   5.436  0.00  0.00    +0.000 HD
ATOM     30  H   UNL     1      48.570   2.339   4.610  0.00  0.00    +0.000 HD
ENDBRANCH  23  26
ENDBRANCH  19  20
ENDBRANCH  18  19
ENDBRANCH   2  18
TORSDOF 8
ENDMDL
MODEL 5
REMARK VINA RESULT:    -6.670      2.842      3.725
REMARK INTER + INTRA:         -10.797
REMARK INTER:                 -10.068
REMARK INTRA:                  -0.729
REMARK UNBOUND:                -1.203
REMARK  Name = 
REMARK  9 active torsions:
REMARK  status: ('A' for Active; 'I' for Inactive)
REMARK    1  A    between atoms: C_1  and  C_2
REMARK    2  A    between atoms: C_2  and  O_3
REMARK    3  A    between atoms: C_2  and  C_4
REMARK    4  A    between atoms: C_2  and  C_15
REMARK    5  A    between atoms: C_4  and  O_5
REMARK    6  A    between atoms: O_5  and  C_6
REMARK    7  A    between atoms: C_9  and  C_10
REMARK    8  A    between atoms: C_19  and  O_20
REMARK    9  A    between atoms: O_20  and  C_21
REMARK                            x       y       z     vdW  Elec       q    Type
REMARK                         _______ _______ _______ _____ _____    ______ ____
ROOT
ATOM      1  C   UNL     1      45.462   3.869  12.370  0.00  0.00    +0.000 C 
ATOM      2  C   UNL     1      44.767   5.171  11.947  0.00  0.00    +0.000 C 
ENDROOT
BRANCH   2   3
ATOM      3  C   UNL     1      45.596   6.397  12.353  0.00  0.00    +0.000 A 
ATOM      4  C   UNL     1      44.987   7.633  12.630  0.00  0.00    +0.000 A 
ATOM      5  C   UNL     1      45.746   8.784  12.795  0.00  0.00    +0.000 A 
ATOM      6  C   UNL     1      47.133   8.714  12.783  0.00  0.00    +0.000 A 
ATOM      7  C   UNL     1      47.773   7.477  12.705  0.00  0.00    +0.000 A 
ATOM      8  C   UNL     1      47.005   6.332  12.438  0.00  0.00    +0.000 A 
BRANCH   7   9
ATOM      9  O   UNL     1      49.124   7.286  12.895  0.00  0.00    +0.000 OA
BRANCH   9  10
ATOM     10  C   UNL     1      49.946   8.463  12.779  0.00  0.00    +0.000 C 
ATOM     11  C   UNL     1      50.424   8.658  11.346  0.00  0.00    +0.000 C 
ATOM     12  C   UNL     1      51.804   8.032  11.293  0.00  0.00    +0.000 C 
ATOM     13  N   UNL     1      52.369   8.124  12.637  0.00  0.00    +0.000 NA
ATOM     14  C   UNL     1      51.259   8.366  13.571  0.00  0.00    +0.000 C 
ATOM     15  H   UNL     1      53.035   8.894  12.691  0.00  0.00    +0.000 HD
ENDBRANCH   9  10
ENDBRANCH   7   9
ENDBRANCH   2   3
BRANCH   2  16
ATOM     16  O   UNL     1      43.511   5.227  12.643  0.00  0.00    +0.000 OA
ATOM     17  H   UNL     1      42.852   5.575  12.017  0.00  0.00    +0.000 HD
ENDBRANCH   2  16
BRANCH   2  18
ATOM     18  C   UNL     1      44.443   5.092  10.430  0.00  0.00    +0.000 C 
BRANCH  18  19
ATOM     19  O   UNL     1      44.182   3.741  10.008  0.00  0.00    +0.000 OA
BRANCH  19  20
ATOM     20  C   UNL     1      45.111   3.309   9.086  0.00  0.00    +0.000 A 
ATOM     21  C   UNL     1      45.404   1.957   9.056  0.00  0.00    +0.000 A 
ATOM     22  C   UNL     1      46.255   1.492   8.055  0.00  0.00    +0.000 A 
ATOM     23  C   UNL     1      46.800   2.395   7.145  0.00  0.00    +0.000 A 
ATOM     24  C   UNL     1      46.483   3.738   7.286  0.00  0.00    +0.000 A 
ATOM     25  N   UNL     1      45.660   4.215   8.247  0.00  0.00    +0.000 NA
BRANCH  23  26
ATOM     26  C   UNL     1      47.641   1.987   6.006  0.00  0.00    +0.000 C 
ATOM     27  N   UNL     1      48.041   2.973   5.142  0.00  0.00    +0.000 N 
ATOM     28  O   UNL     1      47.961   0.825   5.827  0.00  0.00    +0.000 OA
ATOM     29  H   UNL     1      47.662   3.908   5.141  0.00  0.00    +0.000 HD
ATOM     30  H   UNL     1      48.574   2.676   4.329  0.00  0.00    +0.000 HD
ENDBRANCH  23  26
ENDBRANCH  19  20
ENDBRANCH  18  19
ENDBRANCH   2  18
TORSDOF 8
ENDMDL
MODEL 6
REMARK VINA RESULT:    -6.598      3.441      6.293
REMARK INTER + INTRA:         -10.694
REMARK INTER:                  -9.854
REMARK INTRA:                  -0.840
REMARK UNBOUND:                -1.203
REMARK  Name = 
REMARK  9 active torsions:
REMARK  status: ('A' for Active; 'I' for Inactive)
REMARK    1  A    between atoms: C_1  and  C_2
REMARK    2  A    between atoms: C_2  and  O_3
REMARK    3  A    between atoms: C_2  and  C_4
REMARK    4  A    between atoms: C_2  and  C_15
REMARK    5  A    between atoms: C_4  and  O_5
REMARK    6  A    between atoms: O_5  and  C_6
REMARK    7  A    between atoms: C_9  and  C_10
REMARK    8  A    between atoms: C_19  and  O_20
REMARK    9  A    between atoms: O_20  and  C_21
REMARK                            x       y       z     vdW  Elec       q    Type
REMARK                         _______ _______ _______ _____ _____    ______ ____
ROOT
ATOM      1  C   UNL     1      48.792   2.604  16.900  0.00  0.00    +0.000 C 
ATOM      2  C   UNL     1      47.669   3.626  17.124  0.00  0.00    +0.000 C 
ENDROOT
BRANCH   2   3
ATOM      3  C   UNL     1      47.988   4.547  18.309  0.00  0.00    +0.000 A 
ATOM      4  C   UNL     1      48.769   4.106  19.391  0.00  0.00    +0.000 A 
ATOM      5  C   UNL     1      48.886   4.865  20.547  0.00  0.00    +0.000 A 
ATOM      6  C   UNL     1      48.304   6.124  20.617  0.00  0.00    +0.000 A 
ATOM      7  C   UNL     1      47.686   6.676  19.495  0.00  0.00    +0.000 A 
ATOM      8  C   UNL     1      47.486   5.867  18.366  0.00  0.00    +0.000 A 
BRANCH   7   9
ATOM      9  O   UNL     1      47.269   7.986  19.401  0.00  0.00    +0.000 OA
BRANCH   9  10
ATOM     10  C   UNL     1      48.287   8.945  19.056  0.00  0.00    +0.000 C 
ATOM     11  C   UNL     1      48.083  10.253  19.807  0.00  0.00    +0.000 C 
ATOM     12  C   UNL     1      47.313  11.149  18.855  0.00  0.00    +0.000 C 
ATOM     13  N   UNL     1      47.658  10.730  17.499  0.00  0.00    +0.000 NA
ATOM     14  C   UNL     1      48.235   9.380  17.583  0.00  0.00    +0.000 C 
ATOM     15  H   UNL     1      48.340  11.368  17.092  0.00  0.00    +0.000 HD
ENDBRANCH   9  10
ENDBRANCH   7   9
ENDBRANCH   2   3
BRANCH   2  16
ATOM     16  O   UNL     1      46.478   2.885  17.441  0.00  0.00    +0.000 OA
ATOM     17  H   UNL     1      45.719   3.451  17.212  0.00  0.00    +0.000 HD
ENDBRANCH   2  16
BRANCH   2  18
ATOM     18  C   UNL     1      47.398   4.371  15.789  0.00  0.00    +0.000 C 
BRANCH  18  19
ATOM     19  O   UNL     1      47.333   3.464  14.673  0.00  0.00    +0.000 OA
BRANCH  19  20
ATOM     20  C   UNL     1      46.376   3.850  13.760  0.00  0.00    +0.000 A 
ATOM     21  C   UNL     1      46.024   5.188  13.729  0.00  0.00    +0.000 A 
ATOM     22  C   UNL     1      45.141   5.611  12.736  0.00  0.00    +0.000 A 
ATOM     23  C   UNL     1      44.627   4.681  11.835  0.00  0.00    +0.000 A 
ATOM     24  C   UNL     1      45.005   3.354  11.977  0.00  0.00    +0.000 A 
ATOM     25  N   UNL     1      45.858   2.918  12.931  0.00  0.00    +0.000 NA
BRANCH  23  26
ATOM     26  C   UNL     1      43.757   5.047  10.704  0.00  0.00    +0.000 C 
ATOM     27  N   UNL     1      44.169   4.669   9.453  0.00  0.00    +0.000 N 
ATOM     28  O   UNL     1      42.721   5.668  10.865  0.00  0.00    +0.000 OA
ATOM     29  H   UNL     1      45.092   4.316   9.247  0.00  0.00    +0.000 HD
ATOM     30  H   UNL     1      43.592   4.972   8.673  0.00  0.00    +0.000 HD
ENDBRANCH  23  26
ENDBRANCH  19  20
ENDBRANCH  18  19
ENDBRANCH   2  18
TORSDOF 8
ENDMDL
MODEL 7
REMARK VINA RESULT:    -6.595      3.195      4.799
REMARK INTER + INTRA:         -10.691
REMARK INTER:                  -9.846
REMARK INTRA:                  -0.845
REMARK UNBOUND:                -1.203
REMARK  Name = 
REMARK  9 active torsions:
REMARK  status: ('A' for Active; 'I' for Inactive)
REMARK    1  A    between atoms: C_1  and  C_2
REMARK    2  A    between atoms: C_2  and  O_3
REMARK    3  A    between atoms: C_2  and  C_4
REMARK    4  A    between atoms: C_2  and  C_15
REMARK    5  A    between atoms: C_4  and  O_5
REMARK    6  A    between atoms: O_5  and  C_6
REMARK    7  A    between atoms: C_9  and  C_10
REMARK    8  A    between atoms: C_19  and  O_20
REMARK    9  A    between atoms: O_20  and  C_21
REMARK                            x       y       z     vdW  Elec       q    Type
REMARK                         _______ _______ _______ _____ _____    ______ ____
ROOT
ATOM      1  C   UNL     1      44.425   2.366   9.198  0.00  0.00    +0.000 C 
ATOM      2  C   UNL     1      44.719   3.871   9.121  0.00  0.00    +0.000 C 
ENDROOT
BRANCH   2   3
ATOM      3  C   UNL     1      45.226   4.405  10.467  0.00  0.00    +0.000 A 
ATOM      4  C   UNL     1      45.106   3.650  11.647  0.00  0.00    +0.000 A 
ATOM      5  C   UNL     1      45.376   4.211  12.888  0.00  0.00    +0.000 A 
ATOM      6  C   UNL     1      45.861   5.509  12.976  0.00  0.00    +0.000 A 
ATOM      7  C   UNL     1      46.176   6.222  11.819  0.00  0.00    +0.000 A 
ATOM      8  C   UNL     1      45.810   5.688  10.573  0.00  0.00    +0.000 A 
BRANCH   7   9
ATOM      9  O   UNL     1      46.852   7.422  11.803  0.00  0.00    +0.000 OA
BRANCH   9  10
ATOM     10  C   UNL     1      46.510   8.349  12.852  0.00  0.00    +0.000 C 
ATOM     11  C   UNL     1      45.335   9.227  12.444  0.00  0.00    +0.000 C 
ATOM     12  C   UNL     1      45.954  10.502  11.904  0.00  0.00    +0.000 C 
ATOM     13  N   UNL     1      47.241  10.670  12.574  0.00  0.00    +0.000 NA
ATOM     14  C   UNL     1      47.620   9.369  13.146  0.00  0.00    +0.000 C 
ATOM     15  H   UNL     1      47.167  11.362  13.319  0.00  0.00    +0.000 HD
ENDBRANCH   9  10
ENDBRANCH   7   9
ENDBRANCH   2   3
BRANCH   2  16
ATOM     16  O   UNL     1      43.480   4.531   8.815  0.00  0.00    +0.000 OA
ATOM     17  H   UNL     1      42.815   4.198   9.445  0.00  0.00    +0.000 HD
ENDBRANCH   2  16
BRANCH   2  18
ATOM     18  C   UNL     1      45.678   4.131   7.928  0.00  0.00    +0.000 C 
BRANCH  18  19
ATOM     19  O   UNL     1      46.880   3.345   8.025  0.00  0.00    +0.000 OA
BRANCH  19  20
ATOM     20  C   UNL     1      47.008   2.480   6.960  0.00  0.00    +0.000 A 
ATOM     21  C   UNL     1      47.257   1.149   7.243  0.00  0.00    +0.000 A 
ATOM     22  C   UNL     1      47.275   0.245   6.181  0.00  0.00    +0.000 A 
ATOM     23  C   UNL     1      47.074   0.709   4.883  0.00  0.00    +0.000 A 
ATOM     24  C   UNL     1      46.879   2.070   4.697  0.00  0.00    +0.000 A 
ATOM     25  N   UNL     1      46.856   2.966   5.708  0.00  0.00    +0.000 NA
BRANCH  23  26
ATOM     26  C   UNL     1      46.993  -0.180   3.710  0.00  0.00    +0.000 C 
ATOM     27  N   UNL     1      46.580  -1.467   3.931  0.00  0.00    +0.000 N 
ATOM     28  O   UNL     1      47.291   0.203   2.592  0.00  0.00    +0.000 OA
ATOM     29  H   UNL     1      46.496  -1.882   4.848  0.00  0.00    +0.000 HD
ATOM     30  H   UNL     1      46.579  -2.089   3.127  0.00  0.00    +0.000 HD
ENDBRANCH  23  26
ENDBRANCH  19  20
ENDBRANCH  18  19
ENDBRANCH   2  18
TORSDOF 8
ENDMDL
MODEL 8
REMARK VINA RESULT:    -6.576      3.932      5.980
REMARK INTER + INTRA:         -10.663
REMARK INTER:                  -9.992
REMARK INTRA:                  -0.671
REMARK UNBOUND:                -1.203
REMARK  Name = 
REMARK  9 active torsions:
REMARK  status: ('A' for Active; 'I' for Inactive)
REMARK    1  A    between atoms: C_1  and  C_2
REMARK    2  A    between atoms: C_2  and  O_3
REMARK    3  A    between atoms: C_2  and  C_4
REMARK    4  A    between atoms: C_2  and  C_15
REMARK    5  A    between atoms: C_4  and  O_5
REMARK    6  A    between atoms: O_5  and  C_6
REMARK    7  A    between atoms: C_9  and  C_10
REMARK    8  A    between atoms: C_19  and  O_20
REMARK    9  A    between atoms: O_20  and  C_21
REMARK                            x       y       z     vdW  Elec       q    Type
REMARK                         _______ _______ _______ _____ _____    ______ ____
ROOT
ATOM      1  C   UNL     1      45.405   4.742  12.198  0.00  0.00    +0.000 C 
ATOM      2  C   UNL     1      44.359   5.748  11.695  0.00  0.00    +0.000 C 
ENDROOT
BRANCH   2   3
ATOM      3  C   UNL     1      44.850   7.191  11.874  0.00  0.00    +0.000 A 
ATOM      4  C   UNL     1      45.919   7.500  12.732  0.00  0.00    +0.000 A 
ATOM      5  C   UNL     1      46.227   8.817  13.048  0.00  0.00    +0.000 A 
ATOM      6  C   UNL     1      45.537   9.859  12.443  0.00  0.00    +0.000 A 
ATOM      7  C   UNL     1      44.603   9.595  11.441  0.00  0.00    +0.000 A 
ATOM      8  C   UNL     1      44.226   8.265  11.199  0.00  0.00    +0.000 A 
BRANCH   7   9
ATOM      9  O   UNL     1      44.025  10.558  10.642  0.00  0.00    +0.000 OA
BRANCH   9  10
ATOM     10  C   UNL     1      42.955  11.312  11.242  0.00  0.00    +0.000 C 
ATOM     11  C   UNL     1      41.598  10.750  10.842  0.00  0.00    +0.000 C 
ATOM     12  C   UNL     1      41.148  11.587   9.660  0.00  0.00    +0.000 C 
ATOM     13  N   UNL     1      41.767  12.902   9.806  0.00  0.00    +0.000 NA
ATOM     14  C   UNL     1      42.886  12.765  10.749  0.00  0.00    +0.000 C 
ATOM     15  H   UNL     1      41.092  13.574  10.171  0.00  0.00    +0.000 HD
ENDBRANCH   9  10
ENDBRANCH   7   9
ENDBRANCH   2   3
BRANCH   2  16
ATOM     16  O   UNL     1      43.181   5.573  12.499  0.00  0.00    +0.000 OA
ATOM     17  H   UNL     1      43.052   4.614  12.613  0.00  0.00    +0.000 HD
ENDBRANCH   2  16
BRANCH   2  18
ATOM     18  C   UNL     1      43.973   5.380  10.237  0.00  0.00    +0.000 C 
BRANCH  18  19
ATOM     19  O   UNL     1      43.849   3.957  10.059  0.00  0.00    +0.000 OA
BRANCH  19  20
ATOM     20  C   UNL     1      44.832   3.461   9.230  0.00  0.00    +0.000 A 
ATOM     21  C   UNL     1      45.105   2.107   9.298  0.00  0.00    +0.000 A 
ATOM     22  C   UNL     1      46.016   1.574   8.386  0.00  0.00    +0.000 A 
ATOM     23  C   UNL     1      46.635   2.416   7.466  0.00  0.00    +0.000 A 
ATOM     24  C   UNL     1      46.329   3.769   7.507  0.00  0.00    +0.000 A 
ATOM     25  N   UNL     1      45.451   4.310   8.380  0.00  0.00    +0.000 NA
BRANCH  23  26
ATOM     26  C   UNL     1      47.545   1.933   6.412  0.00  0.00    +0.000 C 
ATOM     27  N   UNL     1      48.741   2.587   6.273  0.00  0.00    +0.000 N 
ATOM     28  O   UNL     1      47.249   1.001   5.685  0.00  0.00    +0.000 OA
ATOM     29  H   UNL     1      48.957   3.466   6.721  0.00  0.00    +0.000 HD
ATOM     30  H   UNL     1      49.340   2.284   5.510  0.00  0.00    +0.000 HD
ENDBRANCH  23  26
ENDBRANCH  19  20
ENDBRANCH  18  19
ENDBRANCH   2  18
TORSDOF 8
ENDMDL
MODEL 9
REMARK VINA RESULT:    -6.331      3.030      7.738
REMARK INTER + INTRA:         -10.311
REMARK INTER:                  -9.212
REMARK INTRA:                  -1.099
REMARK UNBOUND:                -1.203
REMARK  Name = 
REMARK  9 active torsions:
REMARK  status: ('A' for Active; 'I' for Inactive)
REMARK    1  A    between atoms: C_1  and  C_2
REMARK    2  A    between atoms: C_2  and  O_3
REMARK    3  A    between atoms: C_2  and  C_4
REMARK    4  A    between atoms: C_2  and  C_15
REMARK    5  A    between atoms: C_4  and  O_5
REMARK    6  A    between atoms: O_5  and  C_6
REMARK    7  A    between atoms: C_9  and  C_10
REMARK    8  A    between atoms: C_19  and  O_20
REMARK    9  A    between atoms: O_20  and  C_21
REMARK                            x       y       z     vdW  Elec       q    Type
REMARK                         _______ _______ _______ _____ _____    ______ ____
ROOT
ATOM      1  C   UNL     1      50.297   8.027  11.285  0.00  0.00    +0.000 C 
ATOM      2  C   UNL     1      49.438   8.411  12.498  0.00  0.00    +0.000 C 
ENDROOT
BRANCH   2   3
ATOM      3  C   UNL     1      47.943   8.267  12.184  0.00  0.00    +0.000 A 
ATOM      4  C   UNL     1      47.076   9.373  12.224  0.00  0.00    +0.000 A 
ATOM      5  C   UNL     1      45.700   9.208  12.142  0.00  0.00    +0.000 A 
ATOM      6  C   UNL     1      45.160   7.947  11.923  0.00  0.00    +0.000 A 
ATOM      7  C   UNL     1      45.996   6.856  11.684  0.00  0.00    +0.000 A 
ATOM      8  C   UNL     1      47.379   7.010  11.867  0.00  0.00    +0.000 A 
BRANCH   7   9
ATOM      9  O   UNL     1      45.561   5.622  11.254  0.00  0.00    +0.000 OA
BRANCH   9  10
ATOM     10  C   UNL     1      44.151   5.368  11.398  0.00  0.00    +0.000 C 
ATOM     11  C   UNL     1      43.852   4.671  12.718  0.00  0.00    +0.000 C 
ATOM     12  C   UNL     1      43.799   3.191  12.390  0.00  0.00    +0.000 C 
ATOM     13  N   UNL     1      43.381   3.077  10.995  0.00  0.00    +0.000 NA
ATOM     14  C   UNL     1      43.602   4.382  10.355  0.00  0.00    +0.000 C 
ATOM     15  H   UNL     1      42.393   2.832  10.938  0.00  0.00    +0.000 HD
ENDBRANCH   9  10
ENDBRANCH   7   9
ENDBRANCH   2   3
BRANCH   2  16
ATOM     16  O   UNL     1      49.704   9.793  12.787  0.00  0.00    +0.000 OA
ATOM     17  H   UNL     1      50.099   9.829  13.676  0.00  0.00    +0.000 HD
ENDBRANCH   2  16
BRANCH   2  18
ATOM     18  C   UNL     1      49.915   7.590  13.727  0.00  0.00    +0.000 C 
BRANCH  18  19
ATOM     19  O   UNL     1      49.138   7.886  14.902  0.00  0.00    +0.000 OA
BRANCH  19  20
ATOM     20  C   UNL     1      48.853   6.746  15.622  0.00  0.00    +0.000 A 
ATOM     21  C   UNL     1      49.308   6.683  16.927  0.00  0.00    +0.000 A 
ATOM     22  C   UNL     1      48.931   5.586  17.702  0.00  0.00    +0.000 A 
ATOM     23  C   UNL     1      48.141   4.588  17.136  0.00  0.00    +0.000 A 
ATOM     24  C   UNL     1      47.774   4.720  15.804  0.00  0.00    +0.000 A 
ATOM     25  N   UNL     1      48.126   5.772  15.033  0.00  0.00    +0.000 NA
BRANCH  23  26
ATOM     26  C   UNL     1      47.624   3.437  17.897  0.00  0.00    +0.000 C 
ATOM     27  N   UNL     1      48.273   3.117  19.061  0.00  0.00    +0.000 N 
ATOM     28  O   UNL     1      46.669   2.786  17.509  0.00  0.00    +0.000 OA
ATOM     29  H   UNL     1      49.166   3.504  19.332  0.00  0.00    +0.000 HD
ATOM     30  H   UNL     1      47.946   2.290  19.552  0.00  0.00    +0.000 HD
ENDBRANCH  23  26
ENDBRANCH  19  20
ENDBRANCH  18  19
ENDBRANCH   2  18
TORSDOF 8
ENDMDL
