MODEL 1
REMARK VINA RESULT:    -7.896      0.000      0.000
REMARK INTER + INTRA:         -13.814
REMARK INTER:                 -12.282
REMARK INTRA:                  -1.532
REMARK UNBOUND:                -1.532
REMARK  Name = 
REMARK  10 active torsions:
REMARK  status: ('A' for Active; 'I' for Inactive)
REMARK    1  A    between atoms: C_2  and  C_23
REMARK    2  A    between atoms: N_3  and  C_4
REMARK    3  A    between atoms: C_4  and  C_5
REMARK    4  A    between atoms: C_8  and  C_9
REMARK    5  A    between atoms: C_9  and  N_10
REMARK    6  A    between atoms: N_10  and  C_11
REMARK    7  A    between atoms: N_10  and  C_14
REMARK    8  A    between atoms: C_11  and  C_12
REMARK    9  A    between atoms: C_12  and  O_13
REMARK   10  A    between atoms: C_14  and  C_15
REMARK                            x       y       z     vdW  Elec       q    Type
REMARK                         _______ _______ _______ _____ _____    ______ ____
ROOT
ATOM      1  C   UNL     1      47.251   8.169  13.065  0.00  0.00    +0.000 A 
ATOM      2  N   UNL     1      47.742   7.266  12.196  0.00  0.00    +0.000 NA
ATOM      3  C   UNL     1      46.839   6.536  11.511  0.00  0.00    +0.000 A 
ATOM      4  C   UNL     1      45.475   6.666  11.661  0.00  0.00    +0.000 A 
ATOM      5  C   UNL     1      45.081   7.691  12.496  0.00  0.00    +0.000 A 
ATOM      6  N   UNL     1      45.939   8.460  13.197  0.00  0.00    +0.000 NA
ENDROOT
BRANCH   1   7
ATOM      7  C   UNL     1      48.227   8.915  13.951  0.00  0.00    +0.000 C 
BRANCH   7  10
ATOM      8  O   UNL     1      50.066   6.920  14.805  0.00  0.00    +0.000 OA
ATOM      9  C   UNL     1      49.184   7.316  15.563  0.00  0.00    +0.000 C 
ATOM     10  N   UNL     1      48.312   8.342  15.272  0.00  0.00    +0.000 N 
ATOM     11  H   UNL     1      47.482   8.442  15.838  0.00  0.00    +0.000 HD
BRANCH   9  12
ATOM     12  C   UNL     1      48.787   6.613  16.771  0.00  0.00    +0.000 A 
ATOM     13  C   UNL     1      49.074   7.081  18.039  0.00  0.00    +0.000 A 
ATOM     14  S   UNL     1      48.971   5.834  19.213  0.00  0.00    +0.000 S 
ATOM     15  C   UNL     1      48.412   4.711  18.057  0.00  0.00    +0.000 A 
ATOM     16  N   UNL     1      48.243   3.392  18.339  0.00  0.00    +0.000 NA
ATOM     17  C   UNL     1      47.755   2.700  17.360  0.00  0.00    +0.000 A 
ATOM     18  N   UNL     1      47.377   3.213  16.142  0.00  0.00    +0.000 N 
ATOM     19  C   UNL     1      47.512   4.541  15.819  0.00  0.00    +0.000 A 
ATOM     20  O   UNL     1      47.082   5.002  14.769  0.00  0.00    +0.000 OA
ATOM     21  C   UNL     1      48.176   5.319  16.844  0.00  0.00    +0.000 A 
ATOM     22  H   UNL     1      46.916   2.636  15.454  0.00  0.00    +0.000 HD
ENDBRANCH   9  12
ENDBRANCH   7  10
ENDBRANCH   1   7
BRANCH   4  23
ATOM     23  C   UNL     1      44.494   5.734  11.008  0.00  0.00    +0.000 C 
BRANCH  23  24
ATOM     24  N   UNL     1      45.050   4.381  10.735  0.00  0.00    +0.000 NA
BRANCH  24  25
ATOM     25  C   UNL     1      44.757   3.451  11.856  0.00  0.00    +0.000 C 
BRANCH  25  26
ATOM     26  C   UNL     1      43.283   3.014  11.986  0.00  0.00    +0.000 C 
BRANCH  26  27
ATOM     27  O   UNL     1      43.149   1.624  11.697  0.00  0.00    +0.000 OA
ATOM     28  H   UNL     1      43.738   1.424  10.949  0.00  0.00    +0.000 HD
ENDBRANCH  26  27
ENDBRANCH  25  26
ENDBRANCH  24  25
BRANCH  24  29
ATOM     29  C   UNL     1      44.450   3.852   9.482  0.00  0.00    +0.000 C 
BRANCH  29  30
ATOM     30  C   UNL     1      45.404   3.108   8.568  0.00  0.00    +0.000 A 
ATOM     31  C   UNL     1      46.158   3.793   7.617  0.00  0.00    +0.000 A 
ATOM     32  C   UNL     1      47.065   3.081   6.839  0.00  0.00    +0.000 A 
ATOM     33  C   UNL     1      47.197   1.712   7.029  0.00  0.00    +0.000 A 
ATOM     34  C   UNL     1      46.404   1.105   7.988  0.00  0.00    +0.000 A 
ATOM     35  N   UNL     1      45.508   1.767   8.753  0.00  0.00    +0.000 NA
ENDBRANCH  29  30
ENDBRANCH  24  29
ENDBRANCH  23  24
ENDBRANCH   4  23
TORSDOF 10
ENDMDL
MODEL 2
REMARK VINA RESULT:    -7.491      1.742      1.977
REMARK INTER + INTRA:         -13.184
REMARK INTER:                 -11.954
REMARK INTRA:                  -1.230
REMARK UNBOUND:                -1.532
REMARK  Name = 
REMARK  10 active torsions:
REMARK  status: ('A' for Active; 'I' for Inactive)
REMARK    1  A    between atoms: C_2  and  C_23
REMARK    2  A    between atoms: N_3  and  C_4
REMARK    3  A    between atoms: C_4  and  C_5
REMARK    4  A    between atoms: C_8  and  C_9
REMARK    5  A    between atoms: C_9  and  N_10
REMARK    6  A    between atoms: N_10  and  C_11
REMARK    7  A    between atoms: N_10  and  C_14
REMARK    8  A    between atoms: C_11  and  C_12
REMARK    9  A    between atoms: C_12  and  O_13
REMARK   10  A    between atoms: C_14  and  C_15
REMARK                            x       y       z     vdW  Elec       q    Type
REMARK                         _______ _______ _______ _____ _____    ______ ____
ROOT
ATOM      1  C   UNL     1      47.598   7.021  13.731  0.00  0.00    +0.000 A 
ATOM      2  N   UNL     1      47.286   5.719  13.587  0.00  0.00    +0.000 NA
ATOM      3  C   UNL     1      46.356   5.421  12.658  0.00  0.00    +0.000 A 
ATOM      4  C   UNL     1      45.724   6.365  11.876  0.00  0.00    +0.000 A 
ATOM      5  C   UNL     1      46.194   7.652  12.031  0.00  0.00    +0.000 A 
ATOM      6  N   UNL     1      47.130   8.006  12.935  0.00  0.00    +0.000 NA
ENDROOT
BRANCH   1   7
ATOM      7  C   UNL     1      48.539   7.412  14.853  0.00  0.00    +0.000 C 
BRANCH   7  10
ATOM      8  O   UNL     1      48.239   7.296  17.680  0.00  0.00    +0.000 OA
ATOM      9  C   UNL     1      48.766   6.367  17.073  0.00  0.00    +0.000 C 
ATOM     10  N   UNL     1      48.868   6.292  15.701  0.00  0.00    +0.000 N 
ATOM     11  H   UNL     1      49.515   5.626  15.303  0.00  0.00    +0.000 HD
BRANCH   9  12
ATOM     12  C   UNL     1      49.556   5.333  17.718  0.00  0.00    +0.000 A 
ATOM     13  C   UNL     1      50.541   5.611  18.646  0.00  0.00    +0.000 A 
ATOM     14  S   UNL     1      51.631   4.299  18.827  0.00  0.00    +0.000 S 
ATOM     15  C   UNL     1      50.714   3.316  17.779  0.00  0.00    +0.000 A 
ATOM     16  N   UNL     1      51.134   2.090  17.367  0.00  0.00    +0.000 NA
ATOM     17  C   UNL     1      50.284   1.460  16.623  0.00  0.00    +0.000 A 
ATOM     18  N   UNL     1      49.033   1.923  16.289  0.00  0.00    +0.000 N 
ATOM     19  C   UNL     1      48.558   3.146  16.696  0.00  0.00    +0.000 A 
ATOM     20  O   UNL     1      47.408   3.503  16.474  0.00  0.00    +0.000 OA
ATOM     21  C   UNL     1      49.534   3.931  17.421  0.00  0.00    +0.000 A 
ATOM     22  H   UNL     1      48.381   1.343  15.782  0.00  0.00    +0.000 HD
ENDBRANCH   9  12
ENDBRANCH   7  10
ENDBRANCH   1   7
BRANCH   4  23
ATOM     23  C   UNL     1      44.580   6.028  10.963  0.00  0.00    +0.000 C 
BRANCH  23  24
ATOM     24  N   UNL     1      44.405   4.567  10.744  0.00  0.00    +0.000 NA
BRANCH  24  25
ATOM     25  C   UNL     1      43.258   4.045  11.532  0.00  0.00    +0.000 C 
BRANCH  25  26
ATOM     26  C   UNL     1      43.534   2.754  12.329  0.00  0.00    +0.000 C 
BRANCH  26  27
ATOM     27  O   UNL     1      43.051   1.617  11.617  0.00  0.00    +0.000 OA
ATOM     28  H   UNL     1      42.164   1.837  11.283  0.00  0.00    +0.000 HD
ENDBRANCH  26  27
ENDBRANCH  25  26
ENDBRANCH  24  25
BRANCH  24  29
ATOM     29  C   UNL     1      44.167   4.317   9.297  0.00  0.00    +0.000 C 
BRANCH  29  30
ATOM     30  C   UNL     1      45.235   3.502   8.594  0.00  0.00    +0.000 A 
ATOM     31  C   UNL     1      45.347   2.131   8.820  0.00  0.00    +0.000 A 
ATOM     32  C   UNL     1      46.300   1.409   8.111  0.00  0.00    +0.000 A 
ATOM     33  C   UNL     1      47.111   2.068   7.196  0.00  0.00    +0.000 A 
ATOM     34  C   UNL     1      46.942   3.433   7.036  0.00  0.00    +0.000 A 
ATOM     35  N   UNL     1      46.032   4.163   7.717  0.00  0.00    +0.000 NA
ENDBRANCH  29  30
ENDBRANCH  24  29
ENDBRANCH  23  24
ENDBRANCH   4  23
TORSDOF 10
ENDMDL
MODEL 3
REMARK VINA RESULT:    -7.395      2.156      3.532
REMARK INTER + INTRA:         -13.034
REMARK INTER:                 -11.934
REMARK INTRA:                  -1.100
REMARK UNBOUND:                -1.532
REMARK  Name = 
REMARK  10 active torsions:
REMARK  status: ('A' for Active; 'I' for Inactive)
REMARK    1  A    between atoms: C_2  and  C_23
REMARK    2  A    between atoms: N_3  and  C_4
REMARK    3  A    between atoms: C_4  and  C_5
REMARK    4  A    between atoms: C_8  and  C_9
REMARK    5  A    between atoms: C_9  and  N_10
REMARK    6  A    between atoms: N_10  and  C_11
REMARK    7  A    between atoms: N_10  and  C_14
REMARK    8  A    between atoms: C_11  and  C_12
REMARK    9  A    between atoms: C_12  and  O_13
REMARK   10  A    between atoms: C_14  and  C_15
REMARK                            x       y       z     vdW  Elec       q    Type
REMARK                         _______ _______ _______ _____ _____    ______ ____
ROOT
ATOM      1  C   UNL     1      47.231   4.136  14.903  0.00  0.00    +0.000 A 
ATOM      2  N   UNL     1      46.901   3.151  14.047  0.00  0.00    +0.000 NA
ATOM      3  C   UNL     1      46.298   3.524  12.901  0.00  0.00    +0.000 A 
ATOM      4  C   UNL     1      46.008   4.833  12.578  0.00  0.00    +0.000 A 
ATOM      5  C   UNL     1      46.484   5.768  13.474  0.00  0.00    +0.000 A 
ATOM      6  N   UNL     1      47.104   5.453  14.630  0.00  0.00    +0.000 NA
ENDROOT
BRANCH   1   7
ATOM      7  C   UNL     1      47.788   3.751  16.258  0.00  0.00    +0.000 C 
BRANCH   7  10
ATOM      8  O   UNL     1      50.255   5.039  16.849  0.00  0.00    +0.000 OA
ATOM      9  C   UNL     1      49.220   5.395  17.407  0.00  0.00    +0.000 C 
ATOM     10  N   UNL     1      47.969   4.896  17.117  0.00  0.00    +0.000 N 
ATOM     11  H   UNL     1      47.221   5.064  17.774  0.00  0.00    +0.000 HD
BRANCH   9  12
ATOM     12  C   UNL     1      49.196   6.217  18.605  0.00  0.00    +0.000 A 
ATOM     13  C   UNL     1      49.545   5.736  19.852  0.00  0.00    +0.000 A 
ATOM     14  S   UNL     1      48.928   6.727  21.109  0.00  0.00    +0.000 S 
ATOM     15  C   UNL     1      48.320   7.864  19.994  0.00  0.00    +0.000 A 
ATOM     16  N   UNL     1      47.548   8.918  20.369  0.00  0.00    +0.000 NA
ATOM     17  C   UNL     1      47.226   9.712  19.399  0.00  0.00    +0.000 A 
ATOM     18  N   UNL     1      47.644   9.575  18.096  0.00  0.00    +0.000 N 
ATOM     19  C   UNL     1      48.440   8.537  17.674  0.00  0.00    +0.000 A 
ATOM     20  O   UNL     1      48.884   8.481  16.535  0.00  0.00    +0.000 OA
ATOM     21  C   UNL     1      48.709   7.561  18.708  0.00  0.00    +0.000 A 
ATOM     22  H   UNL     1      47.435  10.280  17.405  0.00  0.00    +0.000 HD
ENDBRANCH   9  12
ENDBRANCH   7  10
ENDBRANCH   1   7
BRANCH   4  23
ATOM     23  C   UNL     1      45.195   5.211  11.373  0.00  0.00    +0.000 C 
BRANCH  23  24
ATOM     24  N   UNL     1      44.371   4.093  10.837  0.00  0.00    +0.000 NA
BRANCH  24  25
ATOM     25  C   UNL     1      43.008   4.109  11.427  0.00  0.00    +0.000 C 
BRANCH  25  26
ATOM     26  C   UNL     1      42.537   5.473  11.972  0.00  0.00    +0.000 C 
BRANCH  26  27
ATOM     27  O   UNL     1      42.536   5.466  13.398  0.00  0.00    +0.000 OA
ATOM     28  H   UNL     1      43.453   5.602  13.691  0.00  0.00    +0.000 HD
ENDBRANCH  26  27
ENDBRANCH  25  26
ENDBRANCH  24  25
BRANCH  24  29
ATOM     29  C   UNL     1      44.274   4.226   9.359  0.00  0.00    +0.000 C 
BRANCH  29  30
ATOM     30  C   UNL     1      45.294   3.432   8.566  0.00  0.00    +0.000 A 
ATOM     31  C   UNL     1      45.489   2.075   8.816  0.00  0.00    +0.000 A 
ATOM     32  C   UNL     1      46.390   1.369   8.027  0.00  0.00    +0.000 A 
ATOM     33  C   UNL     1      47.070   2.031   7.012  0.00  0.00    +0.000 A 
ATOM     34  C   UNL     1      46.826   3.382   6.836  0.00  0.00    +0.000 A 
ATOM     35  N   UNL     1      45.964   4.097   7.591  0.00  0.00    +0.000 NA
ENDBRANCH  29  30
ENDBRANCH  24  29
ENDBRANCH  23  24
ENDBRANCH   4  23
TORSDOF 10
ENDMDL
MODEL 4
REMARK VINA RESULT:    -7.237      2.115      2.551
REMARK INTER + INTRA:         -12.789
REMARK INTER:                 -11.317
REMARK INTRA:                  -1.472
REMARK UNBOUND:                -1.532
REMARK  Name = 
REMARK  10 active torsions:
REMARK  status: ('A' for Active; 'I' for Inactive)
REMARK    1  A    between atoms: C_2  and  C_23
REMARK    2  A    between atoms: N_3  and  C_4
REMARK    3  A    between atoms: C_4  and  C_5
REMARK    4  A    between atoms: C_8  and  C_9
REMARK    5  A    between atoms: C_9  and  N_10
REMARK    6  A    between atoms: N_10  and  C_11
REMARK    7  A    between atoms: N_10  and  C_14
REMARK    8  A    between atoms: C_11  and  C_12
REMARK    9  A    between atoms: C_12  and  O_13
REMARK   10  A    between atoms: C_14  and  C_15
REMARK                            x       y       z     vdW  Elec       q    Type
REMARK                         _______ _______ _______ _____ _____    ______ ____
ROOT
ATOM      1  C   UNL     1      47.893   6.758  13.967  0.00  0.00    +0.000 A 
ATOM      2  N   UNL     1      47.749   5.513  13.475  0.00  0.00    +0.000 NA
ATOM      3  C   UNL     1      46.799   5.342  12.534  0.00  0.00    +0.000 A 
ATOM      4  C   UNL     1      45.988   6.357  12.071  0.00  0.00    +0.000 A 
ATOM      5  C   UNL     1      46.291   7.609  12.563  0.00  0.00    +0.000 A 
ATOM      6  N   UNL     1      47.238   7.840  13.496  0.00  0.00    +0.000 NA
ENDROOT
BRANCH   1   7
ATOM      7  C   UNL     1      48.856   6.966  15.117  0.00  0.00    +0.000 C 
BRANCH   7  10
ATOM      8  O   UNL     1      50.208   8.270  17.255  0.00  0.00    +0.000 OA
ATOM      9  C   UNL     1      48.982   8.180  17.259  0.00  0.00    +0.000 C 
ATOM     10  N   UNL     1      48.238   7.653  16.226  0.00  0.00    +0.000 N 
ATOM     11  H   UNL     1      47.277   7.401  16.406  0.00  0.00    +0.000 HD
BRANCH   9  12
ATOM     12  C   UNL     1      48.164   8.402  18.439  0.00  0.00    +0.000 A 
ATOM     13  C   UNL     1      47.805   9.663  18.874  0.00  0.00    +0.000 A 
ATOM     14  S   UNL     1      47.319   9.650  20.520  0.00  0.00    +0.000 S 
ATOM     15  C   UNL     1      47.455   7.952  20.607  0.00  0.00    +0.000 A 
ATOM     16  N   UNL     1      47.316   7.265  21.772  0.00  0.00    +0.000 NA
ATOM     17  C   UNL     1      47.391   5.979  21.641  0.00  0.00    +0.000 A 
ATOM     18  N   UNL     1      47.544   5.316  20.447  0.00  0.00    +0.000 N 
ATOM     19  C   UNL     1      47.671   5.967  19.244  0.00  0.00    +0.000 A 
ATOM     20  O   UNL     1      47.708   5.363  18.179  0.00  0.00    +0.000 OA
ATOM     21  C   UNL     1      47.723   7.408  19.371  0.00  0.00    +0.000 A 
ATOM     22  H   UNL     1      47.501   4.309  20.401  0.00  0.00    +0.000 HD
ENDBRANCH   9  12
ENDBRANCH   7  10
ENDBRANCH   1   7
BRANCH   4  23
ATOM     23  C   UNL     1      44.833   6.112  11.143  0.00  0.00    +0.000 C 
BRANCH  23  24
ATOM     24  N   UNL     1      44.513   4.670  10.958  0.00  0.00    +0.000 NA
BRANCH  24  25
ATOM     25  C   UNL     1      43.394   4.257  11.844  0.00  0.00    +0.000 C 
BRANCH  25  26
ATOM     26  C   UNL     1      43.530   2.854  12.471  0.00  0.00    +0.000 C 
BRANCH  26  27
ATOM     27  O   UNL     1      43.081   1.856  11.558  0.00  0.00    +0.000 OA
ATOM     28  H   UNL     1      42.594   1.189  12.072  0.00  0.00    +0.000 HD
ENDBRANCH  26  27
ENDBRANCH  25  26
ENDBRANCH  24  25
BRANCH  24  29
ATOM     29  C   UNL     1      44.136   4.434   9.539  0.00  0.00    +0.000 C 
BRANCH  29  30
ATOM     30  C   UNL     1      45.060   3.515   8.765  0.00  0.00    +0.000 A 
ATOM     31  C   UNL     1      45.953   4.030   7.826  0.00  0.00    +0.000 A 
ATOM     32  C   UNL     1      46.824   3.161   7.181  0.00  0.00    +0.000 A 
ATOM     33  C   UNL     1      46.787   1.806   7.487  0.00  0.00    +0.000 A 
ATOM     34  C   UNL     1      45.865   1.374   8.424  0.00  0.00    +0.000 A 
ATOM     35  N   UNL     1      44.999   2.192   9.062  0.00  0.00    +0.000 NA
ENDBRANCH  29  30
ENDBRANCH  24  29
ENDBRANCH  23  24
ENDBRANCH   4  23
TORSDOF 10
ENDMDL
MODEL 5
REMARK VINA RESULT:    -7.161      2.764      3.675
REMARK INTER + INTRA:         -12.671
REMARK INTER:                 -11.464
REMARK INTRA:                  -1.207
REMARK UNBOUND:                -1.532
REMARK  Name = 
REMARK  10 active torsions:
REMARK  status: ('A' for Active; 'I' for Inactive)
REMARK    1  A    between atoms: C_2  and  C_23
REMARK    2  A    between atoms: N_3  and  C_4
REMARK    3  A    between atoms: C_4  and  C_5
REMARK    4  A    between atoms: C_8  and  C_9
REMARK    5  A    between atoms: C_9  and  N_10
REMARK    6  A    between atoms: N_10  and  C_11
REMARK    7  A    between atoms: N_10  and  C_14
REMARK    8  A    between atoms: C_11  and  C_12
REMARK    9  A    between atoms: C_12  and  O_13
REMARK   10  A    between atoms: C_14  and  C_15
REMARK                            x       y       z     vdW  Elec       q    Type
REMARK                         _______ _______ _______ _____ _____    ______ ____
ROOT
ATOM      1  C   UNL     1      46.998   4.573  14.736  0.00  0.00    +0.000 A 
ATOM      2  N   UNL     1      46.374   3.600  14.046  0.00  0.00    +0.000 NA
ATOM      3  C   UNL     1      46.002   3.899  12.785  0.00  0.00    +0.000 A 
ATOM      4  C   UNL     1      46.222   5.124  12.191  0.00  0.00    +0.000 A 
ATOM      5  C   UNL     1      46.962   6.008  12.948  0.00  0.00    +0.000 A 
ATOM      6  N   UNL     1      47.369   5.759  14.209  0.00  0.00    +0.000 NA
ENDROOT
BRANCH   1   7
ATOM      7  C   UNL     1      47.313   4.324  16.197  0.00  0.00    +0.000 C 
BRANCH   7  10
ATOM      8  O   UNL     1      49.431   2.820  17.357  0.00  0.00    +0.000 OA
ATOM      9  C   UNL     1      49.545   4.034  17.202  0.00  0.00    +0.000 C 
ATOM     10  N   UNL     1      48.615   4.826  16.566  0.00  0.00    +0.000 N 
ATOM     11  H   UNL     1      48.671   5.827  16.690  0.00  0.00    +0.000 HD
BRANCH   9  12
ATOM     12  C   UNL     1      50.557   4.837  17.865  0.00  0.00    +0.000 A 
ATOM     13  C   UNL     1      51.592   5.450  17.185  0.00  0.00    +0.000 A 
ATOM     14  S   UNL     1      52.886   5.860  18.234  0.00  0.00    +0.000 S 
ATOM     15  C   UNL     1      52.012   5.349  19.607  0.00  0.00    +0.000 A 
ATOM     16  N   UNL     1      52.564   5.290  20.848  0.00  0.00    +0.000 NA
ATOM     17  C   UNL     1      51.738   4.938  21.779  0.00  0.00    +0.000 A 
ATOM     18  N   UNL     1      50.399   4.686  21.593  0.00  0.00    +0.000 N 
ATOM     19  C   UNL     1      49.794   4.750  20.362  0.00  0.00    +0.000 A 
ATOM     20  O   UNL     1      48.584   4.619  20.225  0.00  0.00    +0.000 OA
ATOM     21  C   UNL     1      50.717   5.013  19.278  0.00  0.00    +0.000 A 
ATOM     22  H   UNL     1      49.789   4.507  22.376  0.00  0.00    +0.000 HD
ENDBRANCH   9  12
ENDBRANCH   7  10
ENDBRANCH   1   7
BRANCH   4  23
ATOM     23  C   UNL     1      45.659   5.486  10.847  0.00  0.00    +0.000 C 
BRANCH  23  24
ATOM     24  N   UNL     1      44.366   4.814  10.543  0.00  0.00    +0.000 NA
BRANCH  24  25
ATOM     25  C   UNL     1      43.218   5.641  10.996  0.00  0.00    +0.000 C 
BRANCH  25  26
ATOM     26  C   UNL     1      42.471   5.113  12.237  0.00  0.00    +0.000 C 
BRANCH  26  27
ATOM     27  O   UNL     1      42.941   5.762  13.416  0.00  0.00    +0.000 OA
ATOM     28  H   UNL     1      43.869   5.499  13.543  0.00  0.00    +0.000 HD
ENDBRANCH  26  27
ENDBRANCH  25  26
ENDBRANCH  24  25
BRANCH  24  29
ATOM     29  C   UNL     1      44.268   4.591   9.076  0.00  0.00    +0.000 C 
BRANCH  29  30
ATOM     30  C   UNL     1      45.277   3.619   8.496  0.00  0.00    +0.000 A 
ATOM     31  C   UNL     1      45.260   2.274   8.861  0.00  0.00    +0.000 A 
ATOM     32  C   UNL     1      46.163   1.404   8.262  0.00  0.00    +0.000 A 
ATOM     33  C   UNL     1      47.055   1.893   7.316  0.00  0.00    +0.000 A 
ATOM     34  C   UNL     1      47.013   3.244   7.016  0.00  0.00    +0.000 A 
ATOM     35  N   UNL     1      46.154   4.116   7.587  0.00  0.00    +0.000 NA
ENDBRANCH  29  30
ENDBRANCH  24  29
ENDBRANCH  23  24
ENDBRANCH   4  23
TORSDOF 10
ENDMDL
MODEL 6
REMARK VINA RESULT:    -6.942      1.613      2.323
REMARK INTER + INTRA:         -12.329
REMARK INTER:                 -10.950
REMARK INTRA:                  -1.379
REMARK UNBOUND:                -1.532
REMARK  Name = 
REMARK  10 active torsions:
REMARK  status: ('A' for Active; 'I' for Inactive)
REMARK    1  A    between atoms: C_2  and  C_23
REMARK    2  A    between atoms: N_3  and  C_4
REMARK    3  A    between atoms: C_4  and  C_5
REMARK    4  A    between atoms: C_8  and  C_9
REMARK    5  A    between atoms: C_9  and  N_10
REMARK    6  A    between atoms: N_10  and  C_11
REMARK    7  A    between atoms: N_10  and  C_14
REMARK    8  A    between atoms: C_11  and  C_12
REMARK    9  A    between atoms: C_12  and  O_13
REMARK   10  A    between atoms: C_14  and  C_15
REMARK                            x       y       z     vdW  Elec       q    Type
REMARK                         _______ _______ _______ _____ _____    ______ ____
ROOT
ATOM      1  C   UNL     1      47.090   7.875  13.131  0.00  0.00    +0.000 A 
ATOM      2  N   UNL     1      47.232   6.583  12.781  0.00  0.00    +0.000 NA
ATOM      3  C   UNL     1      46.234   6.040  12.057  0.00  0.00    +0.000 A 
ATOM      4  C   UNL     1      45.102   6.730  11.674  0.00  0.00    +0.000 A 
ATOM      5  C   UNL     1      45.109   8.072  11.992  0.00  0.00    +0.000 A 
ATOM      6  N   UNL     1      46.085   8.670  12.704  0.00  0.00    +0.000 NA
ENDROOT
BRANCH   1   7
ATOM      7  C   UNL     1      48.123   8.485  14.055  0.00  0.00    +0.000 C 
BRANCH   7  10
ATOM      8  O   UNL     1      50.200   6.843  15.096  0.00  0.00    +0.000 OA
ATOM      9  C   UNL     1      49.157   6.999  15.727  0.00  0.00    +0.000 C 
ATOM     10  N   UNL     1      48.140   7.847  15.349  0.00  0.00    +0.000 N 
ATOM     11  H   UNL     1      47.236   7.738  15.786  0.00  0.00    +0.000 HD
BRANCH   9  12
ATOM     12  C   UNL     1      48.751   6.146  16.830  0.00  0.00    +0.000 A 
ATOM     13  C   UNL     1      48.254   4.870  16.648  0.00  0.00    +0.000 A 
ATOM     14  S   UNL     1      47.385   4.325  18.023  0.00  0.00    +0.000 S 
ATOM     15  C   UNL     1      47.790   5.727  18.907  0.00  0.00    +0.000 A 
ATOM     16  N   UNL     1      47.268   5.996  20.133  0.00  0.00    +0.000 NA
ATOM     17  C   UNL     1      47.733   7.073  20.681  0.00  0.00    +0.000 A 
ATOM     18  N   UNL     1      48.705   7.879  20.138  0.00  0.00    +0.000 N 
ATOM     19  C   UNL     1      49.273   7.636  18.911  0.00  0.00    +0.000 A 
ATOM     20  O   UNL     1      50.206   8.305  18.483  0.00  0.00    +0.000 OA
ATOM     21  C   UNL     1      48.683   6.514  18.213  0.00  0.00    +0.000 A 
ATOM     22  H   UNL     1      49.091   8.652  20.658  0.00  0.00    +0.000 HD
ENDBRANCH   9  12
ENDBRANCH   7  10
ENDBRANCH   1   7
BRANCH   4  23
ATOM     23  C   UNL     1      43.933   6.064  11.007  0.00  0.00    +0.000 C 
BRANCH  23  24
ATOM     24  N   UNL     1      44.169   4.630  10.686  0.00  0.00    +0.000 NA
BRANCH  24  25
ATOM     25  C   UNL     1      43.210   3.758  11.414  0.00  0.00    +0.000 C 
BRANCH  25  26
ATOM     26  C   UNL     1      43.799   2.975  12.605  0.00  0.00    +0.000 C 
BRANCH  26  27
ATOM     27  O   UNL     1      45.120   2.532  12.305  0.00  0.00    +0.000 OA
ATOM     28  H   UNL     1      45.551   3.231  11.784  0.00  0.00    +0.000 HD
ENDBRANCH  26  27
ENDBRANCH  25  26
ENDBRANCH  24  25
BRANCH  24  29
ATOM     29  C   UNL     1      44.012   4.426   9.221  0.00  0.00    +0.000 C 
BRANCH  29  30
ATOM     30  C   UNL     1      45.026   3.499   8.580  0.00  0.00    +0.000 A 
ATOM     31  C   UNL     1      45.992   3.997   7.707  0.00  0.00    +0.000 A 
ATOM     32  C   UNL     1      46.941   3.125   7.187  0.00  0.00    +0.000 A 
ATOM     33  C   UNL     1      46.905   1.784   7.551  0.00  0.00    +0.000 A 
ATOM     34  C   UNL     1      45.908   1.369   8.416  0.00  0.00    +0.000 A 
ATOM     35  N   UNL     1      44.967   2.190   8.931  0.00  0.00    +0.000 NA
ENDBRANCH  29  30
ENDBRANCH  24  29
ENDBRANCH  23  24
ENDBRANCH   4  23
TORSDOF 10
ENDMDL
MODEL 7
REMARK VINA RESULT:    -6.815      2.477      3.822
REMARK INTER + INTRA:         -12.132
REMARK INTER:                 -10.879
REMARK INTRA:                  -1.253
REMARK UNBOUND:                -1.532
REMARK  Name = 
REMARK  10 active torsions:
REMARK  status: ('A' for Active; 'I' for Inactive)
REMARK    1  A    between atoms: C_2  and  C_23
REMARK    2  A    between atoms: N_3  and  C_4
REMARK    3  A    between atoms: C_4  and  C_5
REMARK    4  A    between atoms: C_8  and  C_9
REMARK    5  A    between atoms: C_9  and  N_10
REMARK    6  A    between atoms: N_10  and  C_11
REMARK    7  A    between atoms: N_10  and  C_14
REMARK    8  A    between atoms: C_11  and  C_12
REMARK    9  A    between atoms: C_12  and  O_13
REMARK   10  A    between atoms: C_14  and  C_15
REMARK                            x       y       z     vdW  Elec       q    Type
REMARK                         _______ _______ _______ _____ _____    ______ ____
ROOT
ATOM      1  C   UNL     1      47.012   4.539  14.788  0.00  0.00    +0.000 A 
ATOM      2  N   UNL     1      46.320   3.599  14.117  0.00  0.00    +0.000 NA
ATOM      3  C   UNL     1      45.967   3.898  12.852  0.00  0.00    +0.000 A 
ATOM      4  C   UNL     1      46.268   5.093  12.233  0.00  0.00    +0.000 A 
ATOM      5  C   UNL     1      47.069   5.939  12.972  0.00  0.00    +0.000 A 
ATOM      6  N   UNL     1      47.463   5.687  14.237  0.00  0.00    +0.000 NA
ENDROOT
BRANCH   1   7
ATOM      7  C   UNL     1      47.314   4.298  16.253  0.00  0.00    +0.000 C 
BRANCH   7  10
ATOM      8  O   UNL     1      48.637   6.307  17.772  0.00  0.00    +0.000 OA
ATOM      9  C   UNL     1      49.284   5.427  17.210  0.00  0.00    +0.000 C 
ATOM     10  N   UNL     1      48.727   4.364  16.535  0.00  0.00    +0.000 N 
ATOM     11  H   UNL     1      49.315   3.830  15.911  0.00  0.00    +0.000 HD
BRANCH   9  12
ATOM     12  C   UNL     1      50.717   5.506  16.982  0.00  0.00    +0.000 A 
ATOM     13  C   UNL     1      51.607   4.575  17.481  0.00  0.00    +0.000 A 
ATOM     14  S   UNL     1      53.210   5.187  17.516  0.00  0.00    +0.000 S 
ATOM     15  C   UNL     1      52.738   6.631  16.741  0.00  0.00    +0.000 A 
ATOM     16  N   UNL     1      53.585   7.680  16.568  0.00  0.00    +0.000 NA
ATOM     17  C   UNL     1      53.075   8.669  15.907  0.00  0.00    +0.000 A 
ATOM     18  N   UNL     1      51.813   8.687  15.362  0.00  0.00    +0.000 N 
ATOM     19  C   UNL     1      50.929   7.643  15.495  0.00  0.00    +0.000 A 
ATOM     20  O   UNL     1      49.847   7.631  14.923  0.00  0.00    +0.000 OA
ATOM     21  C   UNL     1      51.421   6.576  16.340  0.00  0.00    +0.000 A 
ATOM     22  H   UNL     1      51.508   9.450  14.777  0.00  0.00    +0.000 HD
ENDBRANCH   9  12
ENDBRANCH   7  10
ENDBRANCH   1   7
BRANCH   4  23
ATOM     23  C   UNL     1      45.728   5.467  10.883  0.00  0.00    +0.000 C 
BRANCH  23  24
ATOM     24  N   UNL     1      44.410   4.846  10.577  0.00  0.00    +0.000 NA
BRANCH  24  25
ATOM     25  C   UNL     1      43.295   5.713  11.039  0.00  0.00    +0.000 C 
BRANCH  25  26
ATOM     26  C   UNL     1      42.481   5.168  12.230  0.00  0.00    +0.000 C 
BRANCH  26  27
ATOM     27  O   UNL     1      42.961   5.717  13.454  0.00  0.00    +0.000 OA
ATOM     28  H   UNL     1      43.866   5.386  13.588  0.00  0.00    +0.000 HD
ENDBRANCH  26  27
ENDBRANCH  25  26
ENDBRANCH  24  25
BRANCH  24  29
ATOM     29  C   UNL     1      44.300   4.636   9.109  0.00  0.00    +0.000 C 
BRANCH  29  30
ATOM     30  C   UNL     1      45.294   3.657   8.515  0.00  0.00    +0.000 A 
ATOM     31  C   UNL     1      45.268   2.311   8.875  0.00  0.00    +0.000 A 
ATOM     32  C   UNL     1      46.157   1.435   8.263  0.00  0.00    +0.000 A 
ATOM     33  C   UNL     1      47.045   1.920   7.311  0.00  0.00    +0.000 A 
ATOM     34  C   UNL     1      47.013   3.273   7.017  0.00  0.00    +0.000 A 
ATOM     35  N   UNL     1      46.167   4.150   7.600  0.00  0.00    +0.000 NA
ENDBRANCH  29  30
ENDBRANCH  24  29
ENDBRANCH  23  24
ENDBRANCH   4  23
TORSDOF 10
ENDMDL
MODEL 8
REMARK VINA RESULT:    -6.450      3.459      5.491
REMARK INTER + INTRA:         -11.564
REMARK INTER:                 -10.516
REMARK INTRA:                  -1.048
REMARK UNBOUND:                -1.532
REMARK  Name = 
REMARK  10 active torsions:
REMARK  status: ('A' for Active; 'I' for Inactive)
REMARK    1  A    between atoms: C_2  and  C_23
REMARK    2  A    between atoms: N_3  and  C_4
REMARK    3  A    between atoms: C_4  and  C_5
REMARK    4  A    between atoms: C_8  and  C_9
REMARK    5  A    between atoms: C_9  and  N_10
REMARK    6  A    between atoms: N_10  and  C_11
REMARK    7  A    between atoms: N_10  and  C_14
REMARK    8  A    between atoms: C_11  and  C_12
REMARK    9  A    between atoms: C_12  and  O_13
REMARK   10  A    between atoms: C_14  and  C_15
REMARK                            x       y       z     vdW  Elec       q    Type
REMARK                         _______ _______ _______ _____ _____    ______ ____
ROOT
ATOM      1  C   UNL     1      47.953   4.307  16.368  0.00  0.00    +0.000 A 
ATOM      2  N   UNL     1      48.532   5.508  16.181  0.00  0.00    +0.000 NA
ATOM      3  C   UNL     1      48.199   6.170  15.056  0.00  0.00    +0.000 A 
ATOM      4  C   UNL     1      47.321   5.682  14.110  0.00  0.00    +0.000 A 
ATOM      5  C   UNL     1      46.706   4.496  14.451  0.00  0.00    +0.000 A 
ATOM      6  N   UNL     1      46.991   3.796  15.569  0.00  0.00    +0.000 NA
ENDROOT
BRANCH   1   7
ATOM      7  C   UNL     1      48.398   3.473  17.551  0.00  0.00    +0.000 C 
BRANCH   7  10
ATOM      8  O   UNL     1      49.890   1.557  16.068  0.00  0.00    +0.000 OA
ATOM      9  C   UNL     1      50.450   2.279  16.890  0.00  0.00    +0.000 C 
ATOM     10  N   UNL     1      49.830   3.295  17.583  0.00  0.00    +0.000 N 
ATOM     11  H   UNL     1      50.292   3.673  18.397  0.00  0.00    +0.000 HD
BRANCH   9  12
ATOM     12  C   UNL     1      51.779   2.016  17.416  0.00  0.00    +0.000 A 
ATOM     13  C   UNL     1      52.327   0.749  17.469  0.00  0.00    +0.000 A 
ATOM     14  S   UNL     1      53.627   0.668  18.586  0.00  0.00    +0.000 S 
ATOM     15  C   UNL     1      53.548   2.344  18.890  0.00  0.00    +0.000 A 
ATOM     16  N   UNL     1      54.291   2.950  19.854  0.00  0.00    +0.000 NA
ATOM     17  C   UNL     1      54.148   4.235  19.903  0.00  0.00    +0.000 A 
ATOM     18  N   UNL     1      53.366   4.976  19.048  0.00  0.00    +0.000 N 
ATOM     19  C   UNL     1      52.612   4.409  18.049  0.00  0.00    +0.000 A 
ATOM     20  O   UNL     1      51.998   5.087  17.235  0.00  0.00    +0.000 OA
ATOM     21  C   UNL     1      52.648   2.962  18.050  0.00  0.00    +0.000 A 
ATOM     22  H   UNL     1      53.370   5.984  19.080  0.00  0.00    +0.000 HD
ENDBRANCH   9  12
ENDBRANCH   7  10
ENDBRANCH   1   7
BRANCH   4  23
ATOM     23  C   UNL     1      47.089   6.362  12.791  0.00  0.00    +0.000 C 
BRANCH  23  24
ATOM     24  N   UNL     1      45.851   7.185  12.756  0.00  0.00    +0.000 NA
BRANCH  24  25
ATOM     25  C   UNL     1      46.176   8.635  12.782  0.00  0.00    +0.000 C 
BRANCH  25  26
ATOM     26  C   UNL     1      45.269   9.533  11.916  0.00  0.00    +0.000 C 
BRANCH  26  27
ATOM     27  O   UNL     1      44.211  10.076  12.702  0.00  0.00    +0.000 OA
ATOM     28  H   UNL     1      44.545  10.182  13.608  0.00  0.00    +0.000 HD
ENDBRANCH  26  27
ENDBRANCH  25  26
ENDBRANCH  24  25
BRANCH  24  29
ATOM     29  C   UNL     1      45.091   6.869  11.518  0.00  0.00    +0.000 C 
BRANCH  29  30
ATOM     30  C   UNL     1      44.622   5.433  11.390  0.00  0.00    +0.000 A 
ATOM     31  C   UNL     1      43.770   4.876  12.343  0.00  0.00    +0.000 A 
ATOM     32  C   UNL     1      43.315   3.576  12.159  0.00  0.00    +0.000 A 
ATOM     33  C   UNL     1      43.716   2.867  11.033  0.00  0.00    +0.000 A 
ATOM     34  C   UNL     1      44.570   3.489  10.139  0.00  0.00    +0.000 A 
ATOM     35  N   UNL     1      45.037   4.748  10.295  0.00  0.00    +0.000 NA
ENDBRANCH  29  30
ENDBRANCH  24  29
ENDBRANCH  23  24
ENDBRANCH   4  23
TORSDOF 10
ENDMDL
MODEL 9
REMARK VINA RESULT:    -6.091      3.951      9.759
REMARK INTER + INTRA:         -11.006
REMARK INTER:                  -9.799
REMARK INTRA:                  -1.207
REMARK UNBOUND:                -1.532
REMARK  Name = 
REMARK  10 active torsions:
REMARK  status: ('A' for Active; 'I' for Inactive)
REMARK    1  A    between atoms: C_2  and  C_23
REMARK    2  A    between atoms: N_3  and  C_4
REMARK    3  A    between atoms: C_4  and  C_5
REMARK    4  A    between atoms: C_8  and  C_9
REMARK    5  A    between atoms: C_9  and  N_10
REMARK    6  A    between atoms: N_10  and  C_11
REMARK    7  A    between atoms: N_10  and  C_14
REMARK    8  A    between atoms: C_11  and  C_12
REMARK    9  A    between atoms: C_12  and  O_13
REMARK   10  A    between atoms: C_14  and  C_15
REMARK                            x       y       z     vdW  Elec       q    Type
REMARK                         _______ _______ _______ _____ _____    ______ ____
ROOT
ATOM      1  C   UNL     1      48.839   3.679  17.233  0.00  0.00    +0.000 A 
ATOM      2  N   UNL     1      49.544   4.826  17.256  0.00  0.00    +0.000 NA
ATOM      3  C   UNL     1      50.878   4.711  17.408  0.00  0.00    +0.000 A 
ATOM      4  C   UNL     1      51.533   3.505  17.545  0.00  0.00    +0.000 A 
ATOM      5  C   UNL     1      50.731   2.393  17.401  0.00  0.00    +0.000 A 
ATOM      6  N   UNL     1      49.393   2.448  17.235  0.00  0.00    +0.000 NA
ENDROOT
BRANCH   1   7
ATOM      7  C   UNL     1      47.327   3.768  17.197  0.00  0.00    +0.000 C 
BRANCH   7  10
ATOM      8  O   UNL     1      47.510   2.919  14.488  0.00  0.00    +0.000 OA
ATOM      9  C   UNL     1      47.066   4.032  14.760  0.00  0.00    +0.000 C 
ATOM     10  N   UNL     1      46.852   4.491  16.041  0.00  0.00    +0.000 N 
ATOM     11  H   UNL     1      46.716   5.482  16.180  0.00  0.00    +0.000 HD
BRANCH   9  12
ATOM     12  C   UNL     1      46.922   5.100  13.786  0.00  0.00    +0.000 A 
ATOM     13  C   UNL     1      47.766   6.192  13.741  0.00  0.00    +0.000 A 
ATOM     14  S   UNL     1      47.063   7.501  12.882  0.00  0.00    +0.000 S 
ATOM     15  C   UNL     1      45.703   6.566  12.455  0.00  0.00    +0.000 A 
ATOM     16  N   UNL     1      44.620   7.094  11.823  0.00  0.00    +0.000 NA
ATOM     17  C   UNL     1      43.708   6.227  11.523  0.00  0.00    +0.000 A 
ATOM     18  N   UNL     1      43.797   4.875  11.754  0.00  0.00    +0.000 N 
ATOM     19  C   UNL     1      44.878   4.295  12.373  0.00  0.00    +0.000 A 
ATOM     20  O   UNL     1      44.989   3.080  12.485  0.00  0.00    +0.000 OA
ATOM     21  C   UNL     1      45.858   5.253  12.839  0.00  0.00    +0.000 A 
ATOM     22  H   UNL     1      43.091   4.240  11.413  0.00  0.00    +0.000 HD
ENDBRANCH   9  12
ENDBRANCH   7  10
ENDBRANCH   1   7
BRANCH   4  23
ATOM     23  C   UNL     1      52.995   3.409  17.874  0.00  0.00    +0.000 C 
BRANCH  23  24
ATOM     24  N   UNL     1      53.270   2.729  19.168  0.00  0.00    +0.000 NA
BRANCH  24  25
ATOM     25  C   UNL     1      54.234   1.613  18.987  0.00  0.00    +0.000 C 
BRANCH  25  26
ATOM     26  C   UNL     1      53.848   0.570  17.919  0.00  0.00    +0.000 C 
BRANCH  26  27
ATOM     27  O   UNL     1      52.794  -0.264  18.397  0.00  0.00    +0.000 OA
ATOM     28  H   UNL     1      53.156  -0.805  19.120  0.00  0.00    +0.000 HD
ENDBRANCH  26  27
ENDBRANCH  25  26
ENDBRANCH  24  25
BRANCH  24  29
ATOM     29  C   UNL     1      53.829   3.718  20.128  0.00  0.00    +0.000 C 
BRANCH  29  30
ATOM     30  C   UNL     1      52.907   4.864  20.494  0.00  0.00    +0.000 A 
ATOM     31  C   UNL     1      51.715   4.627  21.177  0.00  0.00    +0.000 A 
ATOM     32  C   UNL     1      50.926   5.710  21.547  0.00  0.00    +0.000 A 
ATOM     33  C   UNL     1      51.344   6.996  21.231  0.00  0.00    +0.000 A 
ATOM     34  C   UNL     1      52.536   7.145  20.543  0.00  0.00    +0.000 A 
ATOM     35  N   UNL     1      53.320   6.113  20.162  0.00  0.00    +0.000 NA
ENDBRANCH  29  30
ENDBRANCH  24  29
ENDBRANCH  23  24
ENDBRANCH   4  23
TORSDOF 10
ENDMDL
