MODEL 1
REMARK VINA RESULT:    -7.826      0.000      0.000
REMARK INTER + INTRA:         -14.538
REMARK INTER:                 -12.630
REMARK INTRA:                  -1.907
REMARK UNBOUND:                -1.907
REMARK  Name = 
REMARK  11 active torsions:
REMARK  status: ('A' for Active; 'I' for Inactive)
REMARK    1  A    between atoms: N_1  and  C_2
REMARK    2  A    between atoms: C_2  and  C_3
REMARK    3  A    between atoms: C_3  and  C_4
REMARK    4  A    between atoms: C_4  and  C_5
REMARK    5  A    between atoms: C_5  and  N_6
REMARK    6  A    between atoms: C_5  and  C_14
REMARK    7  A    between atoms: N_6  and  C_7
REMARK    8  A    between atoms: C_7  and  C_8
REMARK    9  A    between atoms: C_17  and  C_18
REMARK   10  A    between atoms: C_18  and  N_19
REMARK   11  A    between atoms: C_20  and  C_22
REMARK                            x       y       z     vdW  Elec       q    Type
REMARK                         _______ _______ _______ _____ _____    ______ ____
ROOT
ATOM      1  C   UNL     1      45.357   6.546  11.422  0.00  0.00    +0.000 A 
ATOM      2  C   UNL     1      46.610   6.069  11.848  0.00  0.00    +0.000 A 
ATOM      3  C   UNL     1      47.397   6.795  12.760  0.00  0.00    +0.000 A 
ATOM      4  C   UNL     1      46.944   8.010  13.291  0.00  0.00    +0.000 A 
ATOM      5  C   UNL     1      45.705   8.497  12.861  0.00  0.00    +0.000 A 
ATOM      6  C   UNL     1      44.918   7.766  11.961  0.00  0.00    +0.000 A 
ENDROOT
BRANCH   1   7
ATOM      7  C   UNL     1      44.527   5.748  10.407  0.00  0.00    +0.000 C 
BRANCH   7   8
ATOM      8  N   UNL     1      45.372   4.711   9.777  0.00  0.00    +0.000 NA
ATOM      9  H   UNL     1      46.136   5.165   9.278  0.00  0.00    +0.000 HD
BRANCH   8  10
ATOM     10  C   UNL     1      44.658   3.842   8.834  0.00  0.00    +0.000 C 
BRANCH  10  11
ATOM     11  C   UNL     1      45.599   2.978   8.029  0.00  0.00    +0.000 A 
ATOM     12  C   UNL     1      46.272   3.525   6.925  0.00  0.00    +0.000 A 
ATOM     13  C   UNL     1      47.195   2.768   6.205  0.00  0.00    +0.000 A 
ATOM     14  C   UNL     1      47.465   1.456   6.588  0.00  0.00    +0.000 A 
ATOM     15  C   UNL     1      46.814   0.904   7.691  0.00  0.00    +0.000 A 
ATOM     16  C   UNL     1      45.887   1.661   8.411  0.00  0.00    +0.000 A 
ENDBRANCH  10  11
ENDBRANCH   8  10
ENDBRANCH   7   8
BRANCH   7  17
ATOM     17  C   UNL     1      43.259   5.101  11.019  0.00  0.00    +0.000 C 
BRANCH  17  18
ATOM     18  C   UNL     1      43.426   4.559  12.438  0.00  0.00    +0.000 C 
BRANCH  18  19
ATOM     19  C   UNL     1      43.662   3.049  12.368  0.00  0.00    +0.000 C 
BRANCH  19  20
ATOM     20  N   UNL     1      45.084   2.749  12.424  0.00  0.00    +0.000 NA
ATOM     21  H   UNL     1      45.603   3.623  12.513  0.00  0.00    +0.000 HD
ATOM     22  H   UNL     1      45.377   2.336  11.539  0.00  0.00    +0.000 HD
ENDBRANCH  19  20
ENDBRANCH  18  19
ENDBRANCH  17  18
ENDBRANCH   7  17
ENDBRANCH   1   7
BRANCH   4  23
ATOM     23  C   UNL     1      47.765   8.808  14.275  0.00  0.00    +0.000 C 
BRANCH  23  24
ATOM     24  N   UNL     1      48.097   8.016  15.429  0.00  0.00    +0.000 N 
ATOM     25  C   UNL     1      49.348   7.481  15.624  0.00  0.00    +0.000 C 
ATOM     26  O   UNL     1      50.280   7.682  14.849  0.00  0.00    +0.000 OA
ATOM     27  H   UNL     1      47.313   7.603  15.922  0.00  0.00    +0.000 HD
BRANCH  25  28
ATOM     28  C   UNL     1      49.523   6.721  16.868  0.00  0.00    +0.000 A 
ATOM     29  C   UNL     1      50.306   7.229  17.896  0.00  0.00    +0.000 A 
ATOM     30  S   UNL     1      50.298   6.256  19.300  0.00  0.00    +0.000 S 
ATOM     31  C   UNL     1      49.307   5.090  18.560  0.00  0.00    +0.000 A 
ATOM     32  N   UNL     1      48.917   3.965  19.220  0.00  0.00    +0.000 NA
ATOM     33  C   UNL     1      48.183   3.162  18.532  0.00  0.00    +0.000 A 
ATOM     34  N   UNL     1      47.803   3.374  17.231  0.00  0.00    +0.000 N 
ATOM     35  C   UNL     1      48.147   4.501  16.531  0.00  0.00    +0.000 A 
ATOM     36  O   UNL     1      47.754   4.681  15.386  0.00  0.00    +0.000 OA
ATOM     37  C   UNL     1      48.974   5.442  17.264  0.00  0.00    +0.000 A 
ATOM     38  H   UNL     1      47.217   2.707  16.743  0.00  0.00    +0.000 HD
ENDBRANCH  25  28
ENDBRANCH  23  24
ENDBRANCH   4  23
TORSDOF 11
ENDMDL
MODEL 2
REMARK VINA RESULT:    -7.372      1.627      2.171
REMARK INTER + INTRA:         -13.804
REMARK INTER:                 -12.231
REMARK INTRA:                  -1.573
REMARK UNBOUND:                -1.907
REMARK  Name = 
REMARK  11 active torsions:
REMARK  status: ('A' for Active; 'I' for Inactive)
REMARK    1  A    between atoms: N_1  and  C_2
REMARK    2  A    between atoms: C_2  and  C_3
REMARK    3  A    between atoms: C_3  and  C_4
REMARK    4  A    between atoms: C_4  and  C_5
REMARK    5  A    between atoms: C_5  and  N_6
REMARK    6  A    between atoms: C_5  and  C_14
REMARK    7  A    between atoms: N_6  and  C_7
REMARK    8  A    between atoms: C_7  and  C_8
REMARK    9  A    between atoms: C_17  and  C_18
REMARK   10  A    between atoms: C_18  and  N_19
REMARK   11  A    between atoms: C_20  and  C_22
REMARK                            x       y       z     vdW  Elec       q    Type
REMARK                         _______ _______ _______ _____ _____    ______ ____
ROOT
ATOM      1  C   UNL     1      45.534   6.435  11.300  0.00  0.00    +0.000 A 
ATOM      2  C   UNL     1      45.362   7.756  11.751  0.00  0.00    +0.000 A 
ATOM      3  C   UNL     1      46.207   8.311  12.730  0.00  0.00    +0.000 A 
ATOM      4  C   UNL     1      47.263   7.567  13.270  0.00  0.00    +0.000 A 
ATOM      5  C   UNL     1      47.431   6.248  12.837  0.00  0.00    +0.000 A 
ATOM      6  C   UNL     1      46.596   5.701  11.854  0.00  0.00    +0.000 A 
ENDROOT
BRANCH   1   7
ATOM      7  C   UNL     1      44.585   5.843  10.249  0.00  0.00    +0.000 C 
BRANCH   7   8
ATOM      8  N   UNL     1      45.369   5.204   9.171  0.00  0.00    +0.000 NA
ATOM      9  H   UNL     1      45.614   5.908   8.476  0.00  0.00    +0.000 HD
BRANCH   8  10
ATOM     10  C   UNL     1      44.675   4.105   8.489  0.00  0.00    +0.000 C 
BRANCH  10  11
ATOM     11  C   UNL     1      45.635   3.111   7.881  0.00  0.00    +0.000 A 
ATOM     12  C   UNL     1      46.502   3.520   6.856  0.00  0.00    +0.000 A 
ATOM     13  C   UNL     1      47.444   2.640   6.324  0.00  0.00    +0.000 A 
ATOM     14  C   UNL     1      47.537   1.341   6.820  0.00  0.00    +0.000 A 
ATOM     15  C   UNL     1      46.691   0.925   7.848  0.00  0.00    +0.000 A 
ATOM     16  C   UNL     1      45.746   1.806   8.380  0.00  0.00    +0.000 A 
ENDBRANCH  10  11
ENDBRANCH   8  10
ENDBRANCH   7   8
BRANCH   7  17
ATOM     17  C   UNL     1      43.566   4.834  10.836  0.00  0.00    +0.000 C 
BRANCH  17  18
ATOM     18  C   UNL     1      42.813   5.317  12.076  0.00  0.00    +0.000 C 
BRANCH  18  19
ATOM     19  C   UNL     1      43.033   4.317  13.211  0.00  0.00    +0.000 C 
BRANCH  19  20
ATOM     20  N   UNL     1      44.077   3.365  12.861  0.00  0.00    +0.000 NA
ATOM     21  H   UNL     1      44.963   3.864  12.776  0.00  0.00    +0.000 HD
ATOM     22  H   UNL     1      43.882   2.977  11.939  0.00  0.00    +0.000 HD
ENDBRANCH  19  20
ENDBRANCH  18  19
ENDBRANCH  17  18
ENDBRANCH   7  17
ENDBRANCH   1   7
BRANCH   4  23
ATOM     23  C   UNL     1      48.188   8.138  14.318  0.00  0.00    +0.000 C 
BRANCH  23  24
ATOM     24  N   UNL     1      48.090   7.399  15.548  0.00  0.00    +0.000 N 
ATOM     25  C   UNL     1      49.119   6.627  16.032  0.00  0.00    +0.000 C 
ATOM     26  O   UNL     1      50.209   6.552  15.470  0.00  0.00    +0.000 OA
ATOM     27  H   UNL     1      47.149   7.211  15.877  0.00  0.00    +0.000 HD
BRANCH  25  28
ATOM     28  C   UNL     1      48.860   5.962  17.315  0.00  0.00    +0.000 A 
ATOM     29  C   UNL     1      49.133   4.609  17.471  0.00  0.00    +0.000 A 
ATOM     30  S   UNL     1      48.870   4.043  19.061  0.00  0.00    +0.000 S 
ATOM     31  C   UNL     1      48.318   5.565  19.578  0.00  0.00    +0.000 A 
ATOM     32  N   UNL     1      47.915   5.778  20.860  0.00  0.00    +0.000 NA
ATOM     33  C   UNL     1      47.505   6.973  21.106  0.00  0.00    +0.000 A 
ATOM     34  N   UNL     1      47.452   7.986  20.181  0.00  0.00    +0.000 N 
ATOM     35  C   UNL     1      47.870   7.830  18.885  0.00  0.00    +0.000 A 
ATOM     36  O   UNL     1      47.852   8.765  18.096  0.00  0.00    +0.000 OA
ATOM     37  C   UNL     1      48.345   6.498  18.556  0.00  0.00    +0.000 A 
ATOM     38  H   UNL     1      47.126   8.910  20.437  0.00  0.00    +0.000 HD
ENDBRANCH  25  28
ENDBRANCH  23  24
ENDBRANCH   4  23
TORSDOF 11
ENDMDL
MODEL 3
REMARK VINA RESULT:    -6.764      3.493      9.126
REMARK INTER + INTRA:         -12.824
REMARK INTER:                 -10.515
REMARK INTRA:                  -2.309
REMARK UNBOUND:                -1.907
REMARK  Name = 
REMARK  11 active torsions:
REMARK  status: ('A' for Active; 'I' for Inactive)
REMARK    1  A    between atoms: N_1  and  C_2
REMARK    2  A    between atoms: C_2  and  C_3
REMARK    3  A    between atoms: C_3  and  C_4
REMARK    4  A    between atoms: C_4  and  C_5
REMARK    5  A    between atoms: C_5  and  N_6
REMARK    6  A    between atoms: C_5  and  C_14
REMARK    7  A    between atoms: N_6  and  C_7
REMARK    8  A    between atoms: C_7  and  C_8
REMARK    9  A    between atoms: C_17  and  C_18
REMARK   10  A    between atoms: C_18  and  N_19
REMARK   11  A    between atoms: C_20  and  C_22
REMARK                            x       y       z     vdW  Elec       q    Type
REMARK                         _______ _______ _______ _____ _____    ______ ____
ROOT
ATOM      1  C   UNL     1      49.914   5.153  17.236  0.00  0.00    +0.000 A 
ATOM      2  C   UNL     1      50.629   6.274  16.777  0.00  0.00    +0.000 A 
ATOM      3  C   UNL     1      50.101   7.123  15.787  0.00  0.00    +0.000 A 
ATOM      4  C   UNL     1      48.831   6.888  15.244  0.00  0.00    +0.000 A 
ATOM      5  C   UNL     1      48.121   5.768  15.685  0.00  0.00    +0.000 A 
ATOM      6  C   UNL     1      48.644   4.929  16.679  0.00  0.00    +0.000 A 
ENDROOT
BRANCH   1   7
ATOM      7  C   UNL     1      50.521   4.226  18.299  0.00  0.00    +0.000 C 
BRANCH   7   8
ATOM      8  N   UNL     1      49.587   4.092  19.436  0.00  0.00    +0.000 NA
ATOM      9  H   UNL     1      48.631   4.172  19.091  0.00  0.00    +0.000 HD
BRANCH   8  10
ATOM     10  C   UNL     1      49.779   5.088  20.497  0.00  0.00    +0.000 C 
BRANCH  10  11
ATOM     11  C   UNL     1      49.201   6.433  20.130  0.00  0.00    +0.000 A 
ATOM     12  C   UNL     1      50.014   7.576  20.181  0.00  0.00    +0.000 A 
ATOM     13  C   UNL     1      49.523   8.820  19.783  0.00  0.00    +0.000 A 
ATOM     14  C   UNL     1      48.214   8.932  19.320  0.00  0.00    +0.000 A 
ATOM     15  C   UNL     1      47.399   7.802  19.251  0.00  0.00    +0.000 A 
ATOM     16  C   UNL     1      47.890   6.557  19.650  0.00  0.00    +0.000 A 
ENDBRANCH  10  11
ENDBRANCH   8  10
ENDBRANCH   7   8
BRANCH   7  17
ATOM     17  C   UNL     1      50.901   2.827  17.753  0.00  0.00    +0.000 C 
BRANCH  17  18
ATOM     18  C   UNL     1      52.377   2.455  17.889  0.00  0.00    +0.000 C 
BRANCH  18  19
ATOM     19  C   UNL     1      52.563   1.000  17.457  0.00  0.00    +0.000 C 
BRANCH  19  20
ATOM     20  N   UNL     1      51.646   0.130  18.178  0.00  0.00    +0.000 NA
ATOM     21  H   UNL     1      51.131  -0.437  17.503  0.00  0.00    +0.000 HD
ATOM     22  H   UNL     1      50.951   0.698  18.659  0.00  0.00    +0.000 HD
ENDBRANCH  19  20
ENDBRANCH  18  19
ENDBRANCH  17  18
ENDBRANCH   7  17
ENDBRANCH   1   7
BRANCH   4  23
ATOM     23  C   UNL     1      48.238   7.786  14.185  0.00  0.00    +0.000 C 
BRANCH  23  24
ATOM     24  N   UNL     1      47.000   7.246  13.688  0.00  0.00    +0.000 N 
ATOM     25  C   UNL     1      46.794   6.971  12.357  0.00  0.00    +0.000 C 
ATOM     26  O   UNL     1      47.669   7.125  11.509  0.00  0.00    +0.000 OA
ATOM     27  H   UNL     1      46.191   7.373  14.286  0.00  0.00    +0.000 HD
BRANCH  25  28
ATOM     28  C   UNL     1      45.482   6.399  12.027  0.00  0.00    +0.000 A 
ATOM     29  C   UNL     1      44.482   7.202  11.493  0.00  0.00    +0.000 A 
ATOM     30  S   UNL     1      43.071   6.338  11.072  0.00  0.00    +0.000 S 
ATOM     31  C   UNL     1      43.719   4.876  11.652  0.00  0.00    +0.000 A 
ATOM     32  N   UNL     1      43.012   3.714  11.601  0.00  0.00    +0.000 NA
ATOM     33  C   UNL     1      43.620   2.691  12.091  0.00  0.00    +0.000 A 
ATOM     34  N   UNL     1      44.877   2.719  12.640  0.00  0.00    +0.000 N 
ATOM     35  C   UNL     1      45.640   3.856  12.692  0.00  0.00    +0.000 A 
ATOM     36  O   UNL     1      46.776   3.839  13.147  0.00  0.00    +0.000 OA
ATOM     37  C   UNL     1      45.001   5.041  12.148  0.00  0.00    +0.000 A 
ATOM     38  H   UNL     1      45.307   1.876  13.004  0.00  0.00    +0.000 HD
ENDBRANCH  25  28
ENDBRANCH  23  24
ENDBRANCH   4  23
TORSDOF 11
ENDMDL
MODEL 4
REMARK VINA RESULT:    -6.700      1.800      2.203
REMARK INTER + INTRA:         -12.721
REMARK INTER:                 -11.248
REMARK INTRA:                  -1.473
REMARK UNBOUND:                -1.907
REMARK  Name = 
REMARK  11 active torsions:
REMARK  status: ('A' for Active; 'I' for Inactive)
REMARK    1  A    between atoms: N_1  and  C_2
REMARK    2  A    between atoms: C_2  and  C_3
REMARK    3  A    between atoms: C_3  and  C_4
REMARK    4  A    between atoms: C_4  and  C_5
REMARK    5  A    between atoms: C_5  and  N_6
REMARK    6  A    between atoms: C_5  and  C_14
REMARK    7  A    between atoms: N_6  and  C_7
REMARK    8  A    between atoms: C_7  and  C_8
REMARK    9  A    between atoms: C_17  and  C_18
REMARK   10  A    between atoms: C_18  and  N_19
REMARK   11  A    between atoms: C_20  and  C_22
REMARK                            x       y       z     vdW  Elec       q    Type
REMARK                         _______ _______ _______ _____ _____    ______ ____
ROOT
ATOM      1  C   UNL     1      45.769   6.799  11.386  0.00  0.00    +0.000 A 
ATOM      2  C   UNL     1      47.152   6.741  11.637  0.00  0.00    +0.000 A 
ATOM      3  C   UNL     1      47.846   7.845  12.163  0.00  0.00    +0.000 A 
ATOM      4  C   UNL     1      47.173   9.034  12.476  0.00  0.00    +0.000 A 
ATOM      5  C   UNL     1      45.801   9.103  12.215  0.00  0.00    +0.000 A 
ATOM      6  C   UNL     1      45.109   7.997  11.702  0.00  0.00    +0.000 A 
ENDROOT
BRANCH   1   7
ATOM      7  C   UNL     1      45.037   5.589  10.788  0.00  0.00    +0.000 C 
BRANCH   7   8
ATOM      8  N   UNL     1      45.575   5.297   9.442  0.00  0.00    +0.000 NA
ATOM      9  H   UNL     1      45.607   6.161   8.903  0.00  0.00    +0.000 HD
BRANCH   8  10
ATOM     10  C   UNL     1      44.798   4.309   8.683  0.00  0.00    +0.000 C 
BRANCH  10  11
ATOM     11  C   UNL     1      45.676   3.268   8.032  0.00  0.00    +0.000 A 
ATOM     12  C   UNL     1      46.555   3.645   7.004  0.00  0.00    +0.000 A 
ATOM     13  C   UNL     1      47.424   2.716   6.432  0.00  0.00    +0.000 A 
ATOM     14  C   UNL     1      47.431   1.401   6.889  0.00  0.00    +0.000 A 
ATOM     15  C   UNL     1      46.573   1.015   7.919  0.00  0.00    +0.000 A 
ATOM     16  C   UNL     1      45.701   1.945   8.491  0.00  0.00    +0.000 A 
ENDBRANCH  10  11
ENDBRANCH   8  10
ENDBRANCH   7   8
BRANCH   7  17
ATOM     17  C   UNL     1      45.110   4.322  11.677  0.00  0.00    +0.000 C 
BRANCH  17  18
ATOM     18  C   UNL     1      43.875   4.061  12.539  0.00  0.00    +0.000 C 
BRANCH  18  19
ATOM     19  C   UNL     1      43.614   2.555  12.586  0.00  0.00    +0.000 C 
BRANCH  19  20
ATOM     20  N   UNL     1      42.863   2.127  11.415  0.00  0.00    +0.000 NA
ATOM     21  H   UNL     1      42.323   1.295  11.655  0.00  0.00    +0.000 HD
ATOM     22  H   UNL     1      43.513   1.841  10.684  0.00  0.00    +0.000 HD
ENDBRANCH  19  20
ENDBRANCH  18  19
ENDBRANCH  17  18
ENDBRANCH   7  17
ENDBRANCH   1   7
BRANCH   4  23
ATOM     23  C   UNL     1      47.892  10.232  13.046  0.00  0.00    +0.000 C 
BRANCH  23  24
ATOM     24  N   UNL     1      48.458   9.928  14.333  0.00  0.00    +0.000 N 
ATOM     25  C   UNL     1      49.811   9.792  14.533  0.00  0.00    +0.000 C 
ATOM     26  O   UNL     1      50.631   9.967  13.636  0.00  0.00    +0.000 OA
ATOM     27  H   UNL     1      47.825   9.508  15.006  0.00  0.00    +0.000 HD
BRANCH  25  28
ATOM     28  C   UNL     1      50.219   9.507  15.915  0.00  0.00    +0.000 A 
ATOM     29  C   UNL     1      50.615  10.539  16.756  0.00  0.00    +0.000 A 
ATOM     30  S   UNL     1      50.946  10.025  18.351  0.00  0.00    +0.000 S 
ATOM     31  C   UNL     1      50.640   8.400  17.956  0.00  0.00    +0.000 A 
ATOM     32  N   UNL     1      50.752   7.409  18.882  0.00  0.00    +0.000 NA
ATOM     33  C   UNL     1      50.508   6.225  18.439  0.00  0.00    +0.000 A 
ATOM     34  N   UNL     1      50.167   5.933  17.143  0.00  0.00    +0.000 N 
ATOM     35  C   UNL     1      50.016   6.895  16.179  0.00  0.00    +0.000 A 
ATOM     36  O   UNL     1      49.667   6.605  15.042  0.00  0.00    +0.000 OA
ATOM     37  C   UNL     1      50.278   8.250  16.628  0.00  0.00    +0.000 A 
ATOM     38  H   UNL     1      49.979   4.979  16.855  0.00  0.00    +0.000 HD
ENDBRANCH  25  28
ENDBRANCH  23  24
ENDBRANCH   4  23
TORSDOF 11
ENDMDL
MODEL 5
REMARK VINA RESULT:    -6.699      1.626      1.973
REMARK INTER + INTRA:         -12.718
REMARK INTER:                 -11.137
REMARK INTRA:                  -1.581
REMARK UNBOUND:                -1.907
REMARK  Name = 
REMARK  11 active torsions:
REMARK  status: ('A' for Active; 'I' for Inactive)
REMARK    1  A    between atoms: N_1  and  C_2
REMARK    2  A    between atoms: C_2  and  C_3
REMARK    3  A    between atoms: C_3  and  C_4
REMARK    4  A    between atoms: C_4  and  C_5
REMARK    5  A    between atoms: C_5  and  N_6
REMARK    6  A    between atoms: C_5  and  C_14
REMARK    7  A    between atoms: N_6  and  C_7
REMARK    8  A    between atoms: C_7  and  C_8
REMARK    9  A    between atoms: C_17  and  C_18
REMARK   10  A    between atoms: C_18  and  N_19
REMARK   11  A    between atoms: C_20  and  C_22
REMARK                            x       y       z     vdW  Elec       q    Type
REMARK                         _______ _______ _______ _____ _____    ______ ____
ROOT
ATOM      1  C   UNL     1      45.502   6.494  11.505  0.00  0.00    +0.000 A 
ATOM      2  C   UNL     1      46.740   5.942  11.881  0.00  0.00    +0.000 A 
ATOM      3  C   UNL     1      47.573   6.585  12.815  0.00  0.00    +0.000 A 
ATOM      4  C   UNL     1      47.183   7.788  13.417  0.00  0.00    +0.000 A 
ATOM      5  C   UNL     1      45.960   8.349  13.037  0.00  0.00    +0.000 A 
ATOM      6  C   UNL     1      45.126   7.702  12.115  0.00  0.00    +0.000 A 
ENDROOT
BRANCH   1   7
ATOM      7  C   UNL     1      44.620   5.788  10.466  0.00  0.00    +0.000 C 
BRANCH   7   8
ATOM      8  N   UNL     1      45.363   4.658   9.867  0.00  0.00    +0.000 NA
ATOM      9  H   UNL     1      46.361   4.796  10.026  0.00  0.00    +0.000 HD
BRANCH   8  10
ATOM     10  C   UNL     1      45.146   4.489   8.425  0.00  0.00    +0.000 C 
BRANCH  10  11
ATOM     11  C   UNL     1      45.857   3.275   7.878  0.00  0.00    +0.000 A 
ATOM     12  C   UNL     1      46.714   3.411   6.774  0.00  0.00    +0.000 A 
ATOM     13  C   UNL     1      47.434   2.319   6.291  0.00  0.00    +0.000 A 
ATOM     14  C   UNL     1      47.314   1.079   6.914  0.00  0.00    +0.000 A 
ATOM     15  C   UNL     1      46.477   0.933   8.021  0.00  0.00    +0.000 A 
ATOM     16  C   UNL     1      45.754   2.026   8.504  0.00  0.00    +0.000 A 
ENDBRANCH  10  11
ENDBRANCH   8  10
ENDBRANCH   7   8
BRANCH   7  17
ATOM     17  C   UNL     1      43.268   5.292  11.038  0.00  0.00    +0.000 C 
BRANCH  17  18
ATOM     18  C   UNL     1      43.236   3.820  11.446  0.00  0.00    +0.000 C 
BRANCH  18  19
ATOM     19  C   UNL     1      43.383   3.723  12.965  0.00  0.00    +0.000 C 
BRANCH  19  20
ATOM     20  N   UNL     1      42.865   4.921  13.608  0.00  0.00    +0.000 NA
ATOM     21  H   UNL     1      42.868   4.780  14.618  0.00  0.00    +0.000 HD
ATOM     22  H   UNL     1      41.889   5.049  13.344  0.00  0.00    +0.000 HD
ENDBRANCH  19  20
ENDBRANCH  18  19
ENDBRANCH  17  18
ENDBRANCH   7  17
ENDBRANCH   1   7
BRANCH   4  23
ATOM     23  C   UNL     1      48.055   8.496  14.425  0.00  0.00    +0.000 C 
BRANCH  23  24
ATOM     24  N   UNL     1      48.532   7.580  15.426  0.00  0.00    +0.000 N 
ATOM     25  C   UNL     1      48.560   7.894  16.763  0.00  0.00    +0.000 C 
ATOM     26  O   UNL     1      48.137   8.961  17.200  0.00  0.00    +0.000 OA
ATOM     27  H   UNL     1      49.134   6.835  15.092  0.00  0.00    +0.000 HD
BRANCH  25  28
ATOM     28  C   UNL     1      49.054   6.832  17.651  0.00  0.00    +0.000 A 
ATOM     29  C   UNL     1      48.277   6.390  18.714  0.00  0.00    +0.000 A 
ATOM     30  S   UNL     1      48.970   5.080  19.562  0.00  0.00    +0.000 S 
ATOM     31  C   UNL     1      50.361   5.103  18.584  0.00  0.00    +0.000 A 
ATOM     32  N   UNL     1      51.383   4.226  18.779  0.00  0.00    +0.000 NA
ATOM     33  C   UNL     1      52.379   4.370  17.977  0.00  0.00    +0.000 A 
ATOM     34  N   UNL     1      52.455   5.322  16.991  0.00  0.00    +0.000 N 
ATOM     35  C   UNL     1      51.444   6.211  16.737  0.00  0.00    +0.000 A 
ATOM     36  O   UNL     1      51.524   7.019  15.821  0.00  0.00    +0.000 OA
ATOM     37  C   UNL     1      50.294   6.089  17.614  0.00  0.00    +0.000 A 
ATOM     38  H   UNL     1      53.265   5.381  16.385  0.00  0.00    +0.000 HD
ENDBRANCH  25  28
ENDBRANCH  23  24
ENDBRANCH   4  23
TORSDOF 11
ENDMDL
MODEL 6
REMARK VINA RESULT:    -6.648      3.296      8.848
REMARK INTER + INTRA:         -12.637
REMARK INTER:                 -10.266
REMARK INTRA:                  -2.370
REMARK UNBOUND:                -1.907
REMARK  Name = 
REMARK  11 active torsions:
REMARK  status: ('A' for Active; 'I' for Inactive)
REMARK    1  A    between atoms: N_1  and  C_2
REMARK    2  A    between atoms: C_2  and  C_3
REMARK    3  A    between atoms: C_3  and  C_4
REMARK    4  A    between atoms: C_4  and  C_5
REMARK    5  A    between atoms: C_5  and  N_6
REMARK    6  A    between atoms: C_5  and  C_14
REMARK    7  A    between atoms: N_6  and  C_7
REMARK    8  A    between atoms: C_7  and  C_8
REMARK    9  A    between atoms: C_17  and  C_18
REMARK   10  A    between atoms: C_18  and  N_19
REMARK   11  A    between atoms: C_20  and  C_22
REMARK                            x       y       z     vdW  Elec       q    Type
REMARK                         _______ _______ _______ _____ _____    ______ ____
ROOT
ATOM      1  C   UNL     1      49.882   6.294  16.397  0.00  0.00    +0.000 A 
ATOM      2  C   UNL     1      50.642   7.175  15.605  0.00  0.00    +0.000 A 
ATOM      3  C   UNL     1      50.167   7.637  14.364  0.00  0.00    +0.000 A 
ATOM      4  C   UNL     1      48.906   7.251  13.890  0.00  0.00    +0.000 A 
ATOM      5  C   UNL     1      48.152   6.365  14.666  0.00  0.00    +0.000 A 
ATOM      6  C   UNL     1      48.623   5.914  15.906  0.00  0.00    +0.000 A 
ENDROOT
BRANCH   1   7
ATOM      7  C   UNL     1      50.433   5.783  17.736  0.00  0.00    +0.000 C 
BRANCH   7   8
ATOM      8  N   UNL     1      49.389   5.887  18.777  0.00  0.00    +0.000 NA
ATOM      9  H   UNL     1      48.473   5.904  18.328  0.00  0.00    +0.000 HD
BRANCH   8  10
ATOM     10  C   UNL     1      49.505   7.075  19.631  0.00  0.00    +0.000 C 
BRANCH  10  11
ATOM     11  C   UNL     1      49.217   8.352  18.879  0.00  0.00    +0.000 A 
ATOM     12  C   UNL     1      50.248   9.280  18.666  0.00  0.00    +0.000 A 
ATOM     13  C   UNL     1      50.024  10.435  17.917  0.00  0.00    +0.000 A 
ATOM     14  C   UNL     1      48.768  10.670  17.363  0.00  0.00    +0.000 A 
ATOM     15  C   UNL     1      47.738   9.749  17.555  0.00  0.00    +0.000 A 
ATOM     16  C   UNL     1      47.960   8.593  18.306  0.00  0.00    +0.000 A 
ENDBRANCH  10  11
ENDBRANCH   8  10
ENDBRANCH   7   8
BRANCH   7  17
ATOM     17  C   UNL     1      50.973   4.333  17.667  0.00  0.00    +0.000 C 
BRANCH  17  18
ATOM     18  C   UNL     1      49.945   3.241  17.962  0.00  0.00    +0.000 C 
BRANCH  18  19
ATOM     19  C   UNL     1      50.260   2.017  17.101  0.00  0.00    +0.000 C 
BRANCH  19  20
ATOM     20  N   UNL     1      49.358   1.947  15.961  0.00  0.00    +0.000 NA
ATOM     21  H   UNL     1      49.389   2.836  15.460  0.00  0.00    +0.000 HD
ATOM     22  H   UNL     1      48.400   1.845  16.295  0.00  0.00    +0.000 HD
ENDBRANCH  19  20
ENDBRANCH  18  19
ENDBRANCH  17  18
ENDBRANCH   7  17
ENDBRANCH   1   7
BRANCH   4  23
ATOM     23  C   UNL     1      48.369   7.736  12.565  0.00  0.00    +0.000 C 
BRANCH  23  24
ATOM     24  N   UNL     1      47.599   6.709  11.916  0.00  0.00    +0.000 N 
ATOM     25  C   UNL     1      46.281   6.883  11.564  0.00  0.00    +0.000 C 
ATOM     26  O   UNL     1      45.686   7.943  11.738  0.00  0.00    +0.000 OA
ATOM     27  H   UNL     1      47.952   5.764  12.014  0.00  0.00    +0.000 HD
BRANCH  25  28
ATOM     28  C   UNL     1      45.654   5.742  10.885  0.00  0.00    +0.000 A 
ATOM     29  C   UNL     1      45.819   5.562   9.517  0.00  0.00    +0.000 A 
ATOM     30  S   UNL     1      45.109   4.124   8.931  0.00  0.00    +0.000 S 
ATOM     31  C   UNL     1      44.496   3.728  10.467  0.00  0.00    +0.000 A 
ATOM     32  N   UNL     1      43.765   2.598  10.672  0.00  0.00    +0.000 NA
ATOM     33  C   UNL     1      43.352   2.435  11.880  0.00  0.00    +0.000 A 
ATOM     34  N   UNL     1      43.595   3.305  12.913  0.00  0.00    +0.000 N 
ATOM     35  C   UNL     1      44.345   4.442  12.765  0.00  0.00    +0.000 A 
ATOM     36  O   UNL     1      44.582   5.175  13.716  0.00  0.00    +0.000 OA
ATOM     37  C   UNL     1      44.839   4.673  11.419  0.00  0.00    +0.000 A 
ATOM     38  H   UNL     1      43.248   3.118  13.846  0.00  0.00    +0.000 HD
ENDBRANCH  25  28
ENDBRANCH  23  24
ENDBRANCH   4  23
TORSDOF 11
ENDMDL
MODEL 7
REMARK VINA RESULT:    -6.318      2.960      8.584
REMARK INTER + INTRA:         -12.104
REMARK INTER:                  -9.846
REMARK INTRA:                  -2.258
REMARK UNBOUND:                -1.907
REMARK  Name = 
REMARK  11 active torsions:
REMARK  status: ('A' for Active; 'I' for Inactive)
REMARK    1  A    between atoms: N_1  and  C_2
REMARK    2  A    between atoms: C_2  and  C_3
REMARK    3  A    between atoms: C_3  and  C_4
REMARK    4  A    between atoms: C_4  and  C_5
REMARK    5  A    between atoms: C_5  and  N_6
REMARK    6  A    between atoms: C_5  and  C_14
REMARK    7  A    between atoms: N_6  and  C_7
REMARK    8  A    between atoms: C_7  and  C_8
REMARK    9  A    between atoms: C_17  and  C_18
REMARK   10  A    between atoms: C_18  and  N_19
REMARK   11  A    between atoms: C_20  and  C_22
REMARK                            x       y       z     vdW  Elec       q    Type
REMARK                         _______ _______ _______ _____ _____    ______ ____
ROOT
ATOM      1  C   UNL     1      48.985   7.933  16.193  0.00  0.00    +0.000 A 
ATOM      2  C   UNL     1      48.403   9.074  15.610  0.00  0.00    +0.000 A 
ATOM      3  C   UNL     1      47.927   9.057  14.287  0.00  0.00    +0.000 A 
ATOM      4  C   UNL     1      48.000   7.891  13.513  0.00  0.00    +0.000 A 
ATOM      5  C   UNL     1      48.591   6.758  14.081  0.00  0.00    +0.000 A 
ATOM      6  C   UNL     1      49.054   6.773  15.404  0.00  0.00    +0.000 A 
ENDROOT
BRANCH   1   7
ATOM      7  C   UNL     1      49.520   7.983  17.631  0.00  0.00    +0.000 C 
BRANCH   7   8
ATOM      8  N   UNL     1      48.846   6.952  18.449  0.00  0.00    +0.000 NA
ATOM      9  H   UNL     1      48.452   7.393  19.279  0.00  0.00    +0.000 HD
BRANCH   8  10
ATOM     10  C   UNL     1      49.723   5.856  18.881  0.00  0.00    +0.000 C 
BRANCH  10  11
ATOM     11  C   UNL     1      49.414   4.562  18.168  0.00  0.00    +0.000 A 
ATOM     12  C   UNL     1      48.096   4.284  17.772  0.00  0.00    +0.000 A 
ATOM     13  C   UNL     1      47.796   3.127  17.053  0.00  0.00    +0.000 A 
ATOM     14  C   UNL     1      48.813   2.238  16.713  0.00  0.00    +0.000 A 
ATOM     15  C   UNL     1      50.129   2.509  17.088  0.00  0.00    +0.000 A 
ATOM     16  C   UNL     1      50.431   3.666  17.809  0.00  0.00    +0.000 A 
ENDBRANCH  10  11
ENDBRANCH   8  10
ENDBRANCH   7   8
BRANCH   7  17
ATOM     17  C   UNL     1      51.057   7.816  17.724  0.00  0.00    +0.000 C 
BRANCH  17  18
ATOM     18  C   UNL     1      51.869   8.780  16.859  0.00  0.00    +0.000 C 
BRANCH  18  19
ATOM     19  C   UNL     1      52.979   7.999  16.154  0.00  0.00    +0.000 C 
BRANCH  19  20
ATOM     20  N   UNL     1      52.502   7.457  14.891  0.00  0.00    +0.000 NA
ATOM     21  H   UNL     1      52.752   6.469  14.840  0.00  0.00    +0.000 HD
ATOM     22  H   UNL     1      52.992   7.913  14.122  0.00  0.00    +0.000 HD
ENDBRANCH  19  20
ENDBRANCH  18  19
ENDBRANCH  17  18
ENDBRANCH   7  17
ENDBRANCH   1   7
BRANCH   4  23
ATOM     23  C   UNL     1      47.493   7.843  12.092  0.00  0.00    +0.000 C 
BRANCH  23  24
ATOM     24  N   UNL     1      46.806   6.606  11.833  0.00  0.00    +0.000 N 
ATOM     25  C   UNL     1      45.468   6.434  12.097  0.00  0.00    +0.000 C 
ATOM     26  O   UNL     1      44.758   7.339  12.528  0.00  0.00    +0.000 OA
ATOM     27  H   UNL     1      47.392   5.783  11.754  0.00  0.00    +0.000 HD
BRANCH  25  28
ATOM     28  C   UNL     1      44.920   5.117  11.748  0.00  0.00    +0.000 A 
ATOM     29  C   UNL     1      44.232   4.370  12.695  0.00  0.00    +0.000 A 
ATOM     30  S   UNL     1      43.577   2.921  12.073  0.00  0.00    +0.000 S 
ATOM     31  C   UNL     1      44.248   3.206  10.537  0.00  0.00    +0.000 A 
ATOM     32  N   UNL     1      44.074   2.329   9.510  0.00  0.00    +0.000 NA
ATOM     33  C   UNL     1      44.653   2.664   8.410  0.00  0.00    +0.000 A 
ATOM     34  N   UNL     1      45.403   3.800   8.238  0.00  0.00    +0.000 N 
ATOM     35  C   UNL     1      45.588   4.726   9.230  0.00  0.00    +0.000 A 
ATOM     36  O   UNL     1      46.225   5.751   9.031  0.00  0.00    +0.000 OA
ATOM     37  C   UNL     1      44.952   4.397  10.494  0.00  0.00    +0.000 A 
ATOM     38  H   UNL     1      45.829   4.013   7.343  0.00  0.00    +0.000 HD
ENDBRANCH  25  28
ENDBRANCH  23  24
ENDBRANCH   4  23
TORSDOF 11
ENDMDL
MODEL 8
REMARK VINA RESULT:    -6.165      3.497      8.675
REMARK INTER + INTRA:         -11.857
REMARK INTER:                  -8.919
REMARK INTRA:                  -2.938
REMARK UNBOUND:                -1.907
REMARK  Name = 
REMARK  11 active torsions:
REMARK  status: ('A' for Active; 'I' for Inactive)
REMARK    1  A    between atoms: N_1  and  C_2
REMARK    2  A    between atoms: C_2  and  C_3
REMARK    3  A    between atoms: C_3  and  C_4
REMARK    4  A    between atoms: C_4  and  C_5
REMARK    5  A    between atoms: C_5  and  N_6
REMARK    6  A    between atoms: C_5  and  C_14
REMARK    7  A    between atoms: N_6  and  C_7
REMARK    8  A    between atoms: C_7  and  C_8
REMARK    9  A    between atoms: C_17  and  C_18
REMARK   10  A    between atoms: C_18  and  N_19
REMARK   11  A    between atoms: C_20  and  C_22
REMARK                            x       y       z     vdW  Elec       q    Type
REMARK                         _______ _______ _______ _____ _____    ______ ____
ROOT
ATOM      1  C   UNL     1      49.626   7.732  18.471  0.00  0.00    +0.000 A 
ATOM      2  C   UNL     1      50.272   7.184  17.348  0.00  0.00    +0.000 A 
ATOM      3  C   UNL     1      49.831   7.462  16.042  0.00  0.00    +0.000 A 
ATOM      4  C   UNL     1      48.743   8.316  15.819  0.00  0.00    +0.000 A 
ATOM      5  C   UNL     1      48.086   8.853  16.931  0.00  0.00    +0.000 A 
ATOM      6  C   UNL     1      48.535   8.583  18.232  0.00  0.00    +0.000 A 
ENDROOT
BRANCH   1   7
ATOM      7  C   UNL     1      50.110   7.393  19.888  0.00  0.00    +0.000 C 
BRANCH   7   8
ATOM      8  N   UNL     1      50.099   5.928  20.082  0.00  0.00    +0.000 NA
ATOM      9  H   UNL     1      50.636   5.490  19.334  0.00  0.00    +0.000 HD
BRANCH   8  10
ATOM     10  C   UNL     1      48.758   5.331  20.095  0.00  0.00    +0.000 C 
BRANCH  10  11
ATOM     11  C   UNL     1      48.476   4.528  18.848  0.00  0.00    +0.000 A 
ATOM     12  C   UNL     1      47.336   4.814  18.081  0.00  0.00    +0.000 A 
ATOM     13  C   UNL     1      47.088   4.133  16.889  0.00  0.00    +0.000 A 
ATOM     14  C   UNL     1      47.985   3.164  16.445  0.00  0.00    +0.000 A 
ATOM     15  C   UNL     1      49.130   2.880  17.190  0.00  0.00    +0.000 A 
ATOM     16  C   UNL     1      49.377   3.560  18.384  0.00  0.00    +0.000 A 
ENDBRANCH  10  11
ENDBRANCH   8  10
ENDBRANCH   7   8
BRANCH   7  17
ATOM     17  C   UNL     1      51.514   7.962  20.212  0.00  0.00    +0.000 C 
BRANCH  17  18
ATOM     18  C   UNL     1      52.548   6.928  20.656  0.00  0.00    +0.000 C 
BRANCH  18  19
ATOM     19  C   UNL     1      53.452   6.590  19.469  0.00  0.00    +0.000 C 
BRANCH  19  20
ATOM     20  N   UNL     1      53.019   5.357  18.830  0.00  0.00    +0.000 NA
ATOM     21  H   UNL     1      52.338   5.583  18.105  0.00  0.00    +0.000 HD
ATOM     22  H   UNL     1      52.526   4.780  19.510  0.00  0.00    +0.000 HD
ENDBRANCH  19  20
ENDBRANCH  18  19
ENDBRANCH  17  18
ENDBRANCH   7  17
ENDBRANCH   1   7
BRANCH   4  23
ATOM     23  C   UNL     1      48.251   8.637  14.429  0.00  0.00    +0.000 C 
BRANCH  23  24
ATOM     24  N   UNL     1      47.287   7.665  13.987  0.00  0.00    +0.000 N 
ATOM     25  C   UNL     1      47.629   6.586  13.207  0.00  0.00    +0.000 C 
ATOM     26  O   UNL     1      48.788   6.353  12.873  0.00  0.00    +0.000 OA
ATOM     27  H   UNL     1      46.319   7.966  13.997  0.00  0.00    +0.000 HD
BRANCH  25  28
ATOM     28  C   UNL     1      46.526   5.677  12.868  0.00  0.00    +0.000 A 
ATOM     29  C   UNL     1      46.632   4.317  13.130  0.00  0.00    +0.000 A 
ATOM     30  S   UNL     1      45.210   3.444  12.769  0.00  0.00    +0.000 S 
ATOM     31  C   UNL     1      44.429   4.837  12.186  0.00  0.00    +0.000 A 
ATOM     32  N   UNL     1      43.156   4.791  11.703  0.00  0.00    +0.000 NA
ATOM     33  C   UNL     1      42.698   5.916  11.280  0.00  0.00    +0.000 A 
ATOM     34  N   UNL     1      43.400   7.096  11.285  0.00  0.00    +0.000 N 
ATOM     35  C   UNL     1      44.672   7.201  11.782  0.00  0.00    +0.000 A 
ATOM     36  O   UNL     1      45.255   8.277  11.814  0.00  0.00    +0.000 OA
ATOM     37  C   UNL     1      45.236   5.957  12.276  0.00  0.00    +0.000 A 
ATOM     38  H   UNL     1      42.982   7.953  10.943  0.00  0.00    +0.000 HD
ENDBRANCH  25  28
ENDBRANCH  23  24
ENDBRANCH   4  23
TORSDOF 11
ENDMDL
MODEL 9
REMARK VINA RESULT:    -6.164      3.884      5.224
REMARK INTER + INTRA:         -11.854
REMARK INTER:                 -10.666
REMARK INTRA:                  -1.189
REMARK UNBOUND:                -1.907
REMARK  Name = 
REMARK  11 active torsions:
REMARK  status: ('A' for Active; 'I' for Inactive)
REMARK    1  A    between atoms: N_1  and  C_2
REMARK    2  A    between atoms: C_2  and  C_3
REMARK    3  A    between atoms: C_3  and  C_4
REMARK    4  A    between atoms: C_4  and  C_5
REMARK    5  A    between atoms: C_5  and  N_6
REMARK    6  A    between atoms: C_5  and  C_14
REMARK    7  A    between atoms: N_6  and  C_7
REMARK    8  A    between atoms: C_7  and  C_8
REMARK    9  A    between atoms: C_17  and  C_18
REMARK   10  A    between atoms: C_18  and  N_19
REMARK   11  A    between atoms: C_20  and  C_22
REMARK                            x       y       z     vdW  Elec       q    Type
REMARK                         _______ _______ _______ _____ _____    ______ ____
ROOT
ATOM      1  C   UNL     1      45.314   6.780  11.381  0.00  0.00    +0.000 A 
ATOM      2  C   UNL     1      44.870   8.045  11.806  0.00  0.00    +0.000 A 
ATOM      3  C   UNL     1      45.741   8.952  12.437  0.00  0.00    +0.000 A 
ATOM      4  C   UNL     1      47.088   8.629  12.641  0.00  0.00    +0.000 A 
ATOM      5  C   UNL     1      47.533   7.367  12.233  0.00  0.00    +0.000 A 
ATOM      6  C   UNL     1      46.667   6.469  11.595  0.00  0.00    +0.000 A 
ENDROOT
BRANCH   1   7
ATOM      7  C   UNL     1      44.339   5.797  10.718  0.00  0.00    +0.000 C 
BRANCH   7   8
ATOM      8  N   UNL     1      45.088   4.649  10.163  0.00  0.00    +0.000 NA
ATOM      9  H   UNL     1      46.061   4.923  10.028  0.00  0.00    +0.000 HD
BRANCH   8  10
ATOM     10  C   UNL     1      44.568   4.150   8.885  0.00  0.00    +0.000 C 
BRANCH  10  11
ATOM     11  C   UNL     1      45.514   3.177   8.223  0.00  0.00    +0.000 A 
ATOM     12  C   UNL     1      46.473   3.650   7.314  0.00  0.00    +0.000 A 
ATOM     13  C   UNL     1      47.401   2.781   6.740  0.00  0.00    +0.000 A 
ATOM     14  C   UNL     1      47.388   1.430   7.077  0.00  0.00    +0.000 A 
ATOM     15  C   UNL     1      46.449   0.949   7.990  0.00  0.00    +0.000 A 
ATOM     16  C   UNL     1      45.518   1.817   8.564  0.00  0.00    +0.000 A 
ENDBRANCH  10  11
ENDBRANCH   8  10
ENDBRANCH   7   8
BRANCH   7  17
ATOM     17  C   UNL     1      43.225   5.295  11.671  0.00  0.00    +0.000 C 
BRANCH  17  18
ATOM     18  C   UNL     1      43.712   4.781  13.026  0.00  0.00    +0.000 C 
BRANCH  18  19
ATOM     19  C   UNL     1      44.616   3.569  12.801  0.00  0.00    +0.000 C 
BRANCH  19  20
ATOM     20  N   UNL     1      43.830   2.411  12.402  0.00  0.00    +0.000 NA
ATOM     21  H   UNL     1      44.314   1.929  11.644  0.00  0.00    +0.000 HD
ATOM     22  H   UNL     1      42.941   2.724  12.016  0.00  0.00    +0.000 HD
ENDBRANCH  19  20
ENDBRANCH  18  19
ENDBRANCH  17  18
ENDBRANCH   7  17
ENDBRANCH   1   7
BRANCH   4  23
ATOM     23  C   UNL     1      48.046   9.584  13.309  0.00  0.00    +0.000 C 
BRANCH  23  24
ATOM     24  N   UNL     1      49.215   9.794  12.497  0.00  0.00    +0.000 N 
ATOM     25  C   UNL     1      50.486   9.814  13.020  0.00  0.00    +0.000 C 
ATOM     26  O   UNL     1      50.713   9.609  14.210  0.00  0.00    +0.000 OA
ATOM     27  H   UNL     1      49.055  10.237  11.599  0.00  0.00    +0.000 HD
BRANCH  25  28
ATOM     28  C   UNL     1      51.566  10.013  12.046  0.00  0.00    +0.000 A 
ATOM     29  C   UNL     1      52.296  11.196  12.040  0.00  0.00    +0.000 A 
ATOM     30  S   UNL     1      53.577  11.196  10.911  0.00  0.00    +0.000 S 
ATOM     31  C   UNL     1      53.160   9.649  10.344  0.00  0.00    +0.000 A 
ATOM     32  N   UNL     1      53.863   9.042   9.348  0.00  0.00    +0.000 NA
ATOM     33  C   UNL     1      53.425   7.881   9.008  0.00  0.00    +0.000 A 
ATOM     34  N   UNL     1      52.335   7.263   9.570  0.00  0.00    +0.000 N 
ATOM     35  C   UNL     1      51.611   7.819  10.591  0.00  0.00    +0.000 A 
ATOM     36  O   UNL     1      50.671   7.222  11.100  0.00  0.00    +0.000 OA
ATOM     37  C   UNL     1      52.066   9.131  11.015  0.00  0.00    +0.000 A 
ATOM     38  H   UNL     1      52.043   6.342   9.263  0.00  0.00    +0.000 HD
ENDBRANCH  25  28
ENDBRANCH  23  24
ENDBRANCH   4  23
TORSDOF 11
ENDMDL
