MODEL 1
REMARK VINA RESULT:    -8.033      0.000      0.000
REMARK INTER + INTRA:         -11.598
REMARK INTER:                 -10.851
REMARK INTRA:                  -0.748
REMARK UNBOUND:                -0.748
REMARK  Name = 
REMARK  6 active torsions:
REMARK  status: ('A' for Active; 'I' for Inactive)
REMARK    1  A    between atoms: C_2  and  C_4
REMARK    2  A    between atoms: C_7  and  C_8
REMARK    3  A    between atoms: C_8  and  O_9
REMARK    4  A    between atoms: O_9  and  C_10
REMARK    5  A    between atoms: C_14  and  O_15
REMARK    6  A    between atoms: O_15  and  C_16
REMARK                            x       y       z     vdW  Elec       q    Type
REMARK                         _______ _______ _______ _____ _____    ______ ____
ROOT
ATOM      1  C   UNL     1      43.868   4.389  10.239  0.00  0.00    +0.000 C 
ENDROOT
BRANCH   1   5
ATOM      2  C   UNL     1      46.633   2.451   7.520  0.00  0.00    +0.000 A 
ATOM      3  C   UNL     1      46.495   3.841   7.495  0.00  0.00    +0.000 A 
ATOM      4  C   UNL     1      45.599   4.474   8.364  0.00  0.00    +0.000 A 
ATOM      5  C   UNL     1      44.813   3.727   9.255  0.00  0.00    +0.000 A 
ATOM      6  C   UNL     1      44.958   2.330   9.269  0.00  0.00    +0.000 A 
ATOM      7  C   UNL     1      45.852   1.696   8.402  0.00  0.00    +0.000 A 
BRANCH   2   9
ATOM      8  N   UNL     1      48.733   2.377   6.286  0.00  0.00    +0.000 N 
ATOM      9  C   UNL     1      47.574   1.733   6.622  0.00  0.00    +0.000 C 
ATOM     10  O   UNL     1      47.350   0.594   6.229  0.00  0.00    +0.000 OA
ATOM     11  H   UNL     1      49.412   1.833   5.767  0.00  0.00    +0.000 HD
ATOM     12  H   UNL     1      49.064   3.190   6.785  0.00  0.00    +0.000 HD
ENDBRANCH   2   9
ENDBRANCH   1   5
BRANCH   1  13
ATOM     13  O   UNL     1      44.196   4.018  11.577  0.00  0.00    +0.000 OA
BRANCH  13  14
ATOM     14  C   UNL     1      45.250   4.661  12.167  0.00  0.00    +0.000 A 
ATOM     15  C   UNL     1      45.764   5.908  11.822  0.00  0.00    +0.000 A 
ATOM     16  C   UNL     1      46.853   6.435  12.527  0.00  0.00    +0.000 A 
ATOM     17  C   UNL     1      47.440   5.721  13.579  0.00  0.00    +0.000 A 
ATOM     18  C   UNL     1      46.926   4.475  13.923  0.00  0.00    +0.000 A 
ATOM     19  C   UNL     1      45.838   3.956  13.218  0.00  0.00    +0.000 A 
BRANCH  18  20
ATOM     20  O   UNL     1      47.362   3.678  14.951  0.00  0.00    +0.000 OA
BRANCH  20  21
ATOM     21  C   UNL     1      47.290   4.145  16.313  0.00  0.00    +0.000 C 
ATOM     22  C   UNL     1      48.574   4.664  16.980  0.00  0.00    +0.000 C 
ATOM     23  O   UNL     1      48.371   3.799  18.129  0.00  0.00    +0.000 OA
ATOM     24  C   UNL     1      47.401   3.032  17.371  0.00  0.00    +0.000 C 
ENDBRANCH  20  21
ENDBRANCH  18  20
ENDBRANCH  13  14
ENDBRANCH   1  13
TORSDOF 6
ENDMDL
MODEL 2
REMARK VINA RESULT:    -7.222      2.175      3.343
REMARK INTER + INTRA:         -10.503
REMARK INTER:                  -9.640
REMARK INTRA:                  -0.863
REMARK UNBOUND:                -0.748
REMARK  Name = 
REMARK  6 active torsions:
REMARK  status: ('A' for Active; 'I' for Inactive)
REMARK    1  A    between atoms: C_2  and  C_4
REMARK    2  A    between atoms: C_7  and  C_8
REMARK    3  A    between atoms: C_8  and  O_9
REMARK    4  A    between atoms: O_9  and  C_10
REMARK    5  A    between atoms: C_14  and  O_15
REMARK    6  A    between atoms: O_15  and  C_16
REMARK                            x       y       z     vdW  Elec       q    Type
REMARK                         _______ _______ _______ _____ _____    ______ ____
ROOT
ATOM      1  C   UNL     1      43.703   4.500  10.301  0.00  0.00    +0.000 C 
ENDROOT
BRANCH   1   5
ATOM      2  C   UNL     1      46.507   2.476   7.688  0.00  0.00    +0.000 A 
ATOM      3  C   UNL     1      46.415   3.870   7.660  0.00  0.00    +0.000 A 
ATOM      4  C   UNL     1      45.506   4.531   8.494  0.00  0.00    +0.000 A 
ATOM      5  C   UNL     1      44.664   3.809   9.354  0.00  0.00    +0.000 A 
ATOM      6  C   UNL     1      44.764   2.408   9.372  0.00  0.00    +0.000 A 
ATOM      7  C   UNL     1      45.670   1.746   8.539  0.00  0.00    +0.000 A 
BRANCH   2   9
ATOM      8  N   UNL     1      48.574   2.398   6.398  0.00  0.00    +0.000 N 
ATOM      9  C   UNL     1      47.460   1.729   6.826  0.00  0.00    +0.000 C 
ATOM     10  O   UNL     1      47.285   0.551   6.542  0.00  0.00    +0.000 OA
ATOM     11  H   UNL     1      49.265   1.844   5.907  0.00  0.00    +0.000 HD
ATOM     12  H   UNL     1      48.875   3.267   6.813  0.00  0.00    +0.000 HD
ENDBRANCH   2   9
ENDBRANCH   1   5
BRANCH   1  13
ATOM     13  O   UNL     1      43.847   3.987  11.625  0.00  0.00    +0.000 OA
BRANCH  13  14
ATOM     14  C   UNL     1      44.977   4.332  12.314  0.00  0.00    +0.000 A 
ATOM     15  C   UNL     1      45.837   3.469  12.989  0.00  0.00    +0.000 A 
ATOM     16  C   UNL     1      46.962   3.979  13.650  0.00  0.00    +0.000 A 
ATOM     17  C   UNL     1      47.236   5.351  13.643  0.00  0.00    +0.000 A 
ATOM     18  C   UNL     1      46.377   6.212  12.968  0.00  0.00    +0.000 A 
ATOM     19  C   UNL     1      45.259   5.699  12.309  0.00  0.00    +0.000 A 
BRANCH  18  20
ATOM     20  O   UNL     1      46.535   7.569  12.836  0.00  0.00    +0.000 OA
BRANCH  20  21
ATOM     21  C   UNL     1      47.829   8.172  13.030  0.00  0.00    +0.000 C 
ATOM     22  C   UNL     1      47.930   9.706  13.041  0.00  0.00    +0.000 C 
ATOM     23  O   UNL     1      48.998   9.681  12.057  0.00  0.00    +0.000 OA
ATOM     24  C   UNL     1      48.666   8.304  11.744  0.00  0.00    +0.000 C 
ENDBRANCH  20  21
ENDBRANCH  18  20
ENDBRANCH  13  14
ENDBRANCH   1  13
TORSDOF 6
ENDMDL
MODEL 3
REMARK VINA RESULT:    -6.573      4.610     10.059
REMARK INTER + INTRA:          -9.626
REMARK INTER:                  -8.910
REMARK INTRA:                  -0.716
REMARK UNBOUND:                -0.748
REMARK  Name = 
REMARK  6 active torsions:
REMARK  status: ('A' for Active; 'I' for Inactive)
REMARK    1  A    between atoms: C_2  and  C_4
REMARK    2  A    between atoms: C_7  and  C_8
REMARK    3  A    between atoms: C_8  and  O_9
REMARK    4  A    between atoms: O_9  and  C_10
REMARK    5  A    between atoms: C_14  and  O_15
REMARK    6  A    between atoms: O_15  and  C_16
REMARK                            x       y       z     vdW  Elec       q    Type
REMARK                         _______ _______ _______ _____ _____    ______ ____
ROOT
ATOM      1  C   UNL     1      47.853   2.139   5.754  0.00  0.00    +0.000 C 
ENDROOT
BRANCH   1   5
ATOM      2  C   UNL     1      45.098   3.036   8.978  0.00  0.00    +0.000 A 
ATOM      3  C   UNL     1      45.570   1.731   8.812  0.00  0.00    +0.000 A 
ATOM      4  C   UNL     1      46.453   1.432   7.768  0.00  0.00    +0.000 A 
ATOM      5  C   UNL     1      46.862   2.425   6.865  0.00  0.00    +0.000 A 
ATOM      6  C   UNL     1      46.378   3.732   7.040  0.00  0.00    +0.000 A 
ATOM      7  C   UNL     1      45.495   4.033   8.081  0.00  0.00    +0.000 A 
BRANCH   2   9
ATOM      8  N   UNL     1      43.968   2.485  11.066  0.00  0.00    +0.000 N 
ATOM      9  C   UNL     1      44.163   3.405  10.073  0.00  0.00    +0.000 C 
ATOM     10  O   UNL     1      43.620   4.502  10.115  0.00  0.00    +0.000 OA
ATOM     11  H   UNL     1      43.418   2.793  11.858  0.00  0.00    +0.000 HD
ATOM     12  H   UNL     1      44.580   1.693  11.197  0.00  0.00    +0.000 HD
ENDBRANCH   2   9
ENDBRANCH   1   5
BRANCH   1  13
ATOM     13  O   UNL     1      47.807   0.762   5.382  0.00  0.00    +0.000 OA
BRANCH  13  14
ATOM     14  C   UNL     1      47.020   0.425   4.315  0.00  0.00    +0.000 A 
ATOM     15  C   UNL     1      46.300   1.297   3.503  0.00  0.00    +0.000 A 
ATOM     16  C   UNL     1      45.536   0.794   2.441  0.00  0.00    +0.000 A 
ATOM     17  C   UNL     1      45.483  -0.581   2.185  0.00  0.00    +0.000 A 
ATOM     18  C   UNL     1      46.203  -1.451   2.997  0.00  0.00    +0.000 A 
ATOM     19  C   UNL     1      46.964  -0.944   4.052  0.00  0.00    +0.000 A 
BRANCH  18  20
ATOM     20  O   UNL     1      46.285  -2.812   2.847  0.00  0.00    +0.000 OA
BRANCH  20  21
ATOM     21  C   UNL     1      47.218  -3.576   3.637  0.00  0.00    +0.000 C 
ATOM     22  C   UNL     1      47.980  -4.729   2.963  0.00  0.00    +0.000 C 
ATOM     23  O   UNL     1      47.593  -5.650   4.017  0.00  0.00    +0.000 OA
ATOM     24  C   UNL     1      46.575  -4.712   4.453  0.00  0.00    +0.000 C 
ENDBRANCH  20  21
ENDBRANCH  18  20
ENDBRANCH  13  14
ENDBRANCH   1  13
TORSDOF 6
ENDMDL
MODEL 4
REMARK VINA RESULT:    -6.494      2.563      4.168
REMARK INTER + INTRA:          -9.519
REMARK INTER:                  -8.829
REMARK INTRA:                  -0.691
REMARK UNBOUND:                -0.748
REMARK  Name = 
REMARK  6 active torsions:
REMARK  status: ('A' for Active; 'I' for Inactive)
REMARK    1  A    between atoms: C_2  and  C_4
REMARK    2  A    between atoms: C_7  and  C_8
REMARK    3  A    between atoms: C_8  and  O_9
REMARK    4  A    between atoms: O_9  and  C_10
REMARK    5  A    between atoms: C_14  and  O_15
REMARK    6  A    between atoms: O_15  and  C_16
REMARK                            x       y       z     vdW  Elec       q    Type
REMARK                         _______ _______ _______ _____ _____    ______ ____
ROOT
ATOM      1  C   UNL     1      44.277   2.469  10.071  0.00  0.00    +0.000 C 
ENDROOT
BRANCH   1   5
ATOM      2  C   UNL     1      46.721   2.037   6.517  0.00  0.00    +0.000 A 
ATOM      3  C   UNL     1      46.661   0.997   7.448  0.00  0.00    +0.000 A 
ATOM      4  C   UNL     1      45.881   1.132   8.603  0.00  0.00    +0.000 A 
ATOM      5  C   UNL     1      45.166   2.314   8.853  0.00  0.00    +0.000 A 
ATOM      6  C   UNL     1      45.236   3.353   7.911  0.00  0.00    +0.000 A 
ATOM      7  C   UNL     1      46.015   3.221   6.759  0.00  0.00    +0.000 A 
BRANCH   2   9
ATOM      8  N   UNL     1      48.359   2.989   4.983  0.00  0.00    +0.000 N 
ATOM      9  C   UNL     1      47.531   1.940   5.274  0.00  0.00    +0.000 C 
ATOM     10  O   UNL     1      47.497   0.946   4.559  0.00  0.00    +0.000 OA
ATOM     11  H   UNL     1      48.983   2.859   4.197  0.00  0.00    +0.000 HD
ATOM     12  H   UNL     1      48.600   3.692   5.665  0.00  0.00    +0.000 HD
ENDBRANCH   2   9
ENDBRANCH   1   5
BRANCH   1  13
ATOM     13  O   UNL     1      44.142   3.846  10.421  0.00  0.00    +0.000 OA
BRANCH  13  14
ATOM     14  C   UNL     1      44.837   4.288  11.514  0.00  0.00    +0.000 A 
ATOM     15  C   UNL     1      45.634   3.521  12.360  0.00  0.00    +0.000 A 
ATOM     16  C   UNL     1      46.286   4.124  13.443  0.00  0.00    +0.000 A 
ATOM     17  C   UNL     1      46.146   5.495  13.691  0.00  0.00    +0.000 A 
ATOM     18  C   UNL     1      45.350   6.260  12.845  0.00  0.00    +0.000 A 
ATOM     19  C   UNL     1      44.704   5.654  11.766  0.00  0.00    +0.000 A 
BRANCH  18  20
ATOM     20  O   UNL     1      45.151   7.614  12.932  0.00  0.00    +0.000 OA
BRANCH  20  21
ATOM     21  C   UNL     1      45.513   8.474  11.834  0.00  0.00    +0.000 C 
ATOM     22  C   UNL     1      46.120   9.851  12.148  0.00  0.00    +0.000 C 
ATOM     23  O   UNL     1      45.162  10.513  11.280  0.00  0.00    +0.000 OA
ATOM     24  C   UNL     1      44.349   9.312  11.275  0.00  0.00    +0.000 C 
ENDBRANCH  20  21
ENDBRANCH  18  20
ENDBRANCH  13  14
ENDBRANCH   1  13
TORSDOF 6
ENDMDL
MODEL 5
REMARK VINA RESULT:    -6.464      2.920      7.976
REMARK INTER + INTRA:          -9.479
REMARK INTER:                  -9.024
REMARK INTRA:                  -0.454
REMARK UNBOUND:                -0.748
REMARK  Name = 
REMARK  6 active torsions:
REMARK  status: ('A' for Active; 'I' for Inactive)
REMARK    1  A    between atoms: C_2  and  C_4
REMARK    2  A    between atoms: C_7  and  C_8
REMARK    3  A    between atoms: C_8  and  O_9
REMARK    4  A    between atoms: O_9  and  C_10
REMARK    5  A    between atoms: C_14  and  O_15
REMARK    6  A    between atoms: O_15  and  C_16
REMARK                            x       y       z     vdW  Elec       q    Type
REMARK                         _______ _______ _______ _____ _____    ______ ____
ROOT
ATOM      1  C   UNL     1      46.549   6.504  11.329  0.00  0.00    +0.000 C 
ENDROOT
BRANCH   1   5
ATOM      2  C   UNL     1      47.876   5.441  15.316  0.00  0.00    +0.000 A 
ATOM      3  C   UNL     1      46.966   4.619  14.646  0.00  0.00    +0.000 A 
ATOM      4  C   UNL     1      46.526   4.960  13.362  0.00  0.00    +0.000 A 
ATOM      5  C   UNL     1      46.973   6.135  12.737  0.00  0.00    +0.000 A 
ATOM      6  C   UNL     1      47.885   6.954  13.421  0.00  0.00    +0.000 A 
ATOM      7  C   UNL     1      48.326   6.616  14.704  0.00  0.00    +0.000 A 
BRANCH   2   9
ATOM      8  N   UNL     1      47.706   5.667  17.737  0.00  0.00    +0.000 N 
ATOM      9  C   UNL     1      48.377   5.120  16.678  0.00  0.00    +0.000 C 
ATOM     10  O   UNL     1      49.324   4.363  16.856  0.00  0.00    +0.000 OA
ATOM     11  H   UNL     1      47.989   5.350  18.657  0.00  0.00    +0.000 HD
ATOM     12  H   UNL     1      46.788   6.076  17.643  0.00  0.00    +0.000 HD
ENDBRANCH   2   9
ENDBRANCH   1   5
BRANCH   1  13
ATOM     13  O   UNL     1      45.190   6.135  11.101  0.00  0.00    +0.000 OA
BRANCH  13  14
ATOM     14  C   UNL     1      44.959   4.955  10.448  0.00  0.00    +0.000 A 
ATOM     15  C   UNL     1      44.191   3.887  10.904  0.00  0.00    +0.000 A 
ATOM     16  C   UNL     1      44.049   2.740  10.113  0.00  0.00    +0.000 A 
ATOM     17  C   UNL     1      44.674   2.649   8.863  0.00  0.00    +0.000 A 
ATOM     18  C   UNL     1      45.440   3.717   8.409  0.00  0.00    +0.000 A 
ATOM     19  C   UNL     1      45.577   4.859   9.200  0.00  0.00    +0.000 A 
BRANCH  18  20
ATOM     20  O   UNL     1      46.075   3.795   7.195  0.00  0.00    +0.000 OA
BRANCH  20  21
ATOM     21  C   UNL     1      46.428   2.593   6.481  0.00  0.00    +0.000 C 
ATOM     22  C   UNL     1      47.622   1.764   6.984  0.00  0.00    +0.000 C 
ATOM     23  O   UNL     1      48.217   1.748   5.659  0.00  0.00    +0.000 OA
ATOM     24  C   UNL     1      47.334   2.827   5.258  0.00  0.00    +0.000 C 
ENDBRANCH  20  21
ENDBRANCH  18  20
ENDBRANCH  13  14
ENDBRANCH   1  13
TORSDOF 6
ENDMDL
MODEL 6
REMARK VINA RESULT:    -6.362      3.387      8.483
REMARK INTER + INTRA:          -9.340
REMARK INTER:                  -8.831
REMARK INTRA:                  -0.509
REMARK UNBOUND:                -0.748
REMARK  Name = 
REMARK  6 active torsions:
REMARK  status: ('A' for Active; 'I' for Inactive)
REMARK    1  A    between atoms: C_2  and  C_4
REMARK    2  A    between atoms: C_7  and  C_8
REMARK    3  A    between atoms: C_8  and  O_9
REMARK    4  A    between atoms: O_9  and  C_10
REMARK    5  A    between atoms: C_14  and  O_15
REMARK    6  A    between atoms: O_15  and  C_16
REMARK                            x       y       z     vdW  Elec       q    Type
REMARK                         _______ _______ _______ _____ _____    ______ ____
ROOT
ATOM      1  C   UNL     1      46.786   4.748  14.113  0.00  0.00    +0.000 C 
ENDROOT
BRANCH   1   5
ATOM      2  C   UNL     1      48.638   4.479  18.023  0.00  0.00    +0.000 A 
ATOM      3  C   UNL     1      47.818   3.441  17.571  0.00  0.00    +0.000 A 
ATOM      4  C   UNL     1      47.210   3.525  16.313  0.00  0.00    +0.000 A 
ATOM      5  C   UNL     1      47.395   4.652  15.498  0.00  0.00    +0.000 A 
ATOM      6  C   UNL     1      48.219   5.689  15.965  0.00  0.00    +0.000 A 
ATOM      7  C   UNL     1      48.826   5.609  17.221  0.00  0.00    +0.000 A 
BRANCH   2   9
ATOM      8  N   UNL     1      48.622   3.859  20.381  0.00  0.00    +0.000 N 
ATOM      9  C   UNL     1      49.310   4.435  19.348  0.00  0.00    +0.000 C 
ATOM     10  O   UNL     1      50.449   4.855  19.508  0.00  0.00    +0.000 OA
ATOM     11  H   UNL     1      49.135   3.737  21.245  0.00  0.00    +0.000 HD
ATOM     12  H   UNL     1      47.806   3.285  20.232  0.00  0.00    +0.000 HD
ENDBRANCH   2   9
ENDBRANCH   1   5
BRANCH   1  13
ATOM     13  O   UNL     1      45.450   4.247  14.116  0.00  0.00    +0.000 OA
BRANCH  13  14
ATOM     14  C   UNL     1      44.647   4.592  13.064  0.00  0.00    +0.000 A 
ATOM     15  C   UNL     1      43.304   4.954  13.126  0.00  0.00    +0.000 A 
ATOM     16  C   UNL     1      42.614   5.284  11.952  0.00  0.00    +0.000 A 
ATOM     17  C   UNL     1      43.258   5.253  10.710  0.00  0.00    +0.000 A 
ATOM     18  C   UNL     1      44.599   4.892  10.649  0.00  0.00    +0.000 A 
ATOM     19  C   UNL     1      45.283   4.566  11.822  0.00  0.00    +0.000 A 
BRANCH  18  20
ATOM     20  O   UNL     1      45.375   4.857   9.518  0.00  0.00    +0.000 OA
BRANCH  20  21
ATOM     21  C   UNL     1      45.134   3.863   8.502  0.00  0.00    +0.000 C 
ATOM     22  C   UNL     1      45.341   2.382   8.859  0.00  0.00    +0.000 C 
ATOM     23  O   UNL     1      46.189   2.182   7.697  0.00  0.00    +0.000 OA
ATOM     24  C   UNL     1      46.326   3.619   7.559  0.00  0.00    +0.000 C 
ENDBRANCH  20  21
ENDBRANCH  18  20
ENDBRANCH  13  14
ENDBRANCH   1  13
TORSDOF 6
ENDMDL
MODEL 7
REMARK VINA RESULT:    -6.273      3.804      8.086
REMARK INTER + INTRA:          -9.221
REMARK INTER:                  -8.720
REMARK INTRA:                  -0.501
REMARK UNBOUND:                -0.748
REMARK  Name = 
REMARK  6 active torsions:
REMARK  status: ('A' for Active; 'I' for Inactive)
REMARK    1  A    between atoms: C_2  and  C_4
REMARK    2  A    between atoms: C_7  and  C_8
REMARK    3  A    between atoms: C_8  and  O_9
REMARK    4  A    between atoms: O_9  and  C_10
REMARK    5  A    between atoms: C_14  and  O_15
REMARK    6  A    between atoms: O_15  and  C_16
REMARK                            x       y       z     vdW  Elec       q    Type
REMARK                         _______ _______ _______ _____ _____    ______ ____
ROOT
ATOM      1  C   UNL     1      47.800   4.734  17.041  0.00  0.00    +0.000 C 
ENDROOT
BRANCH   1   5
ATOM      2  C   UNL     1      51.371   2.338  17.588  0.00  0.00    +0.000 A 
ATOM      3  C   UNL     1      51.411   3.711  17.846  0.00  0.00    +0.000 A 
ATOM      4  C   UNL     1      50.264   4.493  17.664  0.00  0.00    +0.000 A 
ATOM      5  C   UNL     1      49.068   3.920  17.203  0.00  0.00    +0.000 A 
ATOM      6  C   UNL     1      49.042   2.540  16.944  0.00  0.00    +0.000 A 
ATOM      7  C   UNL     1      50.185   1.757  17.124  0.00  0.00    +0.000 A 
BRANCH   2   9
ATOM      8  N   UNL     1      52.339   0.197  18.237  0.00  0.00    +0.000 N 
ATOM      9  C   UNL     1      52.559   1.464  17.771  0.00  0.00    +0.000 C 
ATOM     10  O   UNL     1      53.687   1.840  17.476  0.00  0.00    +0.000 OA
ATOM     11  H   UNL     1      53.143  -0.419  18.249  0.00  0.00    +0.000 HD
ATOM     12  H   UNL     1      51.423  -0.224  18.245  0.00  0.00    +0.000 HD
ENDBRANCH   2   9
ENDBRANCH   1   5
BRANCH   1  13
ATOM     13  O   UNL     1      47.049   4.275  15.918  0.00  0.00    +0.000 OA
BRANCH  13  14
ATOM     14  C   UNL     1      47.127   5.010  14.767  0.00  0.00    +0.000 A 
ATOM     15  C   UNL     1      48.042   6.021  14.484  0.00  0.00    +0.000 A 
ATOM     16  C   UNL     1      47.994   6.683  13.251  0.00  0.00    +0.000 A 
ATOM     17  C   UNL     1      47.031   6.345  12.293  0.00  0.00    +0.000 A 
ATOM     18  C   UNL     1      46.117   5.335  12.576  0.00  0.00    +0.000 A 
ATOM     19  C   UNL     1      46.172   4.676  13.805  0.00  0.00    +0.000 A 
BRANCH  18  20
ATOM     20  O   UNL     1      45.148   4.864  11.727  0.00  0.00    +0.000 OA
BRANCH  20  21
ATOM     21  C   UNL     1      44.779   3.470  11.748  0.00  0.00    +0.000 C 
ATOM     22  C   UNL     1      44.022   2.893  10.540  0.00  0.00    +0.000 C 
ATOM     23  O   UNL     1      42.996   2.334  11.403  0.00  0.00    +0.000 OA
ATOM     24  C   UNL     1      43.462   3.175  12.489  0.00  0.00    +0.000 C 
ENDBRANCH  20  21
ENDBRANCH  18  20
ENDBRANCH  13  14
ENDBRANCH   1  13
TORSDOF 6
ENDMDL
MODEL 8
REMARK VINA RESULT:    -6.211      3.487      7.790
REMARK INTER + INTRA:          -9.137
REMARK INTER:                  -8.684
REMARK INTRA:                  -0.453
REMARK UNBOUND:                -0.748
REMARK  Name = 
REMARK  6 active torsions:
REMARK  status: ('A' for Active; 'I' for Inactive)
REMARK    1  A    between atoms: C_2  and  C_4
REMARK    2  A    between atoms: C_7  and  C_8
REMARK    3  A    between atoms: C_8  and  O_9
REMARK    4  A    between atoms: O_9  and  C_10
REMARK    5  A    between atoms: C_14  and  O_15
REMARK    6  A    between atoms: O_15  and  C_16
REMARK                            x       y       z     vdW  Elec       q    Type
REMARK                         _______ _______ _______ _____ _____    ______ ____
ROOT
ATOM      1  C   UNL     1      45.698   5.874  12.272  0.00  0.00    +0.000 C 
ENDROOT
BRANCH   1   5
ATOM      2  C   UNL     1      49.506   7.761  13.124  0.00  0.00    +0.000 A 
ATOM      3  C   UNL     1      48.933   7.897  11.856  0.00  0.00    +0.000 A 
ATOM      4  C   UNL     1      47.708   7.284  11.571  0.00  0.00    +0.000 A 
ATOM      5  C   UNL     1      47.047   6.511  12.539  0.00  0.00    +0.000 A 
ATOM      6  C   UNL     1      47.635   6.379  13.808  0.00  0.00    +0.000 A 
ATOM      7  C   UNL     1      48.859   6.990  14.095  0.00  0.00    +0.000 A 
BRANCH   2   9
ATOM      8  N   UNL     1      51.661   7.675  14.260  0.00  0.00    +0.000 N 
ATOM      9  C   UNL     1      50.802   8.397  13.477  0.00  0.00    +0.000 C 
ATOM     10  O   UNL     1      51.116   9.502  13.052  0.00  0.00    +0.000 OA
ATOM     11  H   UNL     1      52.581   8.074  14.398  0.00  0.00    +0.000 HD
ATOM     12  H   UNL     1      51.550   6.683  14.412  0.00  0.00    +0.000 HD
ENDBRANCH   2   9
ENDBRANCH   1   5
BRANCH   1  13
ATOM     13  O   UNL     1      45.395   5.905  10.878  0.00  0.00    +0.000 OA
BRANCH  13  14
ATOM     14  C   UNL     1      45.126   4.711  10.267  0.00  0.00    +0.000 A 
ATOM     15  C   UNL     1      44.442   3.630  10.816  0.00  0.00    +0.000 A 
ATOM     16  C   UNL     1      44.244   2.469  10.058  0.00  0.00    +0.000 A 
ATOM     17  C   UNL     1      44.729   2.377   8.748  0.00  0.00    +0.000 A 
ATOM     18  C   UNL     1      45.412   3.457   8.200  0.00  0.00    +0.000 A 
ATOM     19  C   UNL     1      45.604   4.613   8.960  0.00  0.00    +0.000 A 
BRANCH  18  20
ATOM     20  O   UNL     1      45.906   3.535   6.922  0.00  0.00    +0.000 OA
BRANCH  20  21
ATOM     21  C   UNL     1      47.244   3.084   6.633  0.00  0.00    +0.000 C 
ATOM     22  C   UNL     1      47.548   2.541   5.227  0.00  0.00    +0.000 C 
ATOM     23  O   UNL     1      48.140   1.335   5.779  0.00  0.00    +0.000 OA
ATOM     24  C   UNL     1      47.530   1.633   7.061  0.00  0.00    +0.000 C 
ENDBRANCH  20  21
ENDBRANCH  18  20
ENDBRANCH  13  14
ENDBRANCH   1  13
TORSDOF 6
ENDMDL
MODEL 9
REMARK VINA RESULT:    -6.175      3.005      4.321
REMARK INTER + INTRA:          -9.089
REMARK INTER:                  -8.297
REMARK INTRA:                  -0.792
REMARK UNBOUND:                -0.748
REMARK  Name = 
REMARK  6 active torsions:
REMARK  status: ('A' for Active; 'I' for Inactive)
REMARK    1  A    between atoms: C_2  and  C_4
REMARK    2  A    between atoms: C_7  and  C_8
REMARK    3  A    between atoms: C_8  and  O_9
REMARK    4  A    between atoms: O_9  and  C_10
REMARK    5  A    between atoms: C_14  and  O_15
REMARK    6  A    between atoms: O_15  and  C_16
REMARK                            x       y       z     vdW  Elec       q    Type
REMARK                         _______ _______ _______ _____ _____    ______ ____
ROOT
ATOM      1  C   UNL     1      46.152   7.896  12.695  0.00  0.00    +0.000 C 
ENDROOT
BRANCH   1   5
ATOM      2  C   UNL     1      44.494   4.123  11.352  0.00  0.00    +0.000 A 
ATOM      3  C   UNL     1      45.076   4.993  10.426  0.00  0.00    +0.000 A 
ATOM      4  C   UNL     1      45.606   6.217  10.851  0.00  0.00    +0.000 A 
ATOM      5  C   UNL     1      45.545   6.598  12.200  0.00  0.00    +0.000 A 
ATOM      6  C   UNL     1      44.955   5.716  13.120  0.00  0.00    +0.000 A 
ATOM      7  C   UNL     1      44.425   4.494  12.699  0.00  0.00    +0.000 A 
BRANCH   2   9
ATOM      8  N   UNL     1      44.528   2.153   9.916  0.00  0.00    +0.000 N 
ATOM      9  C   UNL     1      43.922   2.810  10.951  0.00  0.00    +0.000 C 
ATOM     10  O   UNL     1      42.976   2.310  11.547  0.00  0.00    +0.000 OA
ATOM     11  H   UNL     1      44.198   1.214   9.730  0.00  0.00    +0.000 HD
ATOM     12  H   UNL     1      45.445   2.405   9.579  0.00  0.00    +0.000 HD
ENDBRANCH   2   9
ENDBRANCH   1   5
BRANCH   1  13
ATOM     13  O   UNL     1      47.561   7.757  12.870  0.00  0.00    +0.000 OA
BRANCH  13  14
ATOM     14  C   UNL     1      48.043   7.798  14.150  0.00  0.00    +0.000 A 
ATOM     15  C   UNL     1      48.219   8.932  14.938  0.00  0.00    +0.000 A 
ATOM     16  C   UNL     1      48.724   8.809  16.238  0.00  0.00    +0.000 A 
ATOM     17  C   UNL     1      49.060   7.554  16.761  0.00  0.00    +0.000 A 
ATOM     18  C   UNL     1      48.883   6.422  15.973  0.00  0.00    +0.000 A 
ATOM     19  C   UNL     1      48.377   6.550  14.678  0.00  0.00    +0.000 A 
BRANCH  18  20
ATOM     20  O   UNL     1      49.124   5.127  16.357  0.00  0.00    +0.000 OA
BRANCH  20  21
ATOM     21  C   UNL     1      48.311   4.507  17.373  0.00  0.00    +0.000 C 
ATOM     22  C   UNL     1      48.371   2.979  17.531  0.00  0.00    +0.000 C 
ATOM     23  O   UNL     1      46.924   2.878  17.468  0.00  0.00    +0.000 OA
ATOM     24  C   UNL     1      46.860   4.227  16.940  0.00  0.00    +0.000 C 
ENDBRANCH  20  21
ENDBRANCH  18  20
ENDBRANCH  13  14
ENDBRANCH   1  13
TORSDOF 6
ENDMDL
