MODEL 1
REMARK VINA RESULT:    -6.532      0.000      0.000
REMARK INTER + INTRA:          -9.294
REMARK INTER:                  -8.441
REMARK INTRA:                  -0.853
REMARK UNBOUND:                -0.853
REMARK  Name = 
REMARK  7 active torsions:
REMARK  status: ('A' for Active; 'I' for Inactive)
REMARK    1  A    between atoms: C_1  and  C_2
REMARK    2  A    between atoms: C_5  and  C_6
REMARK    3  A    between atoms: C_7  and  C_8
REMARK    4  A    between atoms: C_8  and  C_9
REMARK    5  A    between atoms: C_9  and  O_10
REMARK    6  A    between atoms: O_10  and  C_11
REMARK    7  A    between atoms: C_15  and  C_16
REMARK                            x       y       z     vdW  Elec       q    Type
REMARK                         _______ _______ _______ _____ _____    ______ ____
ROOT
ATOM      1  C   UNL     1      43.206   3.928  11.398  0.00  0.00    +0.000 C 
ENDROOT
BRANCH   1   2
ATOM      2  C   UNL     1      43.650   4.172  12.843  0.00  0.00    +0.000 C 
BRANCH   2   9
ATOM      3  C   UNL     1      45.270   8.922  12.487  0.00  0.00    +0.000 C 
ATOM      4  C   UNL     1      45.550   7.471  12.713  0.00  0.00    +0.000 A 
ATOM      5  C   UNL     1      46.830   7.015  12.969  0.00  0.00    +0.000 A 
ATOM      6  N   UNL     1      47.139   5.719  13.173  0.00  0.00    +0.000 NA
ATOM      7  C   UNL     1      46.134   4.806  13.142  0.00  0.00    +0.000 A 
ATOM      8  C   UNL     1      46.584   3.393  13.376  0.00  0.00    +0.000 C 
ATOM      9  C   UNL     1      44.798   5.160  12.907  0.00  0.00    +0.000 A 
ATOM     10  C   UNL     1      44.527   6.521  12.678  0.00  0.00    +0.000 A 
ENDBRANCH   2   9
ENDBRANCH   1   2
BRANCH   1  11
ATOM     11  O   UNL     1      43.882   2.800  10.813  0.00  0.00    +0.000 OA
BRANCH  11  12
ATOM     12  C   UNL     1      44.730   3.137   9.780  0.00  0.00    +0.000 A 
ATOM     13  C   UNL     1      45.027   4.455   9.418  0.00  0.00    +0.000 A 
ATOM     14  C   UNL     1      45.864   4.731   8.337  0.00  0.00    +0.000 A 
ATOM     15  C   UNL     1      46.431   3.687   7.613  0.00  0.00    +0.000 A 
ATOM     16  C   UNL     1      46.177   2.362   7.989  0.00  0.00    +0.000 A 
ATOM     17  C   UNL     1      45.335   2.089   9.079  0.00  0.00    +0.000 A 
BRANCH  16  18
ATOM     18  C   UNL     1      46.772   1.297   7.240  0.00  0.00    +0.000 C 
ATOM     19  N   UNL     1      47.252   0.414   6.652  0.00  0.00    +0.000 NA
ENDBRANCH  16  18
ENDBRANCH  11  12
ENDBRANCH   1  11
TORSDOF 5
ENDMDL
MODEL 2
REMARK VINA RESULT:    -6.149      2.686      6.408
REMARK INTER + INTRA:          -8.799
REMARK INTER:                  -8.242
REMARK INTRA:                  -0.557
REMARK UNBOUND:                -0.853
REMARK  Name = 
REMARK  7 active torsions:
REMARK  status: ('A' for Active; 'I' for Inactive)
REMARK    1  A    between atoms: C_1  and  C_2
REMARK    2  A    between atoms: C_5  and  C_6
REMARK    3  A    between atoms: C_7  and  C_8
REMARK    4  A    between atoms: C_8  and  C_9
REMARK    5  A    between atoms: C_9  and  O_10
REMARK    6  A    between atoms: O_10  and  C_11
REMARK    7  A    between atoms: C_15  and  C_16
REMARK                            x       y       z     vdW  Elec       q    Type
REMARK                         _______ _______ _______ _____ _____    ______ ____
ROOT
ATOM      1  C   UNL     1      46.239   6.585  11.856  0.00  0.00    +0.000 C 
ENDROOT
BRANCH   1   2
ATOM      2  C   UNL     1      44.847   6.359  11.260  0.00  0.00    +0.000 C 
BRANCH   2   9
ATOM      3  C   UNL     1      46.157   3.622   7.248  0.00  0.00    +0.000 C 
ATOM      4  C   UNL     1      45.419   3.754   8.541  0.00  0.00    +0.000 A 
ATOM      5  C   UNL     1      44.671   2.711   9.054  0.00  0.00    +0.000 A 
ATOM      6  N   UNL     1      43.981   2.779  10.210  0.00  0.00    +0.000 NA
ATOM      7  C   UNL     1      44.035   3.932  10.925  0.00  0.00    +0.000 A 
ATOM      8  C   UNL     1      43.230   3.906  12.191  0.00  0.00    +0.000 C 
ATOM      9  C   UNL     1      44.777   5.046  10.505  0.00  0.00    +0.000 A 
ATOM     10  C   UNL     1      45.461   4.937   9.282  0.00  0.00    +0.000 A 
ENDBRANCH   2   9
ENDBRANCH   1   2
BRANCH   1  11
ATOM     11  O   UNL     1      46.798   5.371  12.387  0.00  0.00    +0.000 OA
BRANCH  11  12
ATOM     12  C   UNL     1      47.313   5.508  13.659  0.00  0.00    +0.000 A 
ATOM     13  C   UNL     1      48.158   6.552  14.046  0.00  0.00    +0.000 A 
ATOM     14  C   UNL     1      48.678   6.614  15.338  0.00  0.00    +0.000 A 
ATOM     15  C   UNL     1      48.342   5.636  16.269  0.00  0.00    +0.000 A 
ATOM     16  C   UNL     1      47.464   4.606  15.909  0.00  0.00    +0.000 A 
ATOM     17  C   UNL     1      46.942   4.549  14.607  0.00  0.00    +0.000 A 
BRANCH  16  18
ATOM     18  C   UNL     1      47.122   3.609  16.879  0.00  0.00    +0.000 C 
ATOM     19  N   UNL     1      46.824   2.815  17.677  0.00  0.00    +0.000 NA
ENDBRANCH  16  18
ENDBRANCH  11  12
ENDBRANCH   1  11
TORSDOF 5
ENDMDL
MODEL 3
REMARK VINA RESULT:    -6.029      1.756      2.678
REMARK INTER + INTRA:          -8.644
REMARK INTER:                  -8.059
REMARK INTRA:                  -0.585
REMARK UNBOUND:                -0.853
REMARK  Name = 
REMARK  7 active torsions:
REMARK  status: ('A' for Active; 'I' for Inactive)
REMARK    1  A    between atoms: C_1  and  C_2
REMARK    2  A    between atoms: C_5  and  C_6
REMARK    3  A    between atoms: C_7  and  C_8
REMARK    4  A    between atoms: C_8  and  C_9
REMARK    5  A    between atoms: C_9  and  O_10
REMARK    6  A    between atoms: O_10  and  C_11
REMARK    7  A    between atoms: C_15  and  C_16
REMARK                            x       y       z     vdW  Elec       q    Type
REMARK                         _______ _______ _______ _____ _____    ______ ____
ROOT
ATOM      1  C   UNL     1      45.829   5.326   9.350  0.00  0.00    +0.000 C 
ENDROOT
BRANCH   1   2
ATOM      2  C   UNL     1      44.909   5.617  10.538  0.00  0.00    +0.000 C 
BRANCH   2   9
ATOM      3  C   UNL     1      48.403   6.804  13.956  0.00  0.00    +0.000 C 
ATOM      4  C   UNL     1      47.307   5.905  13.482  0.00  0.00    +0.000 A 
ATOM      5  C   UNL     1      46.916   4.799  14.214  0.00  0.00    +0.000 A 
ATOM      6  N   UNL     1      45.939   3.953  13.830  0.00  0.00    +0.000 NA
ATOM      7  C   UNL     1      45.288   4.206  12.666  0.00  0.00    +0.000 A 
ATOM      8  C   UNL     1      44.225   3.203  12.328  0.00  0.00    +0.000 C 
ATOM      9  C   UNL     1      45.594   5.308  11.855  0.00  0.00    +0.000 A 
ATOM     10  C   UNL     1      46.634   6.151  12.284  0.00  0.00    +0.000 A 
ENDBRANCH   2   9
ENDBRANCH   1   2
BRANCH   1  11
ATOM     11  O   UNL     1      45.127   4.677   8.275  0.00  0.00    +0.000 OA
BRANCH  11  12
ATOM     12  C   UNL     1      45.600   3.415   7.985  0.00  0.00    +0.000 A 
ATOM     13  C   UNL     1      45.488   2.325   8.854  0.00  0.00    +0.000 A 
ATOM     14  C   UNL     1      46.023   1.082   8.520  0.00  0.00    +0.000 A 
ATOM     15  C   UNL     1      46.663   0.908   7.297  0.00  0.00    +0.000 A 
ATOM     16  C   UNL     1      46.746   1.977   6.398  0.00  0.00    +0.000 A 
ATOM     17  C   UNL     1      46.205   3.227   6.738  0.00  0.00    +0.000 A 
BRANCH  16  18
ATOM     18  C   UNL     1      47.402   1.783   5.140  0.00  0.00    +0.000 C 
ATOM     19  N   UNL     1      47.937   1.598   4.122  0.00  0.00    +0.000 NA
ENDBRANCH  16  18
ENDBRANCH  11  12
ENDBRANCH   1  11
TORSDOF 5
ENDMDL
MODEL 4
REMARK VINA RESULT:    -5.940      1.644      2.342
REMARK INTER + INTRA:          -8.530
REMARK INTER:                  -8.052
REMARK INTRA:                  -0.477
REMARK UNBOUND:                -0.853
REMARK  Name = 
REMARK  7 active torsions:
REMARK  status: ('A' for Active; 'I' for Inactive)
REMARK    1  A    between atoms: C_1  and  C_2
REMARK    2  A    between atoms: C_5  and  C_6
REMARK    3  A    between atoms: C_7  and  C_8
REMARK    4  A    between atoms: C_8  and  C_9
REMARK    5  A    between atoms: C_9  and  O_10
REMARK    6  A    between atoms: O_10  and  C_11
REMARK    7  A    between atoms: C_15  and  C_16
REMARK                            x       y       z     vdW  Elec       q    Type
REMARK                         _______ _______ _______ _____ _____    ______ ____
ROOT
ATOM      1  C   UNL     1      44.258   6.183  11.230  0.00  0.00    +0.000 C 
ENDROOT
BRANCH   1   2
ATOM      2  C   UNL     1      44.752   6.508  12.643  0.00  0.00    +0.000 C 
BRANCH   2   9
ATOM      3  C   UNL     1      48.835   9.288  11.687  0.00  0.00    +0.000 C 
ATOM      4  C   UNL     1      48.217   8.022  12.190  0.00  0.00    +0.000 A 
ATOM      5  C   UNL     1      48.992   6.986  12.676  0.00  0.00    +0.000 A 
ATOM      6  N   UNL     1      48.488   5.823  13.134  0.00  0.00    +0.000 NA
ATOM      7  C   UNL     1      47.140   5.661  13.135  0.00  0.00    +0.000 A 
ATOM      8  C   UNL     1      46.683   4.331  13.659  0.00  0.00    +0.000 C 
ATOM      9  C   UNL     1      46.261   6.654  12.680  0.00  0.00    +0.000 A 
ATOM     10  C   UNL     1      46.832   7.842  12.190  0.00  0.00    +0.000 A 
ENDBRANCH   2   9
ENDBRANCH   1   2
BRANCH   1  11
ATOM     11  O   UNL     1      45.347   5.892  10.336  0.00  0.00    +0.000 OA
BRANCH  11  12
ATOM     12  C   UNL     1      45.263   4.649   9.747  0.00  0.00    +0.000 A 
ATOM     13  C   UNL     1      44.624   3.553  10.335  0.00  0.00    +0.000 A 
ATOM     14  C   UNL     1      44.607   2.309   9.706  0.00  0.00    +0.000 A 
ATOM     15  C   UNL     1      45.218   2.150   8.466  0.00  0.00    +0.000 A 
ATOM     16  C   UNL     1      45.826   3.247   7.845  0.00  0.00    +0.000 A 
ATOM     17  C   UNL     1      45.839   4.498   8.481  0.00  0.00    +0.000 A 
BRANCH  16  18
ATOM     18  C   UNL     1      46.446   3.071   6.566  0.00  0.00    +0.000 C 
ATOM     19  N   UNL     1      46.937   2.951   5.517  0.00  0.00    +0.000 NA
ENDBRANCH  16  18
ENDBRANCH  11  12
ENDBRANCH   1  11
TORSDOF 5
ENDMDL
MODEL 5
REMARK VINA RESULT:    -5.606      2.416      3.879
REMARK INTER + INTRA:          -8.097
REMARK INTER:                  -7.656
REMARK INTRA:                  -0.441
REMARK UNBOUND:                -0.853
REMARK  Name = 
REMARK  7 active torsions:
REMARK  status: ('A' for Active; 'I' for Inactive)
REMARK    1  A    between atoms: C_1  and  C_2
REMARK    2  A    between atoms: C_5  and  C_6
REMARK    3  A    between atoms: C_7  and  C_8
REMARK    4  A    between atoms: C_8  and  C_9
REMARK    5  A    between atoms: C_9  and  O_10
REMARK    6  A    between atoms: O_10  and  C_11
REMARK    7  A    between atoms: C_15  and  C_16
REMARK                            x       y       z     vdW  Elec       q    Type
REMARK                         _______ _______ _______ _____ _____    ______ ____
ROOT
ATOM      1  C   UNL     1      45.241   6.037  13.175  0.00  0.00    +0.000 C 
ENDROOT
BRANCH   1   2
ATOM      2  C   UNL     1      46.672   5.530  12.978  0.00  0.00    +0.000 C 
BRANCH   2   9
ATOM      3  C   UNL     1      47.280   3.083  17.331  0.00  0.00    +0.000 C 
ATOM      4  C   UNL     1      47.655   4.198  16.408  0.00  0.00    +0.000 A 
ATOM      5  C   UNL     1      48.638   5.111  16.742  0.00  0.00    +0.000 A 
ATOM      6  N   UNL     1      49.010   6.137  15.951  0.00  0.00    +0.000 NA
ATOM      7  C   UNL     1      48.396   6.277  14.747  0.00  0.00    +0.000 A 
ATOM      8  C   UNL     1      48.878   7.451  13.947  0.00  0.00    +0.000 C 
ATOM      9  C   UNL     1      47.398   5.399  14.302  0.00  0.00    +0.000 A 
ATOM     10  C   UNL     1      47.027   4.356  15.170  0.00  0.00    +0.000 A 
ENDBRANCH   2   9
ENDBRANCH   1   2
BRANCH   1  11
ATOM     11  O   UNL     1      44.549   6.189  11.922  0.00  0.00    +0.000 OA
BRANCH  11  12
ATOM     12  C   UNL     1      44.502   5.035  11.171  0.00  0.00    +0.000 A 
ATOM     13  C   UNL     1      43.836   3.873  11.574  0.00  0.00    +0.000 A 
ATOM     14  C   UNL     1      43.857   2.723  10.786  0.00  0.00    +0.000 A 
ATOM     15  C   UNL     1      44.533   2.727   9.570  0.00  0.00    +0.000 A 
ATOM     16  C   UNL     1      45.169   3.895   9.133  0.00  0.00    +0.000 A 
ATOM     17  C   UNL     1      45.144   5.051   9.929  0.00  0.00    +0.000 A 
BRANCH  16  18
ATOM     18  C   UNL     1      45.857   3.888   7.876  0.00  0.00    +0.000 C 
ATOM     19  N   UNL     1      46.402   3.859   6.848  0.00  0.00    +0.000 NA
ENDBRANCH  16  18
ENDBRANCH  11  12
ENDBRANCH   1  11
TORSDOF 5
ENDMDL
MODEL 6
REMARK VINA RESULT:    -5.550      2.469      4.016
REMARK INTER + INTRA:          -8.025
REMARK INTER:                  -7.051
REMARK INTRA:                  -0.975
REMARK UNBOUND:                -0.853
REMARK  Name = 
REMARK  7 active torsions:
REMARK  status: ('A' for Active; 'I' for Inactive)
REMARK    1  A    between atoms: C_1  and  C_2
REMARK    2  A    between atoms: C_5  and  C_6
REMARK    3  A    between atoms: C_7  and  C_8
REMARK    4  A    between atoms: C_8  and  C_9
REMARK    5  A    between atoms: C_9  and  O_10
REMARK    6  A    between atoms: O_10  and  C_11
REMARK    7  A    between atoms: C_15  and  C_16
REMARK                            x       y       z     vdW  Elec       q    Type
REMARK                         _______ _______ _______ _____ _____    ______ ____
ROOT
ATOM      1  C   UNL     1      46.180   7.472  12.445  0.00  0.00    +0.000 C 
ENDROOT
BRANCH   1   2
ATOM      2  C   UNL     1      47.440   6.603  12.484  0.00  0.00    +0.000 C 
BRANCH   2   9
ATOM      3  C   UNL     1      49.562   7.731  16.903  0.00  0.00    +0.000 C 
ATOM      4  C   UNL     1      48.832   6.766  16.025  0.00  0.00    +0.000 A 
ATOM      5  C   UNL     1      48.475   5.508  16.477  0.00  0.00    +0.000 A 
ATOM      6  N   UNL     1      47.824   4.598  15.726  0.00  0.00    +0.000 NA
ATOM      7  C   UNL     1      47.483   4.937  14.456  0.00  0.00    +0.000 A 
ATOM      8  C   UNL     1      46.767   3.853  13.704  0.00  0.00    +0.000 C 
ATOM      9  C   UNL     1      47.782   6.190  13.903  0.00  0.00    +0.000 A 
ATOM     10  C   UNL     1      48.481   7.099  14.716  0.00  0.00    +0.000 A 
ENDBRANCH   2   9
ENDBRANCH   1   2
BRANCH   1  11
ATOM     11  O   UNL     1      45.329   7.133  11.335  0.00  0.00    +0.000 OA
BRANCH  11  12
ATOM     12  C   UNL     1      44.692   5.919  11.476  0.00  0.00    +0.000 A 
ATOM     13  C   UNL     1      43.776   5.637  12.493  0.00  0.00    +0.000 A 
ATOM     14  C   UNL     1      43.192   4.375  12.605  0.00  0.00    +0.000 A 
ATOM     15  C   UNL     1      43.507   3.382  11.683  0.00  0.00    +0.000 A 
ATOM     16  C   UNL     1      44.390   3.661  10.634  0.00  0.00    +0.000 A 
ATOM     17  C   UNL     1      44.973   4.933  10.524  0.00  0.00    +0.000 A 
BRANCH  16  18
ATOM     18  C   UNL     1      44.700   2.631   9.689  0.00  0.00    +0.000 C 
ATOM     19  N   UNL     1      44.978   1.792   8.930  0.00  0.00    +0.000 NA
ENDBRANCH  16  18
ENDBRANCH  11  12
ENDBRANCH   1  11
TORSDOF 5
ENDMDL
MODEL 7
REMARK VINA RESULT:    -5.532      4.287      6.173
REMARK INTER + INTRA:          -8.002
REMARK INTER:                  -7.512
REMARK INTRA:                  -0.490
REMARK UNBOUND:                -0.853
REMARK  Name = 
REMARK  7 active torsions:
REMARK  status: ('A' for Active; 'I' for Inactive)
REMARK    1  A    between atoms: C_1  and  C_2
REMARK    2  A    between atoms: C_5  and  C_6
REMARK    3  A    between atoms: C_7  and  C_8
REMARK    4  A    between atoms: C_8  and  C_9
REMARK    5  A    between atoms: C_9  and  O_10
REMARK    6  A    between atoms: O_10  and  C_11
REMARK    7  A    between atoms: C_15  and  C_16
REMARK                            x       y       z     vdW  Elec       q    Type
REMARK                         _______ _______ _______ _____ _____    ______ ____
ROOT
ATOM      1  C   UNL     1      47.083   3.937  15.382  0.00  0.00    +0.000 C 
ENDROOT
BRANCH   1   2
ATOM      2  C   UNL     1      47.365   4.168  16.869  0.00  0.00    +0.000 C 
BRANCH   2   9
ATOM      3  C   UNL     1      51.469   1.321  17.470  0.00  0.00    +0.000 C 
ATOM      4  C   UNL     1      50.812   2.665  17.468  0.00  0.00    +0.000 A 
ATOM      5  C   UNL     1      51.527   3.816  17.744  0.00  0.00    +0.000 A 
ATOM      6  N   UNL     1      50.984   5.050  17.762  0.00  0.00    +0.000 NA
ATOM      7  C   UNL     1      49.662   5.175  17.478  0.00  0.00    +0.000 A 
ATOM      8  C   UNL     1      49.156   6.588  17.531  0.00  0.00    +0.000 C 
ATOM      9  C   UNL     1      48.848   4.076  17.170  0.00  0.00    +0.000 A 
ATOM     10  C   UNL     1      49.453   2.807  17.184  0.00  0.00    +0.000 A 
ENDBRANCH   2   9
ENDBRANCH   1   2
BRANCH   1  11
ATOM     11  O   UNL     1      47.568   5.020  14.570  0.00  0.00    +0.000 OA
BRANCH  11  12
ATOM     12  C   UNL     1      46.867   5.189  13.395  0.00  0.00    +0.000 A 
ATOM     13  C   UNL     1      47.112   6.223  12.486  0.00  0.00    +0.000 A 
ATOM     14  C   UNL     1      46.342   6.363  11.332  0.00  0.00    +0.000 A 
ATOM     15  C   UNL     1      45.324   5.454  11.063  0.00  0.00    +0.000 A 
ATOM     16  C   UNL     1      45.093   4.388  11.941  0.00  0.00    +0.000 A 
ATOM     17  C   UNL     1      45.872   4.251  13.101  0.00  0.00    +0.000 A 
BRANCH  16  18
ATOM     18  C   UNL     1      44.045   3.456  11.650  0.00  0.00    +0.000 C 
ATOM     19  N   UNL     1      43.189   2.696  11.440  0.00  0.00    +0.000 NA
ENDBRANCH  16  18
ENDBRANCH  11  12
ENDBRANCH   1  11
TORSDOF 5
ENDMDL
MODEL 8
REMARK VINA RESULT:    -5.484      2.653      6.604
REMARK INTER + INTRA:          -7.941
REMARK INTER:                  -7.494
REMARK INTRA:                  -0.446
REMARK UNBOUND:                -0.853
REMARK  Name = 
REMARK  7 active torsions:
REMARK  status: ('A' for Active; 'I' for Inactive)
REMARK    1  A    between atoms: C_1  and  C_2
REMARK    2  A    between atoms: C_5  and  C_6
REMARK    3  A    between atoms: C_7  and  C_8
REMARK    4  A    between atoms: C_8  and  C_9
REMARK    5  A    between atoms: C_9  and  O_10
REMARK    6  A    between atoms: O_10  and  C_11
REMARK    7  A    between atoms: C_15  and  C_16
REMARK                            x       y       z     vdW  Elec       q    Type
REMARK                         _______ _______ _______ _____ _____    ______ ____
ROOT
ATOM      1  C   UNL     1      46.022   5.960  11.979  0.00  0.00    +0.000 C 
ENDROOT
BRANCH   1   2
ATOM      2  C   UNL     1      44.787   5.887  11.078  0.00  0.00    +0.000 C 
BRANCH   2   9
ATOM      3  C   UNL     1      46.249   3.492   6.904  0.00  0.00    +0.000 C 
ATOM      4  C   UNL     1      45.503   3.499   8.199  0.00  0.00    +0.000 A 
ATOM      5  C   UNL     1      44.811   2.385   8.639  0.00  0.00    +0.000 A 
ATOM      6  N   UNL     1      44.118   2.341   9.794  0.00  0.00    +0.000 NA
ATOM      7  C   UNL     1      44.108   3.447  10.583  0.00  0.00    +0.000 A 
ATOM      8  C   UNL     1      43.304   3.294  11.841  0.00  0.00    +0.000 C 
ATOM      9  C   UNL     1      44.789   4.624  10.240  0.00  0.00    +0.000 A 
ATOM     10  C   UNL     1      45.480   4.632   9.016  0.00  0.00    +0.000 A 
ENDBRANCH   2   9
ENDBRANCH   1   2
BRANCH   1  11
ATOM     11  O   UNL     1      47.065   6.761  11.395  0.00  0.00    +0.000 OA
BRANCH  11  12
ATOM     12  C   UNL     1      48.076   7.081  12.275  0.00  0.00    +0.000 A 
ATOM     13  C   UNL     1      49.220   7.800  11.915  0.00  0.00    +0.000 A 
ATOM     14  C   UNL     1      50.228   8.059  12.843  0.00  0.00    +0.000 A 
ATOM     15  C   UNL     1      50.093   7.616  14.155  0.00  0.00    +0.000 A 
ATOM     16  C   UNL     1      48.935   6.932  14.542  0.00  0.00    +0.000 A 
ATOM     17  C   UNL     1      47.923   6.674  13.605  0.00  0.00    +0.000 A 
BRANCH  16  18
ATOM     18  C   UNL     1      48.807   6.487  15.897  0.00  0.00    +0.000 C 
ATOM     19  N   UNL     1      48.692   6.149  17.006  0.00  0.00    +0.000 NA
ENDBRANCH  16  18
ENDBRANCH  11  12
ENDBRANCH   1  11
TORSDOF 5
ENDMDL
MODEL 9
REMARK VINA RESULT:    -5.436      3.963      7.227
REMARK INTER + INTRA:          -7.878
REMARK INTER:                  -7.443
REMARK INTRA:                  -0.435
REMARK UNBOUND:                -0.853
REMARK  Name = 
REMARK  7 active torsions:
REMARK  status: ('A' for Active; 'I' for Inactive)
REMARK    1  A    between atoms: C_1  and  C_2
REMARK    2  A    between atoms: C_5  and  C_6
REMARK    3  A    between atoms: C_7  and  C_8
REMARK    4  A    between atoms: C_8  and  C_9
REMARK    5  A    between atoms: C_9  and  O_10
REMARK    6  A    between atoms: O_10  and  C_11
REMARK    7  A    between atoms: C_15  and  C_16
REMARK                            x       y       z     vdW  Elec       q    Type
REMARK                         _______ _______ _______ _____ _____    ______ ____
ROOT
ATOM      1  C   UNL     1      47.044   3.969  14.442  0.00  0.00    +0.000 C 
ENDROOT
BRANCH   1   2
ATOM      2  C   UNL     1      46.776   5.348  13.835  0.00  0.00    +0.000 C 
BRANCH   2   9
ATOM      3  C   UNL     1      43.233   2.695  11.444  0.00  0.00    +0.000 C 
ATOM      4  C   UNL     1      43.863   4.009  11.779  0.00  0.00    +0.000 A 
ATOM      5  C   UNL     1      43.362   5.197  11.279  0.00  0.00    +0.000 A 
ATOM      6  N   UNL     1      43.895   6.406  11.543  0.00  0.00    +0.000 NA
ATOM      7  C   UNL     1      44.977   6.468  12.361  0.00  0.00    +0.000 A 
ATOM      8  C   UNL     1      45.495   7.859  12.587  0.00  0.00    +0.000 C 
ATOM      9  C   UNL     1      45.556   5.328  12.935  0.00  0.00    +0.000 A 
ATOM     10  C   UNL     1      44.980   4.086  12.614  0.00  0.00    +0.000 A 
ENDBRANCH   2   9
ENDBRANCH   1   2
BRANCH   1  11
ATOM     11  O   UNL     1      46.637   3.902  15.821  0.00  0.00    +0.000 OA
BRANCH  11  12
ATOM     12  C   UNL     1      47.690   3.931  16.711  0.00  0.00    +0.000 A 
ATOM     13  C   UNL     1      47.841   4.904  17.703  0.00  0.00    +0.000 A 
ATOM     14  C   UNL     1      48.949   4.901  18.549  0.00  0.00    +0.000 A 
ATOM     15  C   UNL     1      49.915   3.908  18.424  0.00  0.00    +0.000 A 
ATOM     16  C   UNL     1      49.757   2.902  17.463  0.00  0.00    +0.000 A 
ATOM     17  C   UNL     1      48.639   2.908  16.615  0.00  0.00    +0.000 A 
BRANCH  16  18
ATOM     18  C   UNL     1      50.756   1.882  17.349  0.00  0.00    +0.000 C 
ATOM     19  N   UNL     1      51.558   1.046  17.231  0.00  0.00    +0.000 NA
ENDBRANCH  16  18
ENDBRANCH  11  12
ENDBRANCH   1  11
TORSDOF 5
ENDMDL
