MODEL 1
REMARK VINA RESULT:    -7.834      0.000      0.000
REMARK INTER + INTRA:         -11.712
REMARK INTER:                 -10.582
REMARK INTRA:                  -1.130
REMARK UNBOUND:                -1.130
REMARK  Name = 
REMARK  6 active torsions:
REMARK  status: ('A' for Active; 'I' for Inactive)
REMARK    1  A    between atoms: C_2  and  C_19
REMARK    2  A    between atoms: N_3  and  C_4
REMARK    3  A    between atoms: C_4  and  C_5
REMARK    4  A    between atoms: C_8  and  C_9
REMARK    5  A    between atoms: C_9  and  N_10
REMARK    6  A    between atoms: N_10  and  C_11
REMARK                            x       y       z     vdW  Elec       q    Type
REMARK                         _______ _______ _______ _____ _____    ______ ____
ROOT
ATOM      1  C   UNL     1      47.299   8.555  13.167  0.00  0.00    +0.000 C 
ENDROOT
BRANCH   1   2
ATOM      2  C   UNL     1      46.443   7.517  12.517  0.00  0.00    +0.000 A 
ATOM      3  C   UNL     1      45.123   7.333  12.865  0.00  0.00    +0.000 A 
ATOM      4  N   UNL     1      44.330   6.389  12.321  0.00  0.00    +0.000 NA
ATOM      5  C   UNL     1      44.885   5.591  11.385  0.00  0.00    +0.000 A 
ATOM      6  N   UNL     1      46.178   5.663  10.998  0.00  0.00    +0.000 NA
ATOM      7  C   UNL     1      46.926   6.620  11.584  0.00  0.00    +0.000 A 
BRANCH   5   8
ATOM      8  C   UNL     1      43.981   4.587  10.682  0.00  0.00    +0.000 C 
BRANCH   8   9
ATOM      9  N   UNL     1      44.176   4.619   9.225  0.00  0.00    +0.000 N 
ATOM     10  H   UNL     1      44.387   5.562   8.904  0.00  0.00    +0.000 HD
BRANCH   9  11
ATOM     11  C   UNL     1      44.984   3.643   8.626  0.00  0.00    +0.000 A 
ATOM     12  C   UNL     1      45.940   3.923   7.655  0.00  0.00    +0.000 A 
ATOM     13  C   UNL     1      46.773   2.912   7.160  0.00  0.00    +0.000 A 
ATOM     14  C   UNL     1      46.637   1.638   7.676  0.00  0.00    +0.000 A 
ATOM     15  N   UNL     1      45.754   1.318   8.644  0.00  0.00    +0.000 NA
ATOM     16  C   UNL     1      44.972   2.328   9.101  0.00  0.00    +0.000 A 
ENDBRANCH   9  11
ENDBRANCH   8   9
ENDBRANCH   5   8
ENDBRANCH   1   2
BRANCH   1  19
ATOM     17  O   UNL     1      49.534   6.921  13.905  0.00  0.00    +0.000 OA
ATOM     18  C   UNL     1      48.705   7.264  14.737  0.00  0.00    +0.000 C 
ATOM     19  N   UNL     1      47.660   8.128  14.491  0.00  0.00    +0.000 N 
ATOM     20  H   UNL     1      46.928   8.172  15.183  0.00  0.00    +0.000 HD
BRANCH  18  21
ATOM     21  C   UNL     1      48.552   6.639  16.047  0.00  0.00    +0.000 A 
ATOM     22  C   UNL     1      48.977   7.235  17.220  0.00  0.00    +0.000 A 
ATOM     23  S   UNL     1      49.261   6.065  18.447  0.00  0.00    +0.000 S 
ATOM     24  C   UNL     1      48.677   4.801  17.460  0.00  0.00    +0.000 A 
ATOM     25  N   UNL     1      48.781   3.490  17.801  0.00  0.00    +0.000 NA
ATOM     26  C   UNL     1      48.239   2.677  16.953  0.00  0.00    +0.000 A 
ATOM     27  N   UNL     1      47.554   3.058  15.821  0.00  0.00    +0.000 N 
ATOM     28  C   UNL     1      47.421   4.370  15.434  0.00  0.00    +0.000 A 
ATOM     29  O   UNL     1      46.760   4.702  14.459  0.00  0.00    +0.000 OA
ATOM     30  C   UNL     1      48.128   5.294  16.295  0.00  0.00    +0.000 A 
ATOM     31  H   UNL     1      47.079   2.375  15.248  0.00  0.00    +0.000 HD
ENDBRANCH  18  21
ENDBRANCH   1  19
TORSDOF 6
ENDMDL
MODEL 2
REMARK VINA RESULT:    -7.593      1.641      1.814
REMARK INTER + INTRA:         -11.387
REMARK INTER:                 -10.643
REMARK INTRA:                  -0.743
REMARK UNBOUND:                -1.130
REMARK  Name = 
REMARK  6 active torsions:
REMARK  status: ('A' for Active; 'I' for Inactive)
REMARK    1  A    between atoms: C_2  and  C_19
REMARK    2  A    between atoms: N_3  and  C_4
REMARK    3  A    between atoms: C_4  and  C_5
REMARK    4  A    between atoms: C_8  and  C_9
REMARK    5  A    between atoms: C_9  and  N_10
REMARK    6  A    between atoms: N_10  and  C_11
REMARK                            x       y       z     vdW  Elec       q    Type
REMARK                         _______ _______ _______ _____ _____    ______ ____
ROOT
ATOM      1  C   UNL     1      47.636   6.874  13.820  0.00  0.00    +0.000 C 
ENDROOT
BRANCH   1   2
ATOM      2  C   UNL     1      46.763   5.899  13.099  0.00  0.00    +0.000 A 
ATOM      3  C   UNL     1      46.163   6.200  11.897  0.00  0.00    +0.000 A 
ATOM      4  N   UNL     1      45.349   5.356  11.234  0.00  0.00    +0.000 NA
ATOM      5  C   UNL     1      45.122   4.153  11.803  0.00  0.00    +0.000 A 
ATOM      6  N   UNL     1      45.630   3.772  12.996  0.00  0.00    +0.000 NA
ATOM      7  C   UNL     1      46.430   4.662  13.618  0.00  0.00    +0.000 A 
BRANCH   5   8
ATOM      8  C   UNL     1      44.289   3.146  11.023  0.00  0.00    +0.000 C 
BRANCH   8   9
ATOM      9  N   UNL     1      44.209   3.505   9.599  0.00  0.00    +0.000 N 
ATOM     10  H   UNL     1      44.080   4.508   9.480  0.00  0.00    +0.000 HD
BRANCH   9  11
ATOM     11  C   UNL     1      45.147   2.965   8.709  0.00  0.00    +0.000 A 
ATOM     12  C   UNL     1      45.893   3.728   7.817  0.00  0.00    +0.000 A 
ATOM     13  C   UNL     1      46.875   3.135   7.015  0.00  0.00    +0.000 A 
ATOM     14  C   UNL     1      47.101   1.779   7.149  0.00  0.00    +0.000 A 
ATOM     15  N   UNL     1      46.434   0.997   8.022  0.00  0.00    +0.000 NA
ATOM     16  C   UNL     1      45.497   1.613   8.786  0.00  0.00    +0.000 A 
ENDBRANCH   9  11
ENDBRANCH   8   9
ENDBRANCH   5   8
ENDBRANCH   1   2
BRANCH   1  19
ATOM     17  O   UNL     1      48.680   8.208  16.130  0.00  0.00    +0.000 OA
ATOM     18  C   UNL     1      48.743   6.991  16.026  0.00  0.00    +0.000 C 
ATOM     19  N   UNL     1      48.178   6.263  15.001  0.00  0.00    +0.000 N 
ATOM     20  H   UNL     1      48.470   5.302  14.905  0.00  0.00    +0.000 HD
BRANCH  18  21
ATOM     21  C   UNL     1      49.614   6.143  16.834  0.00  0.00    +0.000 A 
ATOM     22  C   UNL     1      50.852   6.556  17.293  0.00  0.00    +0.000 A 
ATOM     23  S   UNL     1      51.872   5.213  17.624  0.00  0.00    +0.000 S 
ATOM     24  C   UNL     1      50.618   4.103  17.299  0.00  0.00    +0.000 A 
ATOM     25  N   UNL     1      50.821   2.761  17.221  0.00  0.00    +0.000 NA
ATOM     26  C   UNL     1      49.745   2.073  17.016  0.00  0.00    +0.000 A 
ATOM     27  N   UNL     1      48.475   2.598  16.936  0.00  0.00    +0.000 N 
ATOM     28  C   UNL     1      48.218   3.947  17.011  0.00  0.00    +0.000 A 
ATOM     29  O   UNL     1      47.080   4.399  16.998  0.00  0.00    +0.000 OA
ATOM     30  C   UNL     1      49.417   4.752  17.111  0.00  0.00    +0.000 A 
ATOM     31  H   UNL     1      47.668   1.996  16.862  0.00  0.00    +0.000 HD
ENDBRANCH  18  21
ENDBRANCH   1  19
TORSDOF 6
ENDMDL
MODEL 3
REMARK VINA RESULT:    -7.429      1.867      2.605
REMARK INTER + INTRA:         -11.164
REMARK INTER:                 -10.326
REMARK INTRA:                  -0.837
REMARK UNBOUND:                -1.130
REMARK  Name = 
REMARK  6 active torsions:
REMARK  status: ('A' for Active; 'I' for Inactive)
REMARK    1  A    between atoms: C_2  and  C_19
REMARK    2  A    between atoms: N_3  and  C_4
REMARK    3  A    between atoms: C_4  and  C_5
REMARK    4  A    between atoms: C_8  and  C_9
REMARK    5  A    between atoms: C_9  and  N_10
REMARK    6  A    between atoms: N_10  and  C_11
REMARK                            x       y       z     vdW  Elec       q    Type
REMARK                         _______ _______ _______ _____ _____    ______ ____
ROOT
ATOM      1  C   UNL     1      47.412   7.130  13.121  0.00  0.00    +0.000 C 
ENDROOT
BRANCH   1   2
ATOM      2  C   UNL     1      46.531   6.166  12.395  0.00  0.00    +0.000 A 
ATOM      3  C   UNL     1      46.030   6.432  11.140  0.00  0.00    +0.000 A 
ATOM      4  N   UNL     1      45.211   5.599  10.469  0.00  0.00    +0.000 NA
ATOM      5  C   UNL     1      44.876   4.445  11.084  0.00  0.00    +0.000 A 
ATOM      6  N   UNL     1      45.282   4.104  12.327  0.00  0.00    +0.000 NA
ATOM      7  C   UNL     1      46.092   4.980  12.954  0.00  0.00    +0.000 A 
BRANCH   5   8
ATOM      8  C   UNL     1      44.037   3.443  10.303  0.00  0.00    +0.000 C 
BRANCH   8   9
ATOM      9  N   UNL     1      44.209   3.616   8.853  0.00  0.00    +0.000 N 
ATOM     10  H   UNL     1      44.168   4.600   8.593  0.00  0.00    +0.000 HD
BRANCH   9  11
ATOM     11  C   UNL     1      45.237   2.921   8.202  0.00  0.00    +0.000 A 
ATOM     12  C   UNL     1      46.125   3.513   7.311  0.00  0.00    +0.000 A 
ATOM     13  C   UNL     1      47.184   2.779   6.761  0.00  0.00    +0.000 A 
ATOM     14  C   UNL     1      47.336   1.461   7.144  0.00  0.00    +0.000 A 
ATOM     15  N   UNL     1      46.528   0.846   8.032  0.00  0.00    +0.000 NA
ATOM     16  C   UNL     1      45.520   1.596   8.546  0.00  0.00    +0.000 A 
ENDBRANCH   9  11
ENDBRANCH   8   9
ENDBRANCH   5   8
ENDBRANCH   1   2
BRANCH   1  19
ATOM     17  O   UNL     1      49.799   6.881  14.684  0.00  0.00    +0.000 OA
ATOM     18  C   UNL     1      48.710   6.574  15.148  0.00  0.00    +0.000 C 
ATOM     19  N   UNL     1      47.505   6.757  14.505  0.00  0.00    +0.000 N 
ATOM     20  H   UNL     1      46.703   6.279  14.888  0.00  0.00    +0.000 HD
BRANCH  18  21
ATOM     21  C   UNL     1      48.530   5.760  16.347  0.00  0.00    +0.000 A 
ATOM     22  C   UNL     1      48.058   4.461  16.312  0.00  0.00    +0.000 A 
ATOM     23  S   UNL     1      47.360   4.010  17.816  0.00  0.00    +0.000 S 
ATOM     24  C   UNL     1      47.822   5.485  18.540  0.00  0.00    +0.000 A 
ATOM     25  N   UNL     1      47.406   5.862  19.778  0.00  0.00    +0.000 NA
ATOM     26  C   UNL     1      47.897   6.989  20.182  0.00  0.00    +0.000 A 
ATOM     27  N   UNL     1      48.811   7.747  19.485  0.00  0.00    +0.000 N 
ATOM     28  C   UNL     1      49.263   7.408  18.232  0.00  0.00    +0.000 A 
ATOM     29  O   UNL     1      50.120   8.058  17.646  0.00  0.00    +0.000 OA
ATOM     30  C   UNL     1      48.632   6.219  17.700  0.00  0.00    +0.000 A 
ATOM     31  H   UNL     1      49.221   8.573  19.897  0.00  0.00    +0.000 HD
ENDBRANCH  18  21
ENDBRANCH   1  19
TORSDOF 6
ENDMDL
MODEL 4
REMARK VINA RESULT:    -7.421      3.045      5.169
REMARK INTER + INTRA:         -11.154
REMARK INTER:                 -10.152
REMARK INTRA:                  -1.002
REMARK UNBOUND:                -1.130
REMARK  Name = 
REMARK  6 active torsions:
REMARK  status: ('A' for Active; 'I' for Inactive)
REMARK    1  A    between atoms: C_2  and  C_19
REMARK    2  A    between atoms: N_3  and  C_4
REMARK    3  A    between atoms: C_4  and  C_5
REMARK    4  A    between atoms: C_8  and  C_9
REMARK    5  A    between atoms: C_9  and  N_10
REMARK    6  A    between atoms: N_10  and  C_11
REMARK                            x       y       z     vdW  Elec       q    Type
REMARK                         _______ _______ _______ _____ _____    ______ ____
ROOT
ATOM      1  C   UNL     1      47.715   6.061  13.877  0.00  0.00    +0.000 C 
ENDROOT
BRANCH   1   2
ATOM      2  C   UNL     1      46.742   5.239  13.097  0.00  0.00    +0.000 A 
ATOM      3  C   UNL     1      46.001   5.765  12.062  0.00  0.00    +0.000 A 
ATOM      4  N   UNL     1      45.095   5.061  11.356  0.00  0.00    +0.000 NA
ATOM      5  C   UNL     1      44.920   3.768  11.705  0.00  0.00    +0.000 A 
ATOM      6  N   UNL     1      45.567   3.165  12.727  0.00  0.00    +0.000 NA
ATOM      7  C   UNL     1      46.455   3.922  13.403  0.00  0.00    +0.000 A 
BRANCH   5   8
ATOM      8  C   UNL     1      43.977   2.927  10.856  0.00  0.00    +0.000 C 
BRANCH   8   9
ATOM      9  N   UNL     1      44.003   3.350   9.448  0.00  0.00    +0.000 N 
ATOM     10  H   UNL     1      43.876   4.357   9.365  0.00  0.00    +0.000 HD
BRANCH   9  11
ATOM     11  C   UNL     1      45.010   2.855   8.608  0.00  0.00    +0.000 A 
ATOM     12  C   UNL     1      45.710   3.639   7.698  0.00  0.00    +0.000 A 
ATOM     13  C   UNL     1      46.764   3.099   6.949  0.00  0.00    +0.000 A 
ATOM     14  C   UNL     1      47.104   1.776   7.155  0.00  0.00    +0.000 A 
ATOM     15  N   UNL     1      46.485   0.979   8.051  0.00  0.00    +0.000 NA
ATOM     16  C   UNL     1      45.475   1.545   8.760  0.00  0.00    +0.000 A 
ENDBRANCH   9  11
ENDBRANCH   8   9
ENDBRANCH   5   8
ENDBRANCH   1   2
BRANCH   1  19
ATOM     17  O   UNL     1      47.895   8.793  14.719  0.00  0.00    +0.000 OA
ATOM     18  C   UNL     1      48.110   8.479  13.556  0.00  0.00    +0.000 C 
ATOM     19  N   UNL     1      48.145   7.183  13.090  0.00  0.00    +0.000 N 
ATOM     20  H   UNL     1      48.119   7.055  12.089  0.00  0.00    +0.000 HD
BRANCH  18  21
ATOM     21  C   UNL     1      48.132   9.424  12.443  0.00  0.00    +0.000 A 
ATOM     22  C   UNL     1      49.295   9.799  11.796  0.00  0.00    +0.000 A 
ATOM     23  S   UNL     1      49.114  11.324  11.024  0.00  0.00    +0.000 S 
ATOM     24  C   UNL     1      47.458  11.400  11.429  0.00  0.00    +0.000 A 
ATOM     25  N   UNL     1      46.701  12.511  11.233  0.00  0.00    +0.000 NA
ATOM     26  C   UNL     1      45.456  12.368  11.554  0.00  0.00    +0.000 A 
ATOM     27  N   UNL     1      44.886  11.197  12.003  0.00  0.00    +0.000 N 
ATOM     28  C   UNL     1      45.609  10.048  12.216  0.00  0.00    +0.000 A 
ATOM     29  O   UNL     1      45.083   8.996  12.558  0.00  0.00    +0.000 OA
ATOM     30  C   UNL     1      47.029  10.215  11.988  0.00  0.00    +0.000 A 
ATOM     31  H   UNL     1      43.890  11.129  12.153  0.00  0.00    +0.000 HD
ENDBRANCH  18  21
ENDBRANCH   1  19
TORSDOF 6
ENDMDL
MODEL 5
REMARK VINA RESULT:    -7.392      1.908      2.472
REMARK INTER + INTRA:         -11.115
REMARK INTER:                 -10.179
REMARK INTRA:                  -0.936
REMARK UNBOUND:                -1.130
REMARK  Name = 
REMARK  6 active torsions:
REMARK  status: ('A' for Active; 'I' for Inactive)
REMARK    1  A    between atoms: C_2  and  C_19
REMARK    2  A    between atoms: N_3  and  C_4
REMARK    3  A    between atoms: C_4  and  C_5
REMARK    4  A    between atoms: C_8  and  C_9
REMARK    5  A    between atoms: C_9  and  N_10
REMARK    6  A    between atoms: N_10  and  C_11
REMARK                            x       y       z     vdW  Elec       q    Type
REMARK                         _______ _______ _______ _____ _____    ______ ____
ROOT
ATOM      1  C   UNL     1      48.194   6.904  13.873  0.00  0.00    +0.000 C 
ENDROOT
BRANCH   1   2
ATOM      2  C   UNL     1      46.997   6.077  13.532  0.00  0.00    +0.000 A 
ATOM      3  C   UNL     1      45.877   6.618  12.942  0.00  0.00    +0.000 A 
ATOM      4  N   UNL     1      44.770   5.908  12.646  0.00  0.00    +0.000 NA
ATOM      5  C   UNL     1      44.785   4.595  12.958  0.00  0.00    +0.000 A 
ATOM      6  N   UNL     1      45.817   3.974  13.570  0.00  0.00    +0.000 NA
ATOM      7  C   UNL     1      46.894   4.736  13.851  0.00  0.00    +0.000 A 
BRANCH   5   8
ATOM      8  C   UNL     1      43.587   3.753  12.539  0.00  0.00    +0.000 C 
BRANCH   8   9
ATOM      9  N   UNL     1      43.232   3.990  11.132  0.00  0.00    +0.000 N 
ATOM     10  H   UNL     1      42.859   4.928  11.000  0.00  0.00    +0.000 HD
BRANCH   9  11
ATOM     11  C   UNL     1      44.138   3.616  10.131  0.00  0.00    +0.000 A 
ATOM     12  C   UNL     1      44.506   2.299   9.876  0.00  0.00    +0.000 A 
ATOM     13  C   UNL     1      45.352   1.987   8.804  0.00  0.00    +0.000 A 
ATOM     14  C   UNL     1      45.791   3.015   7.994  0.00  0.00    +0.000 A 
ATOM     15  N   UNL     1      45.437   4.305   8.171  0.00  0.00    +0.000 NA
ATOM     16  C   UNL     1      44.611   4.562   9.217  0.00  0.00    +0.000 A 
ENDBRANCH   9  11
ENDBRANCH   8   9
ENDBRANCH   5   8
ENDBRANCH   1   2
BRANCH   1  19
ATOM     17  O   UNL     1      50.055   6.160  15.920  0.00  0.00    +0.000 OA
ATOM     18  C   UNL     1      49.043   6.791  16.191  0.00  0.00    +0.000 C 
ATOM     19  N   UNL     1      48.150   7.275  15.259  0.00  0.00    +0.000 N 
ATOM     20  H   UNL     1      47.255   7.591  15.603  0.00  0.00    +0.000 HD
BRANCH  18  21
ATOM     21  C   UNL     1      48.500   6.930  17.539  0.00  0.00    +0.000 A 
ATOM     22  C   UNL     1      48.267   8.156  18.134  0.00  0.00    +0.000 A 
ATOM     23  S   UNL     1      48.261   8.025  19.848  0.00  0.00    +0.000 S 
ATOM     24  C   UNL     1      48.419   6.327  19.779  0.00  0.00    +0.000 A 
ATOM     25  N   UNL     1      48.649   5.562  20.878  0.00  0.00    +0.000 NA
ATOM     26  C   UNL     1      48.691   4.291  20.640  0.00  0.00    +0.000 A 
ATOM     27  N   UNL     1      48.470   3.710  19.412  0.00  0.00    +0.000 N 
ATOM     28  C   UNL     1      48.232   4.440  18.272  0.00  0.00    +0.000 A 
ATOM     29  O   UNL     1      47.978   3.913  17.196  0.00  0.00    +0.000 OA
ATOM     30  C   UNL     1      48.308   5.871  18.483  0.00  0.00    +0.000 A 
ATOM     31  H   UNL     1      48.431   2.706  19.312  0.00  0.00    +0.000 HD
ENDBRANCH  18  21
ENDBRANCH   1  19
TORSDOF 6
ENDMDL
MODEL 6
REMARK VINA RESULT:    -7.190      2.292      2.971
REMARK INTER + INTRA:         -10.841
REMARK INTER:                  -9.881
REMARK INTRA:                  -0.960
REMARK UNBOUND:                -1.130
REMARK  Name = 
REMARK  6 active torsions:
REMARK  status: ('A' for Active; 'I' for Inactive)
REMARK    1  A    between atoms: C_2  and  C_19
REMARK    2  A    between atoms: N_3  and  C_4
REMARK    3  A    between atoms: C_4  and  C_5
REMARK    4  A    between atoms: C_8  and  C_9
REMARK    5  A    between atoms: C_9  and  N_10
REMARK    6  A    between atoms: N_10  and  C_11
REMARK                            x       y       z     vdW  Elec       q    Type
REMARK                         _______ _______ _______ _____ _____    ______ ____
ROOT
ATOM      1  C   UNL     1      47.506   4.487  15.112  0.00  0.00    +0.000 C 
ENDROOT
BRANCH   1   2
ATOM      2  C   UNL     1      46.846   4.719  13.791  0.00  0.00    +0.000 A 
ATOM      3  C   UNL     1      47.142   5.811  13.006  0.00  0.00    +0.000 A 
ATOM      4  N   UNL     1      46.547   6.066  11.824  0.00  0.00    +0.000 NA
ATOM      5  C   UNL     1      45.610   5.187  11.410  0.00  0.00    +0.000 A 
ATOM      6  N   UNL     1      45.220   4.106  12.119  0.00  0.00    +0.000 NA
ATOM      7  C   UNL     1      45.843   3.906  13.299  0.00  0.00    +0.000 A 
BRANCH   5   8
ATOM      8  C   UNL     1      44.999   5.399  10.031  0.00  0.00    +0.000 C 
BRANCH   8   9
ATOM      9  N   UNL     1      44.462   4.144   9.485  0.00  0.00    +0.000 N 
ATOM     10  H   UNL     1      43.537   4.284   9.085  0.00  0.00    +0.000 HD
BRANCH   9  11
ATOM     11  C   UNL     1      45.288   3.343   8.685  0.00  0.00    +0.000 A 
ATOM     12  C   UNL     1      46.170   3.850   7.736  0.00  0.00    +0.000 A 
ATOM     13  C   UNL     1      47.029   2.998   7.031  0.00  0.00    +0.000 A 
ATOM     14  C   UNL     1      46.995   1.647   7.318  0.00  0.00    +0.000 A 
ATOM     15  N   UNL     1      46.188   1.106   8.253  0.00  0.00    +0.000 NA
ATOM     16  C   UNL     1      45.377   1.968   8.918  0.00  0.00    +0.000 A 
ENDBRANCH   9  11
ENDBRANCH   8   9
ENDBRANCH   5   8
ENDBRANCH   1   2
BRANCH   1  19
ATOM     17  O   UNL     1      49.902   5.457  16.346  0.00  0.00    +0.000 OA
ATOM     18  C   UNL     1      48.853   6.079  16.437  0.00  0.00    +0.000 C 
ATOM     19  N   UNL     1      47.683   5.739  15.793  0.00  0.00    +0.000 N 
ATOM     20  H   UNL     1      46.838   6.194  16.106  0.00  0.00    +0.000 HD
BRANCH  18  21
ATOM     21  C   UNL     1      48.609   7.135  17.416  0.00  0.00    +0.000 A 
ATOM     22  C   UNL     1      49.120   8.413  17.287  0.00  0.00    +0.000 A 
ATOM     23  S   UNL     1      49.225   9.198  18.812  0.00  0.00    +0.000 S 
ATOM     24  C   UNL     1      48.458   7.895  19.604  0.00  0.00    +0.000 A 
ATOM     25  N   UNL     1      48.364   7.805  20.956  0.00  0.00    +0.000 NA
ATOM     26  C   UNL     1      47.706   6.773  21.374  0.00  0.00    +0.000 A 
ATOM     27  N   UNL     1      47.085   5.850  20.562  0.00  0.00    +0.000 N 
ATOM     28  C   UNL     1      47.149   5.899  19.190  0.00  0.00    +0.000 A 
ATOM     29  O   UNL     1      46.545   5.108  18.477  0.00  0.00    +0.000 OA
ATOM     30  C   UNL     1      47.988   6.971  18.695  0.00  0.00    +0.000 A 
ATOM     31  H   UNL     1      46.513   5.116  20.954  0.00  0.00    +0.000 HD
ENDBRANCH  18  21
ENDBRANCH   1  19
TORSDOF 6
ENDMDL
MODEL 7
REMARK VINA RESULT:    -7.027      2.123      3.858
REMARK INTER + INTRA:         -10.621
REMARK INTER:                  -9.839
REMARK INTRA:                  -0.782
REMARK UNBOUND:                -1.130
REMARK  Name = 
REMARK  6 active torsions:
REMARK  status: ('A' for Active; 'I' for Inactive)
REMARK    1  A    between atoms: C_2  and  C_19
REMARK    2  A    between atoms: N_3  and  C_4
REMARK    3  A    between atoms: C_4  and  C_5
REMARK    4  A    between atoms: C_8  and  C_9
REMARK    5  A    between atoms: C_9  and  N_10
REMARK    6  A    between atoms: N_10  and  C_11
REMARK                            x       y       z     vdW  Elec       q    Type
REMARK                         _______ _______ _______ _____ _____    ______ ____
ROOT
ATOM      1  C   UNL     1      46.959   4.932  14.474  0.00  0.00    +0.000 C 
ENDROOT
BRANCH   1   2
ATOM      2  C   UNL     1      46.210   4.718  13.199  0.00  0.00    +0.000 A 
ATOM      3  C   UNL     1      46.074   5.710  12.254  0.00  0.00    +0.000 A 
ATOM      4  N   UNL     1      45.383   5.561  11.107  0.00  0.00    +0.000 NA
ATOM      5  C   UNL     1      44.798   4.363  10.897  0.00  0.00    +0.000 A 
ATOM      6  N   UNL     1      44.838   3.337  11.776  0.00  0.00    +0.000 NA
ATOM      7  C   UNL     1      45.536   3.546  12.910  0.00  0.00    +0.000 A 
BRANCH   5   8
ATOM      8  C   UNL     1      44.100   4.138   9.563  0.00  0.00    +0.000 C 
BRANCH   8   9
ATOM      9  N   UNL     1      45.009   4.387   8.435  0.00  0.00    +0.000 N 
ATOM     10  H   UNL     1      45.546   5.240   8.577  0.00  0.00    +0.000 HD
BRANCH   9  11
ATOM     11  C   UNL     1      45.783   3.329   7.940  0.00  0.00    +0.000 A 
ATOM     12  C   UNL     1      46.829   3.494   7.038  0.00  0.00    +0.000 A 
ATOM     13  C   UNL     1      47.618   2.404   6.649  0.00  0.00    +0.000 A 
ATOM     14  C   UNL     1      47.347   1.168   7.202  0.00  0.00    +0.000 A 
ATOM     15  N   UNL     1      46.370   0.957   8.108  0.00  0.00    +0.000 NA
ATOM     16  C   UNL     1      45.634   2.041   8.463  0.00  0.00    +0.000 A 
ENDBRANCH   9  11
ENDBRANCH   8   9
ENDBRANCH   5   8
ENDBRANCH   1   2
BRANCH   1  19
ATOM     17  O   UNL     1      49.193   5.633  16.124  0.00  0.00    +0.000 OA
ATOM     18  C   UNL     1      48.781   6.401  15.266  0.00  0.00    +0.000 C 
ATOM     19  N   UNL     1      47.782   6.104  14.364  0.00  0.00    +0.000 N 
ATOM     20  H   UNL     1      47.384   6.875  13.850  0.00  0.00    +0.000 HD
BRANCH  18  21
ATOM     21  C   UNL     1      49.115   7.821  15.208  0.00  0.00    +0.000 A 
ATOM     22  C   UNL     1      49.249   8.609  16.336  0.00  0.00    +0.000 A 
ATOM     23  S   UNL     1      49.000  10.270  15.968  0.00  0.00    +0.000 S 
ATOM     24  C   UNL     1      48.865   9.942  14.299  0.00  0.00    +0.000 A 
ATOM     25  N   UNL     1      48.478  10.877  13.392  0.00  0.00    +0.000 NA
ATOM     26  C   UNL     1      48.481  10.460  12.167  0.00  0.00    +0.000 A 
ATOM     27  N   UNL     1      48.887   9.209  11.759  0.00  0.00    +0.000 N 
ATOM     28  C   UNL     1      49.287   8.230  12.637  0.00  0.00    +0.000 A 
ATOM     29  O   UNL     1      49.703   7.142  12.261  0.00  0.00    +0.000 OA
ATOM     30  C   UNL     1      49.172   8.626  14.025  0.00  0.00    +0.000 A 
ATOM     31  H   UNL     1      48.947   8.977  10.778  0.00  0.00    +0.000 HD
ENDBRANCH  18  21
ENDBRANCH   1  19
TORSDOF 6
ENDMDL
MODEL 8
REMARK VINA RESULT:    -6.978      3.004      7.391
REMARK INTER + INTRA:         -10.555
REMARK INTER:                  -9.536
REMARK INTRA:                  -1.019
REMARK UNBOUND:                -1.130
REMARK  Name = 
REMARK  6 active torsions:
REMARK  status: ('A' for Active; 'I' for Inactive)
REMARK    1  A    between atoms: C_2  and  C_19
REMARK    2  A    between atoms: N_3  and  C_4
REMARK    3  A    between atoms: C_4  and  C_5
REMARK    4  A    between atoms: C_8  and  C_9
REMARK    5  A    between atoms: C_9  and  N_10
REMARK    6  A    between atoms: N_10  and  C_11
REMARK                            x       y       z     vdW  Elec       q    Type
REMARK                         _______ _______ _______ _____ _____    ______ ____
ROOT
ATOM      1  C   UNL     1      47.007   8.503  12.526  0.00  0.00    +0.000 C 
ENDROOT
BRANCH   1   2
ATOM      2  C   UNL     1      47.757   7.968  13.702  0.00  0.00    +0.000 A 
ATOM      3  C   UNL     1      48.121   6.644  13.799  0.00  0.00    +0.000 A 
ATOM      4  N   UNL     1      48.772   6.121  14.856  0.00  0.00    +0.000 NA
ATOM      5  C   UNL     1      49.072   6.965  15.867  0.00  0.00    +0.000 A 
ATOM      6  N   UNL     1      48.728   8.272  15.888  0.00  0.00    +0.000 NA
ATOM      7  C   UNL     1      48.070   8.737  14.807  0.00  0.00    +0.000 A 
BRANCH   5   8
ATOM      8  C   UNL     1      49.897   6.421  17.024  0.00  0.00    +0.000 C 
BRANCH   8   9
ATOM      9  N   UNL     1      49.329   5.168  17.545  0.00  0.00    +0.000 N 
ATOM     10  H   UNL     1      48.353   5.066  17.271  0.00  0.00    +0.000 HD
BRANCH   9  11
ATOM     11  C   UNL     1      50.062   3.982  17.410  0.00  0.00    +0.000 A 
ATOM     12  C   UNL     1      51.352   3.812  17.902  0.00  0.00    +0.000 A 
ATOM     13  C   UNL     1      51.996   2.572  17.808  0.00  0.00    +0.000 A 
ATOM     14  C   UNL     1      51.310   1.518  17.238  0.00  0.00    +0.000 A 
ATOM     15  N   UNL     1      50.045   1.615  16.778  0.00  0.00    +0.000 NA
ATOM     16  C   UNL     1      49.456   2.832  16.895  0.00  0.00    +0.000 A 
ENDBRANCH   9  11
ENDBRANCH   8   9
ENDBRANCH   5   8
ENDBRANCH   1   2
BRANCH   1  19
ATOM     17  O   UNL     1      44.458   7.697  11.498  0.00  0.00    +0.000 OA
ATOM     18  C   UNL     1      45.471   7.069  11.226  0.00  0.00    +0.000 C 
ATOM     19  N   UNL     1      46.746   7.443  11.593  0.00  0.00    +0.000 N 
ATOM     20  H   UNL     1      47.472   6.748  11.499  0.00  0.00    +0.000 HD
BRANCH  18  21
ATOM     21  C   UNL     1      45.474   5.716  10.678  0.00  0.00    +0.000 A 
ATOM     22  C   UNL     1      45.819   5.434   9.369  0.00  0.00    +0.000 A 
ATOM     23  S   UNL     1      45.132   3.946   8.850  0.00  0.00    +0.000 S 
ATOM     24  C   UNL     1      44.511   3.621  10.405  0.00  0.00    +0.000 A 
ATOM     25  N   UNL     1      43.661   2.592  10.660  0.00  0.00    +0.000 NA
ATOM     26  C   UNL     1      43.334   2.471  11.907  0.00  0.00    +0.000 A 
ATOM     27  N   UNL     1      43.821   3.252  12.930  0.00  0.00    +0.000 N 
ATOM     28  C   UNL     1      44.682   4.303  12.723  0.00  0.00    +0.000 A 
ATOM     29  O   UNL     1      45.156   4.954  13.646  0.00  0.00    +0.000 OA
ATOM     30  C   UNL     1      44.965   4.543  11.324  0.00  0.00    +0.000 A 
ATOM     31  H   UNL     1      43.592   3.048  13.892  0.00  0.00    +0.000 HD
ENDBRANCH  18  21
ENDBRANCH   1  19
TORSDOF 6
ENDMDL
MODEL 9
REMARK VINA RESULT:    -6.820      3.351      5.935
REMARK INTER + INTRA:         -10.342
REMARK INTER:                  -9.538
REMARK INTRA:                  -0.805
REMARK UNBOUND:                -1.130
REMARK  Name = 
REMARK  6 active torsions:
REMARK  status: ('A' for Active; 'I' for Inactive)
REMARK    1  A    between atoms: C_2  and  C_19
REMARK    2  A    between atoms: N_3  and  C_4
REMARK    3  A    between atoms: C_4  and  C_5
REMARK    4  A    between atoms: C_8  and  C_9
REMARK    5  A    between atoms: C_9  and  N_10
REMARK    6  A    between atoms: N_10  and  C_11
REMARK                            x       y       z     vdW  Elec       q    Type
REMARK                         _______ _______ _______ _____ _____    ______ ____
ROOT
ATOM      1  C   UNL     1      44.488   3.340  10.236  0.00  0.00    +0.000 C 
ENDROOT
BRANCH   1   2
ATOM      2  C   UNL     1      45.283   2.963   9.028  0.00  0.00    +0.000 A 
ATOM      3  C   UNL     1      45.575   3.867   8.031  0.00  0.00    +0.000 A 
ATOM      4  N   UNL     1      46.264   3.556   6.916  0.00  0.00    +0.000 NA
ATOM      5  C   UNL     1      46.680   2.277   6.792  0.00  0.00    +0.000 A 
ATOM      6  N   UNL     1      46.416   1.305   7.693  0.00  0.00    +0.000 NA
ATOM      7  C   UNL     1      45.714   1.673   8.784  0.00  0.00    +0.000 A 
BRANCH   5   8
ATOM      8  C   UNL     1      47.548   1.927   5.592  0.00  0.00    +0.000 C 
BRANCH   8   9
ATOM      9  N   UNL     1      46.780   1.990   4.339  0.00  0.00    +0.000 N 
ATOM     10  H   UNL     1      47.137   2.721   3.726  0.00  0.00    +0.000 HD
BRANCH   9  11
ATOM     11  C   UNL     1      46.491   0.799   3.660  0.00  0.00    +0.000 A 
ATOM     12  C   UNL     1      47.065  -0.428   3.974  0.00  0.00    +0.000 A 
ATOM     13  C   UNL     1      46.667  -1.596   3.311  0.00  0.00    +0.000 A 
ATOM     14  C   UNL     1      45.675  -1.501   2.355  0.00  0.00    +0.000 A 
ATOM     15  N   UNL     1      45.058  -0.345   2.035  0.00  0.00    +0.000 NA
ATOM     16  C   UNL     1      45.468   0.761   2.707  0.00  0.00    +0.000 A 
ENDBRANCH   9  11
ENDBRANCH   8   9
ENDBRANCH   5   8
ENDBRANCH   1   2
BRANCH   1  19
ATOM     17  O   UNL     1      44.281   3.999  13.016  0.00  0.00    +0.000 OA
ATOM     18  C   UNL     1      44.891   4.724  12.243  0.00  0.00    +0.000 C 
ATOM     19  N   UNL     1      45.126   4.433  10.916  0.00  0.00    +0.000 N 
ATOM     20  H   UNL     1      45.450   5.189  10.331  0.00  0.00    +0.000 HD
BRANCH  18  21
ATOM     21  C   UNL     1      45.264   6.105  12.536  0.00  0.00    +0.000 A 
ATOM     22  C   UNL     1      44.390   7.167  12.395  0.00  0.00    +0.000 A 
ATOM     23  S   UNL     1      45.237   8.647  12.178  0.00  0.00    +0.000 S 
ATOM     24  C   UNL     1      46.746   7.888  12.422  0.00  0.00    +0.000 A 
ATOM     25  N   UNL     1      47.932   8.518  12.213  0.00  0.00    +0.000 NA
ATOM     26  C   UNL     1      48.971   7.801  12.496  0.00  0.00    +0.000 A 
ATOM     27  N   UNL     1      48.933   6.529  13.021  0.00  0.00    +0.000 N 
ATOM     28  C   UNL     1      47.760   5.850  13.251  0.00  0.00    +0.000 A 
ATOM     29  O   UNL     1      47.735   4.743  13.773  0.00  0.00    +0.000 OA
ATOM     30  C   UNL     1      46.584   6.579  12.823  0.00  0.00    +0.000 A 
ATOM     31  H   UNL     1      49.780   6.058  13.301  0.00  0.00    +0.000 HD
ENDBRANCH  18  21
ENDBRANCH   1  19
TORSDOF 6
ENDMDL
