MODEL 1
REMARK VINA RESULT:    -8.198      0.000      0.000
REMARK INTER + INTRA:         -11.613
REMARK INTER:                 -10.594
REMARK INTRA:                  -1.019
REMARK UNBOUND:                -1.019
REMARK  Name = 
REMARK  5 active torsions:
REMARK  status: ('A' for Active; 'I' for Inactive)
REMARK    1  A    between atoms: C_2  and  C_19
REMARK    2  A    between atoms: N_3  and  C_4
REMARK    3  A    between atoms: C_4  and  C_5
REMARK    4  A    between atoms: C_8  and  C_9
REMARK    5  A    between atoms: C_9  and  N_10
REMARK                            x       y       z     vdW  Elec       q    Type
REMARK                         _______ _______ _______ _____ _____    ______ ____
ROOT
ATOM      1  C   UNL     1      47.365   8.515  13.074  0.00  0.00    +0.000 C 
ENDROOT
BRANCH   1   2
ATOM      2  C   UNL     1      46.457   7.485  12.451  0.00  0.00    +0.000 A 
ATOM      3  C   UNL     1      46.912   6.709  11.378  0.00  0.00    +0.000 A 
ATOM      4  C   UNL     1      46.072   5.772  10.774  0.00  0.00    +0.000 A 
ATOM      5  C   UNL     1      44.749   5.611  11.209  0.00  0.00    +0.000 A 
ATOM      6  C   UNL     1      44.287   6.391  12.275  0.00  0.00    +0.000 A 
ATOM      7  C   UNL     1      45.133   7.325  12.887  0.00  0.00    +0.000 A 
BRANCH   5   8
ATOM      8  C   UNL     1      43.844   4.615  10.518  0.00  0.00    +0.000 C 
BRANCH   8   9
ATOM      9  N   UNL     1      43.991   4.713   9.080  0.00  0.00    +0.000 N 
ATOM     10  C   UNL     1      44.858   3.760   8.561  0.00  0.00    +0.000 A 
ATOM     11  N   UNL     1      44.933   2.541   9.123  0.00  0.00    +0.000 NA
ATOM     12  C   UNL     1      45.796   1.663   8.579  0.00  0.00    +0.000 A 
ATOM     13  C   UNL     1      46.583   1.952   7.502  0.00  0.00    +0.000 A 
ATOM     14  C   UNL     1      46.443   3.218   6.992  0.00  0.00    +0.000 A 
ATOM     15  N   UNL     1      45.594   4.137   7.510  0.00  0.00    +0.000 NA
ATOM     16  H   UNL     1      44.295   5.614   8.729  0.00  0.00    +0.000 HD
ENDBRANCH   8   9
ENDBRANCH   5   8
ENDBRANCH   1   2
BRANCH   1  19
ATOM     17  O   UNL     1      49.579   6.894  13.866  0.00  0.00    +0.000 OA
ATOM     18  C   UNL     1      48.744   7.253  14.684  0.00  0.00    +0.000 C 
ATOM     19  N   UNL     1      47.707   8.117  14.415  0.00  0.00    +0.000 N 
ATOM     20  H   UNL     1      46.966   8.196  15.093  0.00  0.00    +0.000 HD
BRANCH  18  21
ATOM     21  C   UNL     1      48.594   6.645  15.999  0.00  0.00    +0.000 A 
ATOM     22  C   UNL     1      49.046   7.247  17.159  0.00  0.00    +0.000 A 
ATOM     23  S   UNL     1      49.253   6.106  18.425  0.00  0.00    +0.000 S 
ATOM     24  C   UNL     1      48.620   4.844  17.468  0.00  0.00    +0.000 A 
ATOM     25  N   UNL     1      48.643   3.542  17.860  0.00  0.00    +0.000 NA
ATOM     26  C   UNL     1      48.079   2.729  17.026  0.00  0.00    +0.000 A 
ATOM     27  N   UNL     1      47.446   3.101  15.868  0.00  0.00    +0.000 N 
ATOM     28  C   UNL     1      47.367   4.409  15.447  0.00  0.00    +0.000 A 
ATOM     29  O   UNL     1      46.711   4.743  14.470  0.00  0.00    +0.000 OA
ATOM     30  C   UNL     1      48.117   5.325  16.279  0.00  0.00    +0.000 A 
ATOM     31  H   UNL     1      46.941   2.429  15.308  0.00  0.00    +0.000 HD
ENDBRANCH  18  21
ENDBRANCH   1  19
TORSDOF 5
ENDMDL
MODEL 2
REMARK VINA RESULT:    -7.678      1.578      1.948
REMARK INTER + INTRA:         -10.941
REMARK INTER:                  -9.940
REMARK INTRA:                  -1.001
REMARK UNBOUND:                -1.019
REMARK  Name = 
REMARK  5 active torsions:
REMARK  status: ('A' for Active; 'I' for Inactive)
REMARK    1  A    between atoms: C_2  and  C_19
REMARK    2  A    between atoms: N_3  and  C_4
REMARK    3  A    between atoms: C_4  and  C_5
REMARK    4  A    between atoms: C_8  and  C_9
REMARK    5  A    between atoms: C_9  and  N_10
REMARK                            x       y       z     vdW  Elec       q    Type
REMARK                         _______ _______ _______ _____ _____    ______ ____
ROOT
ATOM      1  C   UNL     1      48.581   6.901  13.885  0.00  0.00    +0.000 C 
ENDROOT
BRANCH   1   2
ATOM      2  C   UNL     1      47.481   6.230  13.102  0.00  0.00    +0.000 A 
ATOM      3  C   UNL     1      46.986   6.830  11.938  0.00  0.00    +0.000 A 
ATOM      4  C   UNL     1      45.949   6.233  11.218  0.00  0.00    +0.000 A 
ATOM      5  C   UNL     1      45.362   5.041  11.663  0.00  0.00    +0.000 A 
ATOM      6  C   UNL     1      45.848   4.443  12.832  0.00  0.00    +0.000 A 
ATOM      7  C   UNL     1      46.895   5.037  13.548  0.00  0.00    +0.000 A 
BRANCH   5   8
ATOM      8  C   UNL     1      44.215   4.429  10.890  0.00  0.00    +0.000 C 
BRANCH   8   9
ATOM      9  N   UNL     1      44.338   4.735   9.479  0.00  0.00    +0.000 N 
ATOM     10  C   UNL     1      45.123   3.817   8.794  0.00  0.00    +0.000 A 
ATOM     11  N   UNL     1      45.123   2.524   9.162  0.00  0.00    +0.000 NA
ATOM     12  C   UNL     1      45.909   1.684   8.464  0.00  0.00    +0.000 A 
ATOM     13  C   UNL     1      46.692   2.081   7.419  0.00  0.00    +0.000 A 
ATOM     14  C   UNL     1      46.631   3.416   7.111  0.00  0.00    +0.000 A 
ATOM     15  N   UNL     1      45.862   4.300   7.789  0.00  0.00    +0.000 NA
ATOM     16  H   UNL     1      44.698   5.657   9.259  0.00  0.00    +0.000 HD
ENDBRANCH   8   9
ENDBRANCH   5   8
ENDBRANCH   1   2
BRANCH   1  19
ATOM     17  O   UNL     1      50.189   7.766  16.080  0.00  0.00    +0.000 OA
ATOM     18  C   UNL     1      49.013   7.473  16.246  0.00  0.00    +0.000 C 
ATOM     19  N   UNL     1      48.139   7.149  15.233  0.00  0.00    +0.000 N 
ATOM     20  H   UNL     1      47.255   6.735  15.482  0.00  0.00    +0.000 HD
BRANCH  18  21
ATOM     21  C   UNL     1      48.426   7.207  17.552  0.00  0.00    +0.000 A 
ATOM     22  C   UNL     1      47.941   8.208  18.373  0.00  0.00    +0.000 A 
ATOM     23  S   UNL     1      47.849   7.694  20.009  0.00  0.00    +0.000 S 
ATOM     24  C   UNL     1      48.329   6.111  19.598  0.00  0.00    +0.000 A 
ATOM     25  N   UNL     1      48.616   5.164  20.532  0.00  0.00    +0.000 NA
ATOM     26  C   UNL     1      48.921   4.009  20.037  0.00  0.00    +0.000 A 
ATOM     27  N   UNL     1      48.911   3.695  18.702  0.00  0.00    +0.000 N 
ATOM     28  C   UNL     1      48.593   4.609  17.723  0.00  0.00    +0.000 A 
ATOM     29  O   UNL     1      48.485   4.294  16.546  0.00  0.00    +0.000 OA
ATOM     30  C   UNL     1      48.396   5.948  18.232  0.00  0.00    +0.000 A 
ATOM     31  H   UNL     1      49.065   2.748  18.385  0.00  0.00    +0.000 HD
ENDBRANCH  18  21
ENDBRANCH   1  19
TORSDOF 5
ENDMDL
MODEL 3
REMARK VINA RESULT:    -7.652      1.896      2.630
REMARK INTER + INTRA:         -10.908
REMARK INTER:                 -10.057
REMARK INTRA:                  -0.850
REMARK UNBOUND:                -1.019
REMARK  Name = 
REMARK  5 active torsions:
REMARK  status: ('A' for Active; 'I' for Inactive)
REMARK    1  A    between atoms: C_2  and  C_19
REMARK    2  A    between atoms: N_3  and  C_4
REMARK    3  A    between atoms: C_4  and  C_5
REMARK    4  A    between atoms: C_8  and  C_9
REMARK    5  A    between atoms: C_9  and  N_10
REMARK                            x       y       z     vdW  Elec       q    Type
REMARK                         _______ _______ _______ _____ _____    ______ ____
ROOT
ATOM      1  C   UNL     1      47.796   7.426  13.401  0.00  0.00    +0.000 C 
ENDROOT
BRANCH   1   2
ATOM      2  C   UNL     1      46.821   6.572  12.630  0.00  0.00    +0.000 A 
ATOM      3  C   UNL     1      46.370   5.364  13.173  0.00  0.00    +0.000 A 
ATOM      4  C   UNL     1      45.488   4.550  12.458  0.00  0.00    +0.000 A 
ATOM      5  C   UNL     1      45.063   4.912  11.172  0.00  0.00    +0.000 A 
ATOM      6  C   UNL     1      45.520   6.115  10.622  0.00  0.00    +0.000 A 
ATOM      7  C   UNL     1      46.397   6.935  11.343  0.00  0.00    +0.000 A 
BRANCH   5   8
ATOM      8  C   UNL     1      44.136   4.000  10.399  0.00  0.00    +0.000 C 
BRANCH   8   9
ATOM      9  N   UNL     1      44.241   4.262   8.978  0.00  0.00    +0.000 N 
ATOM     10  C   UNL     1      45.170   3.446   8.347  0.00  0.00    +0.000 A 
ATOM     11  N   UNL     1      45.359   2.185   8.772  0.00  0.00    +0.000 NA
ATOM     12  C   UNL     1      46.277   1.445   8.124  0.00  0.00    +0.000 A 
ATOM     13  C   UNL     1      47.012   1.913   7.074  0.00  0.00    +0.000 A 
ATOM     14  C   UNL     1      46.756   3.209   6.705  0.00  0.00    +0.000 A 
ATOM     15  N   UNL     1      45.848   3.993   7.332  0.00  0.00    +0.000 NA
ATOM     16  H   UNL     1      44.461   5.218   8.723  0.00  0.00    +0.000 HD
ENDBRANCH   8   9
ENDBRANCH   5   8
ENDBRANCH   1   2
BRANCH   1  19
ATOM     17  O   UNL     1      50.082   6.844  15.011  0.00  0.00    +0.000 OA
ATOM     18  C   UNL     1      48.952   6.683  15.450  0.00  0.00    +0.000 C 
ATOM     19  N   UNL     1      47.799   7.034  14.787  0.00  0.00    +0.000 N 
ATOM     20  H   UNL     1      46.922   6.685  15.140  0.00  0.00    +0.000 HD
BRANCH  18  21
ATOM     21  C   UNL     1      48.656   5.893  16.638  0.00  0.00    +0.000 A 
ATOM     22  C   UNL     1      48.220   4.582  16.575  0.00  0.00    +0.000 A 
ATOM     23  S   UNL     1      47.428   4.110  18.024  0.00  0.00    +0.000 S 
ATOM     24  C   UNL     1      47.781   5.602  18.770  0.00  0.00    +0.000 A 
ATOM     25  N   UNL     1      47.266   5.959  19.977  0.00  0.00    +0.000 NA
ATOM     26  C   UNL     1      47.677   7.107  20.408  0.00  0.00    +0.000 A 
ATOM     27  N   UNL     1      48.596   7.904  19.775  0.00  0.00    +0.000 N 
ATOM     28  C   UNL     1      49.171   7.569  18.570  0.00  0.00    +0.000 A 
ATOM     29  O   UNL     1      50.065   8.233  18.065  0.00  0.00    +0.000 OA
ATOM     30  C   UNL     1      48.619   6.364  17.988  0.00  0.00    +0.000 A 
ATOM     31  H   UNL     1      48.949   8.745  20.210  0.00  0.00    +0.000 HD
ENDBRANCH  18  21
ENDBRANCH   1  19
TORSDOF 5
ENDMDL
MODEL 4
REMARK VINA RESULT:    -7.612      3.299      5.870
REMARK INTER + INTRA:         -10.856
REMARK INTER:                 -10.146
REMARK INTRA:                  -0.710
REMARK UNBOUND:                -1.019
REMARK  Name = 
REMARK  5 active torsions:
REMARK  status: ('A' for Active; 'I' for Inactive)
REMARK    1  A    between atoms: C_2  and  C_19
REMARK    2  A    between atoms: N_3  and  C_4
REMARK    3  A    between atoms: C_4  and  C_5
REMARK    4  A    between atoms: C_8  and  C_9
REMARK    5  A    between atoms: C_9  and  N_10
REMARK                            x       y       z     vdW  Elec       q    Type
REMARK                         _______ _______ _______ _____ _____    ______ ____
ROOT
ATOM      1  C   UNL     1      44.117   2.864  10.334  0.00  0.00    +0.000 C 
ENDROOT
BRANCH   1   2
ATOM      2  C   UNL     1      45.033   2.826   9.138  0.00  0.00    +0.000 A 
ATOM      3  C   UNL     1      45.202   3.970   8.350  0.00  0.00    +0.000 A 
ATOM      4  C   UNL     1      46.026   3.941   7.223  0.00  0.00    +0.000 A 
ATOM      5  C   UNL     1      46.674   2.759   6.841  0.00  0.00    +0.000 A 
ATOM      6  C   UNL     1      46.500   1.609   7.621  0.00  0.00    +0.000 A 
ATOM      7  C   UNL     1      45.681   1.641   8.756  0.00  0.00    +0.000 A 
BRANCH   5   8
ATOM      8  C   UNL     1      47.533   2.737   5.596  0.00  0.00    +0.000 C 
BRANCH   8   9
ATOM      9  N   UNL     1      48.070   1.410   5.376  0.00  0.00    +0.000 N 
ATOM     10  C   UNL     1      47.334   0.677   4.455  0.00  0.00    +0.000 A 
ATOM     11  N   UNL     1      46.739   1.297   3.421  0.00  0.00    +0.000 NA
ATOM     12  C   UNL     1      46.035   0.534   2.566  0.00  0.00    +0.000 A 
ATOM     13  C   UNL     1      45.900  -0.817   2.701  0.00  0.00    +0.000 A 
ATOM     14  C   UNL     1      46.538  -1.368   3.783  0.00  0.00    +0.000 A 
ATOM     15  N   UNL     1      47.252  -0.641   4.674  0.00  0.00    +0.000 NA
ATOM     16  H   UNL     1      48.169   0.833   6.204  0.00  0.00    +0.000 HD
ENDBRANCH   8   9
ENDBRANCH   5   8
ENDBRANCH   1   2
BRANCH   1  19
ATOM     17  O   UNL     1      42.469   5.045  11.160  0.00  0.00    +0.000 OA
ATOM     18  C   UNL     1      43.652   5.007  11.466  0.00  0.00    +0.000 C 
ATOM     19  N   UNL     1      44.493   3.949  11.204  0.00  0.00    +0.000 N 
ATOM     20  H   UNL     1      45.484   4.090  11.316  0.00  0.00    +0.000 HD
BRANCH  18  21
ATOM     21  C   UNL     1      44.396   6.161  11.951  0.00  0.00    +0.000 A 
ATOM     22  C   UNL     1      44.148   7.449  11.513  0.00  0.00    +0.000 A 
ATOM     23  S   UNL     1      45.491   8.482  11.794  0.00  0.00    +0.000 S 
ATOM     24  C   UNL     1      46.341   7.249  12.610  0.00  0.00    +0.000 A 
ATOM     25  N   UNL     1      47.639   7.381  12.992  0.00  0.00    +0.000 NA
ATOM     26  C   UNL     1      48.107   6.361  13.637  0.00  0.00    +0.000 A 
ATOM     27  N   UNL     1      47.383   5.249  13.984  0.00  0.00    +0.000 N 
ATOM     28  C   UNL     1      46.058   5.086  13.650  0.00  0.00    +0.000 A 
ATOM     29  O   UNL     1      45.395   4.141  14.054  0.00  0.00    +0.000 OA
ATOM     30  C   UNL     1      45.548   6.139  12.799  0.00  0.00    +0.000 A 
ATOM     31  H   UNL     1      47.780   4.529  14.572  0.00  0.00    +0.000 HD
ENDBRANCH  18  21
ENDBRANCH   1  19
TORSDOF 5
ENDMDL
MODEL 5
REMARK VINA RESULT:    -7.145      2.954      5.000
REMARK INTER + INTRA:         -10.252
REMARK INTER:                  -9.201
REMARK INTRA:                  -1.051
REMARK UNBOUND:                -1.019
REMARK  Name = 
REMARK  5 active torsions:
REMARK  status: ('A' for Active; 'I' for Inactive)
REMARK    1  A    between atoms: C_2  and  C_19
REMARK    2  A    between atoms: N_3  and  C_4
REMARK    3  A    between atoms: C_4  and  C_5
REMARK    4  A    between atoms: C_8  and  C_9
REMARK    5  A    between atoms: C_9  and  N_10
REMARK                            x       y       z     vdW  Elec       q    Type
REMARK                         _______ _______ _______ _____ _____    ______ ____
ROOT
ATOM      1  C   UNL     1      47.767   6.097  13.967  0.00  0.00    +0.000 C 
ENDROOT
BRANCH   1   2
ATOM      2  C   UNL     1      46.750   5.378  13.117  0.00  0.00    +0.000 A 
ATOM      3  C   UNL     1      46.539   4.005  13.290  0.00  0.00    +0.000 A 
ATOM      4  C   UNL     1      45.621   3.322  12.491  0.00  0.00    +0.000 A 
ATOM      5  C   UNL     1      44.916   3.989  11.479  0.00  0.00    +0.000 A 
ATOM      6  C   UNL     1      45.132   5.361  11.296  0.00  0.00    +0.000 A 
ATOM      7  C   UNL     1      46.046   6.047  12.105  0.00  0.00    +0.000 A 
BRANCH   5   8
ATOM      8  C   UNL     1      43.952   3.224  10.600  0.00  0.00    +0.000 C 
BRANCH   8   9
ATOM      9  N   UNL     1      44.006   3.722   9.240  0.00  0.00    +0.000 N 
ATOM     10  C   UNL     1      45.050   3.173   8.507  0.00  0.00    +0.000 A 
ATOM     11  N   UNL     1      45.438   1.906   8.732  0.00  0.00    +0.000 NA
ATOM     12  C   UNL     1      46.458   1.432   7.994  0.00  0.00    +0.000 A 
ATOM     13  C   UNL     1      47.105   2.170   7.045  0.00  0.00    +0.000 A 
ATOM     14  C   UNL     1      46.645   3.452   6.881  0.00  0.00    +0.000 A 
ATOM     15  N   UNL     1      45.627   3.974   7.604  0.00  0.00    +0.000 NA
ATOM     16  H   UNL     1      44.071   4.729   9.143  0.00  0.00    +0.000 HD
ENDBRANCH   8   9
ENDBRANCH   5   8
ENDBRANCH   1   2
BRANCH   1  19
ATOM     17  O   UNL     1      49.228   8.380  14.863  0.00  0.00    +0.000 OA
ATOM     18  C   UNL     1      49.121   8.138  13.669  0.00  0.00    +0.000 C 
ATOM     19  N   UNL     1      48.528   7.008  13.152  0.00  0.00    +0.000 N 
ATOM     20  H   UNL     1      48.313   6.992  12.168  0.00  0.00    +0.000 HD
BRANCH  18  21
ATOM     21  C   UNL     1      49.403   9.110  12.622  0.00  0.00    +0.000 A 
ATOM     22  C   UNL     1      50.646   9.232  12.029  0.00  0.00    +0.000 A 
ATOM     23  S   UNL     1      50.843  10.767  11.284  0.00  0.00    +0.000 S 
ATOM     24  C   UNL     1      49.235  11.209  11.641  0.00  0.00    +0.000 A 
ATOM     25  N   UNL     1      48.755  12.464  11.433  0.00  0.00    +0.000 NA
ATOM     26  C   UNL     1      47.501  12.606  11.720  0.00  0.00    +0.000 A 
ATOM     27  N   UNL     1      46.671  11.599  12.141  0.00  0.00    +0.000 N 
ATOM     28  C   UNL     1      47.102  10.306  12.333  0.00  0.00    +0.000 A 
ATOM     29  O   UNL     1      46.334   9.395  12.606  0.00  0.00    +0.000 OA
ATOM     30  C   UNL     1      48.531  10.149  12.166  0.00  0.00    +0.000 A 
ATOM     31  H   UNL     1      45.679  11.752  12.257  0.00  0.00    +0.000 HD
ENDBRANCH  18  21
ENDBRANCH   1  19
TORSDOF 5
ENDMDL
MODEL 6
REMARK VINA RESULT:    -6.737      3.495      5.298
REMARK INTER + INTRA:          -9.725
REMARK INTER:                  -8.934
REMARK INTRA:                  -0.792
REMARK UNBOUND:                -1.019
REMARK  Name = 
REMARK  5 active torsions:
REMARK  status: ('A' for Active; 'I' for Inactive)
REMARK    1  A    between atoms: C_2  and  C_19
REMARK    2  A    between atoms: N_3  and  C_4
REMARK    3  A    between atoms: C_4  and  C_5
REMARK    4  A    between atoms: C_8  and  C_9
REMARK    5  A    between atoms: C_9  and  N_10
REMARK                            x       y       z     vdW  Elec       q    Type
REMARK                         _______ _______ _______ _____ _____    ______ ____
ROOT
ATOM      1  C   UNL     1      46.877   4.078  14.456  0.00  0.00    +0.000 C 
ENDROOT
BRANCH   1   2
ATOM      2  C   UNL     1      46.353   5.249  13.664  0.00  0.00    +0.000 A 
ATOM      3  C   UNL     1      47.169   6.364  13.443  0.00  0.00    +0.000 A 
ATOM      4  C   UNL     1      46.687   7.467  12.735  0.00  0.00    +0.000 A 
ATOM      5  C   UNL     1      45.368   7.492  12.260  0.00  0.00    +0.000 A 
ATOM      6  C   UNL     1      44.546   6.382  12.488  0.00  0.00    +0.000 A 
ATOM      7  C   UNL     1      45.033   5.273  13.190  0.00  0.00    +0.000 A 
BRANCH   5   8
ATOM      8  C   UNL     1      44.853   8.711  11.526  0.00  0.00    +0.000 C 
BRANCH   8   9
ATOM      9  N   UNL     1      43.477   8.510  11.120  0.00  0.00    +0.000 N 
ATOM     10  C   UNL     1      42.923   9.634  10.521  0.00  0.00    +0.000 A 
ATOM     11  N   UNL     1      43.691  10.447   9.775  0.00  0.00    +0.000 NA
ATOM     12  C   UNL     1      43.098  11.523   9.225  0.00  0.00    +0.000 A 
ATOM     13  C   UNL     1      41.776  11.819   9.392  0.00  0.00    +0.000 A 
ATOM     14  C   UNL     1      41.068  10.938  10.168  0.00  0.00    +0.000 A 
ATOM     15  N   UNL     1      41.622   9.847  10.746  0.00  0.00    +0.000 NA
ATOM     16  H   UNL     1      42.840   8.219  11.853  0.00  0.00    +0.000 HD
ENDBRANCH   8   9
ENDBRANCH   5   8
ENDBRANCH   1   2
BRANCH   1  19
ATOM     17  O   UNL     1      46.531   3.224  17.159  0.00  0.00    +0.000 OA
ATOM     18  C   UNL     1      47.289   4.144  16.888  0.00  0.00    +0.000 C 
ATOM     19  N   UNL     1      47.597   4.552  15.610  0.00  0.00    +0.000 N 
ATOM     20  H   UNL     1      48.069   5.435  15.494  0.00  0.00    +0.000 HD
BRANCH  18  21
ATOM     21  C   UNL     1      47.800   5.084  17.877  0.00  0.00    +0.000 A 
ATOM     22  C   UNL     1      46.978   5.762  18.759  0.00  0.00    +0.000 A 
ATOM     23  S   UNL     1      47.744   7.167  19.383  0.00  0.00    +0.000 S 
ATOM     24  C   UNL     1      49.203   6.797  18.581  0.00  0.00    +0.000 A 
ATOM     25  N   UNL     1      50.257   7.655  18.539  0.00  0.00    +0.000 NA
ATOM     26  C   UNL     1      51.295   7.189  17.924  0.00  0.00    +0.000 A 
ATOM     27  N   UNL     1      51.398   5.927  17.398  0.00  0.00    +0.000 N 
ATOM     28  C   UNL     1      50.372   5.011  17.446  0.00  0.00    +0.000 A 
ATOM     29  O   UNL     1      50.508   3.856  17.069  0.00  0.00    +0.000 OA
ATOM     30  C   UNL     1      49.147   5.553  17.993  0.00  0.00    +0.000 A 
ATOM     31  H   UNL     1      52.270   5.589  17.015  0.00  0.00    +0.000 HD
ENDBRANCH  18  21
ENDBRANCH   1  19
TORSDOF 5
ENDMDL
MODEL 7
REMARK VINA RESULT:    -6.436      3.725      9.333
REMARK INTER + INTRA:          -9.336
REMARK INTER:                  -8.637
REMARK INTRA:                  -0.698
REMARK UNBOUND:                -1.019
REMARK  Name = 
REMARK  5 active torsions:
REMARK  status: ('A' for Active; 'I' for Inactive)
REMARK    1  A    between atoms: C_2  and  C_19
REMARK    2  A    between atoms: N_3  and  C_4
REMARK    3  A    between atoms: C_4  and  C_5
REMARK    4  A    between atoms: C_8  and  C_9
REMARK    5  A    between atoms: C_9  and  N_10
REMARK                            x       y       z     vdW  Elec       q    Type
REMARK                         _______ _______ _______ _____ _____    ______ ____
ROOT
ATOM      1  C   UNL     1      47.398   3.908  16.450  0.00  0.00    +0.000 C 
ENDROOT
BRANCH   1   2
ATOM      2  C   UNL     1      47.820   4.947  17.457  0.00  0.00    +0.000 A 
ATOM      3  C   UNL     1      49.091   5.527  17.372  0.00  0.00    +0.000 A 
ATOM      4  C   UNL     1      49.505   6.470  18.315  0.00  0.00    +0.000 A 
ATOM      5  C   UNL     1      48.670   6.832  19.381  0.00  0.00    +0.000 A 
ATOM      6  C   UNL     1      47.401   6.247  19.474  0.00  0.00    +0.000 A 
ATOM      7  C   UNL     1      46.983   5.308  18.523  0.00  0.00    +0.000 A 
BRANCH   5   8
ATOM      8  C   UNL     1      49.150   7.829  20.412  0.00  0.00    +0.000 C 
BRANCH   8   9
ATOM      9  N   UNL     1      48.861   9.181  19.980  0.00  0.00    +0.000 N 
ATOM     10  C   UNL     1      47.684   9.680  20.522  0.00  0.00    +0.000 A 
ATOM     11  N   UNL     1      47.307   9.319  21.761  0.00  0.00    +0.000 NA
ATOM     12  C   UNL     1      46.155   9.831  22.230  0.00  0.00    +0.000 A 
ATOM     13  C   UNL     1      45.366  10.685  21.515  0.00  0.00    +0.000 A 
ATOM     14  C   UNL     1      45.825  11.001  20.261  0.00  0.00    +0.000 A 
ATOM     15  N   UNL     1      46.974  10.505  19.744  0.00  0.00    +0.000 NA
ATOM     16  H   UNL     1      48.808   9.320  18.977  0.00  0.00    +0.000 HD
ENDBRANCH   8   9
ENDBRANCH   5   8
ENDBRANCH   1   2
BRANCH   1  19
ATOM     17  O   UNL     1      47.518   3.222  13.680  0.00  0.00    +0.000 OA
ATOM     18  C   UNL     1      46.875   4.193  14.055  0.00  0.00    +0.000 C 
ATOM     19  N   UNL     1      46.676   4.535  15.373  0.00  0.00    +0.000 N 
ATOM     20  H   UNL     1      46.305   5.450  15.576  0.00  0.00    +0.000 HD
BRANCH  18  21
ATOM     21  C   UNL     1      46.418   5.249  13.163  0.00  0.00    +0.000 A 
ATOM     22  C   UNL     1      46.893   6.545  13.231  0.00  0.00    +0.000 A 
ATOM     23  S   UNL     1      45.812   7.655  12.491  0.00  0.00    +0.000 S 
ATOM     24  C   UNL     1      44.785   6.396  11.972  0.00  0.00    +0.000 A 
ATOM     25  N   UNL     1      43.570   6.625  11.406  0.00  0.00    +0.000 NA
ATOM     26  C   UNL     1      42.949   5.553  11.035  0.00  0.00    +0.000 A 
ATOM     27  N   UNL     1      43.451   4.280  11.125  0.00  0.00    +0.000 N 
ATOM     28  C   UNL     1      44.689   4.002  11.657  0.00  0.00    +0.000 A 
ATOM     29  O   UNL     1      45.171   2.878  11.637  0.00  0.00    +0.000 OA
ATOM     30  C   UNL     1      45.345   5.163  12.219  0.00  0.00    +0.000 A 
ATOM     31  H   UNL     1      42.957   3.493  10.729  0.00  0.00    +0.000 HD
ENDBRANCH  18  21
ENDBRANCH   1  19
TORSDOF 5
ENDMDL
MODEL 8
REMARK VINA RESULT:    -6.368      2.394      3.329
REMARK INTER + INTRA:          -9.249
REMARK INTER:                  -8.344
REMARK INTRA:                  -0.905
REMARK UNBOUND:                -1.019
REMARK  Name = 
REMARK  5 active torsions:
REMARK  status: ('A' for Active; 'I' for Inactive)
REMARK    1  A    between atoms: C_2  and  C_19
REMARK    2  A    between atoms: N_3  and  C_4
REMARK    3  A    between atoms: C_4  and  C_5
REMARK    4  A    between atoms: C_8  and  C_9
REMARK    5  A    between atoms: C_9  and  N_10
REMARK                            x       y       z     vdW  Elec       q    Type
REMARK                         _______ _______ _______ _____ _____    ______ ____
ROOT
ATOM      1  C   UNL     1      49.765   8.105  14.627  0.00  0.00    +0.000 C 
ENDROOT
BRANCH   1   2
ATOM      2  C   UNL     1      48.535   8.017  13.762  0.00  0.00    +0.000 A 
ATOM      3  C   UNL     1      47.428   8.829  14.036  0.00  0.00    +0.000 A 
ATOM      4  C   UNL     1      46.271   8.738  13.260  0.00  0.00    +0.000 A 
ATOM      5  C   UNL     1      46.183   7.812  12.211  0.00  0.00    +0.000 A 
ATOM      6  C   UNL     1      47.285   6.991  11.939  0.00  0.00    +0.000 A 
ATOM      7  C   UNL     1      48.448   7.090  12.713  0.00  0.00    +0.000 A 
BRANCH   5   8
ATOM      8  C   UNL     1      44.909   7.704  11.404  0.00  0.00    +0.000 C 
BRANCH   8   9
ATOM      9  N   UNL     1      44.926   6.503  10.593  0.00  0.00    +0.000 N 
ATOM     10  C   UNL     1      44.448   5.389  11.270  0.00  0.00    +0.000 A 
ATOM     11  N   UNL     1      43.468   5.523  12.181  0.00  0.00    +0.000 NA
ATOM     12  C   UNL     1      43.051   4.408  12.808  0.00  0.00    +0.000 A 
ATOM     13  C   UNL     1      43.572   3.170  12.564  0.00  0.00    +0.000 A 
ATOM     14  C   UNL     1      44.567   3.124  11.621  0.00  0.00    +0.000 A 
ATOM     15  N   UNL     1      45.024   4.219  10.970  0.00  0.00    +0.000 NA
ATOM     16  H   UNL     1      45.826   6.250  10.201  0.00  0.00    +0.000 HD
ENDBRANCH   8   9
ENDBRANCH   5   8
ENDBRANCH   1   2
BRANCH   1  19
ATOM     17  O   UNL     1      48.934   7.793  17.341  0.00  0.00    +0.000 OA
ATOM     18  C   UNL     1      49.535   6.896  16.766  0.00  0.00    +0.000 C 
ATOM     19  N   UNL     1      49.881   6.917  15.434  0.00  0.00    +0.000 N 
ATOM     20  H   UNL     1      50.540   6.231  15.103  0.00  0.00    +0.000 HD
BRANCH  18  21
ATOM     21  C   UNL     1      50.169   5.781  17.456  0.00  0.00    +0.000 A 
ATOM     22  C   UNL     1      51.357   5.909  18.153  0.00  0.00    +0.000 A 
ATOM     23  S   UNL     1      52.135   4.393  18.360  0.00  0.00    +0.000 S 
ATOM     24  C   UNL     1      50.832   3.562  17.640  0.00  0.00    +0.000 A 
ATOM     25  N   UNL     1      50.881   2.236  17.341  0.00  0.00    +0.000 NA
ATOM     26  C   UNL     1      49.785   1.766  16.839  0.00  0.00    +0.000 A 
ATOM     27  N   UNL     1      48.629   2.482  16.661  0.00  0.00    +0.000 N 
ATOM     28  C   UNL     1      48.520   3.816  16.980  0.00  0.00    +0.000 A 
ATOM     29  O   UNL     1      47.458   4.419  16.917  0.00  0.00    +0.000 OA
ATOM     30  C   UNL     1      49.771   4.408  17.402  0.00  0.00    +0.000 A 
ATOM     31  H   UNL     1      47.777   2.033  16.353  0.00  0.00    +0.000 HD
ENDBRANCH  18  21
ENDBRANCH   1  19
TORSDOF 5
ENDMDL
MODEL 9
REMARK VINA RESULT:    -6.238      1.720      2.343
REMARK INTER + INTRA:          -9.081
REMARK INTER:                  -8.093
REMARK INTRA:                  -0.988
REMARK UNBOUND:                -1.019
REMARK  Name = 
REMARK  5 active torsions:
REMARK  status: ('A' for Active; 'I' for Inactive)
REMARK    1  A    between atoms: C_2  and  C_19
REMARK    2  A    between atoms: N_3  and  C_4
REMARK    3  A    between atoms: C_4  and  C_5
REMARK    4  A    between atoms: C_8  and  C_9
REMARK    5  A    between atoms: C_9  and  N_10
REMARK                            x       y       z     vdW  Elec       q    Type
REMARK                         _______ _______ _______ _____ _____    ______ ____
ROOT
ATOM      1  C   UNL     1      49.781   7.845  13.920  0.00  0.00    +0.000 C 
ENDROOT
BRANCH   1   2
ATOM      2  C   UNL     1      48.478   7.357  13.340  0.00  0.00    +0.000 A 
ATOM      3  C   UNL     1      47.510   8.278  12.923  0.00  0.00    +0.000 A 
ATOM      4  C   UNL     1      46.287   7.840  12.410  0.00  0.00    +0.000 A 
ATOM      5  C   UNL     1      45.992   6.472  12.332  0.00  0.00    +0.000 A 
ATOM      6  C   UNL     1      46.954   5.547  12.758  0.00  0.00    +0.000 A 
ATOM      7  C   UNL     1      48.184   5.988  13.264  0.00  0.00    +0.000 A 
BRANCH   5   8
ATOM      8  C   UNL     1      44.648   6.018  11.808  0.00  0.00    +0.000 C 
BRANCH   8   9
ATOM      9  N   UNL     1      44.643   6.026  10.359  0.00  0.00    +0.000 N 
ATOM     10  C   UNL     1      44.795   4.759   9.813  0.00  0.00    +0.000 A 
ATOM     11  N   UNL     1      44.278   3.688  10.440  0.00  0.00    +0.000 NA
ATOM     12  C   UNL     1      44.462   2.486   9.864  0.00  0.00    +0.000 A 
ATOM     13  C   UNL     1      45.140   2.311   8.693  0.00  0.00    +0.000 A 
ATOM     14  C   UNL     1      45.634   3.455   8.120  0.00  0.00    +0.000 A 
ATOM     15  N   UNL     1      45.480   4.684   8.666  0.00  0.00    +0.000 NA
ATOM     16  H   UNL     1      45.335   6.624   9.921  0.00  0.00    +0.000 HD
ENDBRANCH   8   9
ENDBRANCH   5   8
ENDBRANCH   1   2
BRANCH   1  19
ATOM     17  O   UNL     1      51.258   6.387  15.881  0.00  0.00    +0.000 OA
ATOM     18  C   UNL     1      50.357   7.145  16.215  0.00  0.00    +0.000 C 
ATOM     19  N   UNL     1      49.665   7.963  15.351  0.00  0.00    +0.000 N 
ATOM     20  H   UNL     1      48.819   8.398  15.682  0.00  0.00    +0.000 HD
BRANCH  18  21
ATOM     21  C   UNL     1      49.735   7.125  17.532  0.00  0.00    +0.000 A 
ATOM     22  C   UNL     1      49.795   8.197  18.403  0.00  0.00    +0.000 A 
ATOM     23  S   UNL     1      49.499   7.712  20.024  0.00  0.00    +0.000 S 
ATOM     24  C   UNL     1      49.166   6.110  19.542  0.00  0.00    +0.000 A 
ATOM     25  N   UNL     1      48.987   5.097  20.432  0.00  0.00    +0.000 NA
ATOM     26  C   UNL     1      48.701   3.959  19.888  0.00  0.00    +0.000 A 
ATOM     27  N   UNL     1      48.521   3.751  18.545  0.00  0.00    +0.000 N 
ATOM     28  C   UNL     1      48.657   4.751  17.609  0.00  0.00    +0.000 A 
ATOM     29  O   UNL     1      48.393   4.580  16.427  0.00  0.00    +0.000 OA
ATOM     30  C   UNL     1      49.125   6.000  18.170  0.00  0.00    +0.000 A 
ATOM     31  H   UNL     1      48.204   2.859  18.191  0.00  0.00    +0.000 HD
ENDBRANCH  18  21
ENDBRANCH   1  19
TORSDOF 5
ENDMDL
