MODEL 1
REMARK VINA RESULT:    -5.691      0.000      0.000
REMARK INTER + INTRA:         -11.882
REMARK INTER:                  -8.851
REMARK INTRA:                  -3.031
REMARK UNBOUND:                -3.031
REMARK  Name = 
REMARK  11 active torsions:
REMARK  status: ('A' for Active; 'I' for Inactive)
REMARK    1  A    between atoms: C_1  and  C_2
REMARK    2  A    between atoms: C_7  and  C_8
REMARK    3  A    between atoms: C_8  and  S_9
REMARK    4  A    between atoms: S_9  and  C_10
REMARK    5  A    between atoms: C_10  and  C_11
REMARK    6  A    between atoms: C_14  and  C_15
REMARK    7  A    between atoms: C_15  and  N_16
REMARK    8  A    between atoms: N_16  and  C_17
REMARK    9  A    between atoms: C_17  and  C_18
REMARK   10  A    between atoms: C_18  and  O_19
REMARK   11  A    between atoms: C_20  and  C_22
REMARK                            x       y       z     vdW  Elec       q    Type
REMARK                         _______ _______ _______ _____ _____    ______ ____
ROOT
ATOM      1  C   UNL     1      46.808   7.617  13.294  0.00  0.00    +0.000 C 
ENDROOT
BRANCH   1   5
ATOM      2  C   UNL     1      50.119   9.617  11.309  0.00  0.00    +0.000 A 
ATOM      3  C   UNL     1      50.110   8.221  11.452  0.00  0.00    +0.000 A 
ATOM      4  C   UNL     1      49.018   7.564  12.039  0.00  0.00    +0.000 A 
ATOM      5  C   UNL     1      47.900   8.286  12.476  0.00  0.00    +0.000 A 
ATOM      6  C   UNL     1      47.837   9.647  12.145  0.00  0.00    +0.000 A 
ATOM      7  C   UNL     1      48.941  10.314  11.594  0.00  0.00    +0.000 A 
BRANCH   2   8
ATOM      8  C   UNL     1      51.403  10.352  11.004  0.00  0.00    +0.000 C 
BRANCH   8   9
ATOM      9  S   UNL     1      52.755  10.146  12.195  0.00  0.00    +0.000 S 
BRANCH   9  10
ATOM     10  C   UNL     1      51.987  10.839  13.693  0.00  0.00    +0.000 C 
BRANCH  10  17
ATOM     11  C   UNL     1      49.366  11.457  15.107  0.00  0.00    +0.000 C 
ATOM     12  C   UNL     1      49.986  10.087  15.133  0.00  0.00    +0.000 A 
ATOM     13  C   UNL     1      49.304   9.062  15.817  0.00  0.00    +0.000 A 
ATOM     14  C   UNL     1      49.825   7.773  15.888  0.00  0.00    +0.000 A 
ATOM     15  C   UNL     1      51.040   7.487  15.277  0.00  0.00    +0.000 A 
ATOM     16  C   UNL     1      51.725   8.493  14.586  0.00  0.00    +0.000 A 
ATOM     17  C   UNL     1      51.214   9.802  14.494  0.00  0.00    +0.000 A 
ENDBRANCH  10  17
ENDBRANCH   9  10
ENDBRANCH   8   9
ENDBRANCH   2   8
ENDBRANCH   1   5
BRANCH   1  18
ATOM     18  N   UNL     1      46.414   6.262  12.812  0.00  0.00    +0.000 N 
ATOM     19  C   UNL     1      45.114   6.131  12.234  0.00  0.00    +0.000 C 
ATOM     20  O   UNL     1      44.396   7.123  12.084  0.00  0.00    +0.000 OA
BRANCH  19  21
ATOM     21  C   UNL     1      44.594   4.795  11.822  0.00  0.00    +0.000 A 
ATOM     22  C   UNL     1      43.690   4.043  12.560  0.00  0.00    +0.000 A 
ATOM     23  S   UNL     1      43.348   2.503  11.933  0.00  0.00    +0.000 S 
ATOM     24  C   UNL     1      44.159   2.883  10.497  0.00  0.00    +0.000 A 
ATOM     25  N   UNL     1      44.112   1.991   9.491  0.00  0.00    +0.000 NA
ATOM     26  C   UNL     1      44.740   2.408   8.394  0.00  0.00    +0.000 A 
ATOM     27  N   UNL     1      45.400   3.557   8.249  0.00  0.00    +0.000 NA
ATOM     28  C   UNL     1      45.433   4.395   9.303  0.00  0.00    +0.000 A 
ATOM     29 CL   UNL     1      46.315   5.817   9.050  0.00  0.00    +0.000 Cl
ATOM     30  C   UNL     1      44.789   4.125  10.514  0.00  0.00    +0.000 A 
ENDBRANCH  19  21
BRANCH  18  31
ATOM     31  C   UNL     1      47.133   5.081  13.290  0.00  0.00    +0.000 C 
BRANCH  31  32
ATOM     32  C   UNL     1      46.982   4.501  14.694  0.00  0.00    +0.000 C 
BRANCH  32  33
ATOM     33  O   UNL     1      47.448   3.155  14.725  0.00  0.00    +0.000 OA
ATOM     34  H   UNL     1      47.092   2.745  15.532  0.00  0.00    +0.000 HD
ENDBRANCH  32  33
ENDBRANCH  31  32
ENDBRANCH  18  31
ENDBRANCH   1  18
TORSDOF 10
ENDMDL
MODEL 2
REMARK VINA RESULT:    -5.676      2.974      4.973
REMARK INTER + INTRA:         -11.860
REMARK INTER:                  -9.453
REMARK INTRA:                  -2.407
REMARK UNBOUND:                -3.031
REMARK  Name = 
REMARK  11 active torsions:
REMARK  status: ('A' for Active; 'I' for Inactive)
REMARK    1  A    between atoms: C_1  and  C_2
REMARK    2  A    between atoms: C_7  and  C_8
REMARK    3  A    between atoms: C_8  and  S_9
REMARK    4  A    between atoms: S_9  and  C_10
REMARK    5  A    between atoms: C_10  and  C_11
REMARK    6  A    between atoms: C_14  and  C_15
REMARK    7  A    between atoms: C_15  and  N_16
REMARK    8  A    between atoms: N_16  and  C_17
REMARK    9  A    between atoms: C_17  and  C_18
REMARK   10  A    between atoms: C_18  and  O_19
REMARK   11  A    between atoms: C_20  and  C_22
REMARK                            x       y       z     vdW  Elec       q    Type
REMARK                         _______ _______ _______ _____ _____    ______ ____
ROOT
ATOM      1  C   UNL     1      47.459   8.666  12.755  0.00  0.00    +0.000 C 
ENDROOT
BRANCH   1   5
ATOM      2  C   UNL     1      49.245   8.006  16.664  0.00  0.00    +0.000 A 
ATOM      3  C   UNL     1      48.461   9.145  16.420  0.00  0.00    +0.000 A 
ATOM      4  C   UNL     1      47.834   9.334  15.180  0.00  0.00    +0.000 A 
ATOM      5  C   UNL     1      47.957   8.379  14.162  0.00  0.00    +0.000 A 
ATOM      6  C   UNL     1      48.571   7.161  14.487  0.00  0.00    +0.000 A 
ATOM      7  C   UNL     1      49.232   6.983  15.712  0.00  0.00    +0.000 A 
BRANCH   2   8
ATOM      8  C   UNL     1      50.187   7.958  17.845  0.00  0.00    +0.000 C 
BRANCH   8   9
ATOM      9  S   UNL     1      51.286   6.519  17.944  0.00  0.00    +0.000 S 
BRANCH   9  10
ATOM     10  C   UNL     1      50.324   5.440  19.052  0.00  0.00    +0.000 C 
BRANCH  10  17
ATOM     11  C   UNL     1      47.310   5.846  18.999  0.00  0.00    +0.000 C 
ATOM     12  C   UNL     1      47.979   4.719  18.261  0.00  0.00    +0.000 A 
ATOM     13  C   UNL     1      47.171   3.848  17.504  0.00  0.00    +0.000 A 
ATOM     14  C   UNL     1      47.724   2.779  16.803  0.00  0.00    +0.000 A 
ATOM     15  C   UNL     1      49.096   2.563  16.850  0.00  0.00    +0.000 A 
ATOM     16  C   UNL     1      49.913   3.425  17.590  0.00  0.00    +0.000 A 
ATOM     17  C   UNL     1      49.377   4.516  18.300  0.00  0.00    +0.000 A 
ENDBRANCH  10  17
ENDBRANCH   9  10
ENDBRANCH   8   9
ENDBRANCH   2   8
ENDBRANCH   1   5
BRANCH   1  18
ATOM     18  N   UNL     1      46.454   7.692  12.244  0.00  0.00    +0.000 N 
ATOM     19  C   UNL     1      46.939   6.633  11.417  0.00  0.00    +0.000 C 
ATOM     20  O   UNL     1      48.149   6.507  11.210  0.00  0.00    +0.000 OA
BRANCH  19  21
ATOM     21  C   UNL     1      45.994   5.674  10.774  0.00  0.00    +0.000 A 
ATOM     22  C   UNL     1      45.877   5.487   9.402  0.00  0.00    +0.000 A 
ATOM     23  S   UNL     1      44.644   4.426   8.919  0.00  0.00    +0.000 S 
ATOM     24  C   UNL     1      44.404   3.939  10.521  0.00  0.00    +0.000 A 
ATOM     25  N   UNL     1      43.539   2.935  10.753  0.00  0.00    +0.000 NA
ATOM     26  C   UNL     1      43.461   2.600  12.038  0.00  0.00    +0.000 A 
ATOM     27  N   UNL     1      44.110   3.179  13.049  0.00  0.00    +0.000 NA
ATOM     28  C   UNL     1      44.940   4.198  12.753  0.00  0.00    +0.000 A 
ATOM     29 CL   UNL     1      45.702   4.901  14.091  0.00  0.00    +0.000 Cl
ATOM     30  C   UNL     1      45.167   4.645  11.449  0.00  0.00    +0.000 A 
ENDBRANCH  19  21
BRANCH  18  31
ATOM     31  C   UNL     1      45.034   8.046  12.234  0.00  0.00    +0.000 C 
BRANCH  31  32
ATOM     32  C   UNL     1      44.468   9.284  11.543  0.00  0.00    +0.000 C 
BRANCH  32  33
ATOM     33  O   UNL     1      44.246  10.322  12.494  0.00  0.00    +0.000 OA
ATOM     34  H   UNL     1      43.703   9.947  13.208  0.00  0.00    +0.000 HD
ENDBRANCH  32  33
ENDBRANCH  31  32
ENDBRANCH  18  31
ENDBRANCH   1  18
TORSDOF 10
ENDMDL
MODEL 3
REMARK VINA RESULT:    -5.423      5.134      9.336
REMARK INTER + INTRA:         -11.465
REMARK INTER:                 -10.691
REMARK INTRA:                  -0.774
REMARK UNBOUND:                -3.031
REMARK  Name = 
REMARK  11 active torsions:
REMARK  status: ('A' for Active; 'I' for Inactive)
REMARK    1  A    between atoms: C_1  and  C_2
REMARK    2  A    between atoms: C_7  and  C_8
REMARK    3  A    between atoms: C_8  and  S_9
REMARK    4  A    between atoms: S_9  and  C_10
REMARK    5  A    between atoms: C_10  and  C_11
REMARK    6  A    between atoms: C_14  and  C_15
REMARK    7  A    between atoms: C_15  and  N_16
REMARK    8  A    between atoms: N_16  and  C_17
REMARK    9  A    between atoms: C_17  and  C_18
REMARK   10  A    between atoms: C_18  and  O_19
REMARK   11  A    between atoms: C_20  and  C_22
REMARK                            x       y       z     vdW  Elec       q    Type
REMARK                         _______ _______ _______ _____ _____    ______ ____
ROOT
ATOM      1  C   UNL     1      49.422   6.450  18.100  0.00  0.00    +0.000 C 
ENDROOT
BRANCH   1   5
ATOM      2  C   UNL     1      47.260   5.122  14.569  0.00  0.00    +0.000 A 
ATOM      3  C   UNL     1      48.108   6.239  14.509  0.00  0.00    +0.000 A 
ATOM      4  C   UNL     1      48.854   6.637  15.628  0.00  0.00    +0.000 A 
ATOM      5  C   UNL     1      48.785   5.915  16.827  0.00  0.00    +0.000 A 
ATOM      6  C   UNL     1      48.095   4.694  16.810  0.00  0.00    +0.000 A 
ATOM      7  C   UNL     1      47.319   4.312  15.707  0.00  0.00    +0.000 A 
BRANCH   2   8
ATOM      8  C   UNL     1      46.213   4.892  13.503  0.00  0.00    +0.000 C 
BRANCH   8   9
ATOM      9  S   UNL     1      45.845   6.295  12.415  0.00  0.00    +0.000 S 
BRANCH   9  10
ATOM     10  C   UNL     1      44.372   5.667  11.548  0.00  0.00    +0.000 C 
BRANCH  10  17
ATOM     11  C   UNL     1      43.469   2.767  11.710  0.00  0.00    +0.000 C 
ATOM     12  C   UNL     1      44.272   3.292  10.552  0.00  0.00    +0.000 A 
ATOM     13  C   UNL     1      44.584   2.404   9.504  0.00  0.00    +0.000 A 
ATOM     14  C   UNL     1      45.332   2.822   8.405  0.00  0.00    +0.000 A 
ATOM     15  C   UNL     1      45.781   4.134   8.338  0.00  0.00    +0.000 A 
ATOM     16  C   UNL     1      45.471   5.031   9.367  0.00  0.00    +0.000 A 
ATOM     17  C   UNL     1      44.711   4.634  10.483  0.00  0.00    +0.000 A 
ENDBRANCH  10  17
ENDBRANCH   9  10
ENDBRANCH   8   9
ENDBRANCH   2   8
ENDBRANCH   1   5
BRANCH   1  18
ATOM     18  N   UNL     1      50.500   5.588  18.662  0.00  0.00    +0.000 N 
ATOM     19  C   UNL     1      51.589   5.263  17.797  0.00  0.00    +0.000 C 
ATOM     20  O   UNL     1      51.650   5.746  16.663  0.00  0.00    +0.000 OA
BRANCH  19  21
ATOM     21  C   UNL     1      52.658   4.321  18.238  0.00  0.00    +0.000 A 
ATOM     22  C   UNL     1      53.780   4.694  18.969  0.00  0.00    +0.000 A 
ATOM     23  S   UNL     1      54.908   3.456  19.242  0.00  0.00    +0.000 S 
ATOM     24  C   UNL     1      53.820   2.302  18.656  0.00  0.00    +0.000 A 
ATOM     25  N   UNL     1      54.166   1.005  18.744  0.00  0.00    +0.000 NA
ATOM     26  C   UNL     1      53.221   0.180  18.300  0.00  0.00    +0.000 A 
ATOM     27  N   UNL     1      52.048   0.532  17.773  0.00  0.00    +0.000 NA
ATOM     28  C   UNL     1      51.773   1.848  17.686  0.00  0.00    +0.000 A 
ATOM     29 CL   UNL     1      50.279   2.214  16.978  0.00  0.00    +0.000 Cl
ATOM     30  C   UNL     1      52.641   2.842  18.147  0.00  0.00    +0.000 A 
ENDBRANCH  19  21
BRANCH  18  31
ATOM     31  C   UNL     1      50.243   4.787  19.859  0.00  0.00    +0.000 C 
BRANCH  31  32
ATOM     32  C   UNL     1      48.848   4.485  20.401  0.00  0.00    +0.000 C 
BRANCH  32  33
ATOM     33  O   UNL     1      48.466   3.154  20.069  0.00  0.00    +0.000 OA
ATOM     34  H   UNL     1      47.826   3.211  19.339  0.00  0.00    +0.000 HD
ENDBRANCH  32  33
ENDBRANCH  31  32
ENDBRANCH  18  31
ENDBRANCH   1  18
TORSDOF 10
ENDMDL
MODEL 4
REMARK VINA RESULT:    -5.267      4.859      9.180
REMARK INTER + INTRA:         -11.223
REMARK INTER:                 -10.072
REMARK INTRA:                  -1.151
REMARK UNBOUND:                -3.031
REMARK  Name = 
REMARK  11 active torsions:
REMARK  status: ('A' for Active; 'I' for Inactive)
REMARK    1  A    between atoms: C_1  and  C_2
REMARK    2  A    between atoms: C_7  and  C_8
REMARK    3  A    between atoms: C_8  and  S_9
REMARK    4  A    between atoms: S_9  and  C_10
REMARK    5  A    between atoms: C_10  and  C_11
REMARK    6  A    between atoms: C_14  and  C_15
REMARK    7  A    between atoms: C_15  and  N_16
REMARK    8  A    between atoms: N_16  and  C_17
REMARK    9  A    between atoms: C_17  and  C_18
REMARK   10  A    between atoms: C_18  and  O_19
REMARK   11  A    between atoms: C_20  and  C_22
REMARK                            x       y       z     vdW  Elec       q    Type
REMARK                         _______ _______ _______ _____ _____    ______ ____
ROOT
ATOM      1  C   UNL     1      48.176   3.775  17.547  0.00  0.00    +0.000 C 
ENDROOT
BRANCH   1   5
ATOM      2  C   UNL     1      47.332   5.690  13.736  0.00  0.00    +0.000 A 
ATOM      3  C   UNL     1      46.765   4.446  14.051  0.00  0.00    +0.000 A 
ATOM      4  C   UNL     1      46.986   3.850  15.302  0.00  0.00    +0.000 A 
ATOM      5  C   UNL     1      47.760   4.495  16.274  0.00  0.00    +0.000 A 
ATOM      6  C   UNL     1      48.150   5.818  16.021  0.00  0.00    +0.000 A 
ATOM      7  C   UNL     1      47.965   6.402  14.759  0.00  0.00    +0.000 A 
BRANCH   2   8
ATOM      8  C   UNL     1      47.388   6.171  12.304  0.00  0.00    +0.000 C 
BRANCH   8   9
ATOM      9  S   UNL     1      45.952   7.102  11.708  0.00  0.00    +0.000 S 
BRANCH   9  10
ATOM     10  C   UNL     1      44.666   5.815  11.782  0.00  0.00    +0.000 C 
BRANCH  10  17
ATOM     11  C   UNL     1      43.681   2.953  12.078  0.00  0.00    +0.000 C 
ATOM     12  C   UNL     1      44.334   3.448  10.817  0.00  0.00    +0.000 A 
ATOM     13  C   UNL     1      44.461   2.551   9.738  0.00  0.00    +0.000 A 
ATOM     14  C   UNL     1      45.063   2.942   8.544  0.00  0.00    +0.000 A 
ATOM     15  C   UNL     1      45.550   4.237   8.411  0.00  0.00    +0.000 A 
ATOM     16  C   UNL     1      45.422   5.142   9.470  0.00  0.00    +0.000 A 
ATOM     17  C   UNL     1      44.811   4.772  10.683  0.00  0.00    +0.000 A 
ENDBRANCH  10  17
ENDBRANCH   9  10
ENDBRANCH   8   9
ENDBRANCH   2   8
ENDBRANCH   1   5
BRANCH   1  18
ATOM     18  N   UNL     1      49.570   4.059  17.991  0.00  0.00    +0.000 N 
ATOM     19  C   UNL     1      50.607   3.247  17.437  0.00  0.00    +0.000 C 
ATOM     20  O   UNL     1      50.345   2.405  16.575  0.00  0.00    +0.000 OA
BRANCH  19  21
ATOM     21  C   UNL     1      52.017   3.388  17.902  0.00  0.00    +0.000 A 
ATOM     22  C   UNL     1      52.770   2.357  18.449  0.00  0.00    +0.000 A 
ATOM     23  S   UNL     1      54.308   2.804  19.011  0.00  0.00    +0.000 S 
ATOM     24  C   UNL     1      54.157   4.324  18.285  0.00  0.00    +0.000 A 
ATOM     25  N   UNL     1      55.223   5.145  18.310  0.00  0.00    +0.000 NA
ATOM     26  C   UNL     1      55.014   6.293  17.671  0.00  0.00    +0.000 A 
ATOM     27  N   UNL     1      53.881   6.674  17.079  0.00  0.00    +0.000 NA
ATOM     28  C   UNL     1      52.842   5.818  17.112  0.00  0.00    +0.000 A 
ATOM     29 CL   UNL     1      51.432   6.386  16.367  0.00  0.00    +0.000 Cl
ATOM     30  C   UNL     1      52.910   4.555  17.707  0.00  0.00    +0.000 A 
ENDBRANCH  19  21
BRANCH  18  31
ATOM     31  C   UNL     1      49.803   4.817  19.221  0.00  0.00    +0.000 C 
BRANCH  31  32
ATOM     32  C   UNL     1      48.880   4.776  20.437  0.00  0.00    +0.000 C 
BRANCH  32  33
ATOM     33  O   UNL     1      48.419   3.448  20.663  0.00  0.00    +0.000 OA
ATOM     34  H   UNL     1      48.209   3.373  21.609  0.00  0.00    +0.000 HD
ENDBRANCH  32  33
ENDBRANCH  31  32
ENDBRANCH  18  31
ENDBRANCH   1  18
TORSDOF 10
ENDMDL
MODEL 5
REMARK VINA RESULT:    -5.259      2.313      3.914
REMARK INTER + INTRA:         -11.210
REMARK INTER:                  -9.731
REMARK INTRA:                  -1.479
REMARK UNBOUND:                -3.031
REMARK  Name = 
REMARK  11 active torsions:
REMARK  status: ('A' for Active; 'I' for Inactive)
REMARK    1  A    between atoms: C_1  and  C_2
REMARK    2  A    between atoms: C_7  and  C_8
REMARK    3  A    between atoms: C_8  and  S_9
REMARK    4  A    between atoms: S_9  and  C_10
REMARK    5  A    between atoms: C_10  and  C_11
REMARK    6  A    between atoms: C_14  and  C_15
REMARK    7  A    between atoms: C_15  and  N_16
REMARK    8  A    between atoms: N_16  and  C_17
REMARK    9  A    between atoms: C_17  and  C_18
REMARK   10  A    between atoms: C_18  and  O_19
REMARK   11  A    between atoms: C_20  and  C_22
REMARK                            x       y       z     vdW  Elec       q    Type
REMARK                         _______ _______ _______ _____ _____    ______ ____
ROOT
ATOM      1  C   UNL     1      47.193   8.067  12.384  0.00  0.00    +0.000 C 
ENDROOT
BRANCH   1   5
ATOM      2  C   UNL     1      50.243   8.013  15.483  0.00  0.00    +0.000 A 
ATOM      3  C   UNL     1      50.603   8.009  14.126  0.00  0.00    +0.000 A 
ATOM      4  C   UNL     1      49.626   8.086  13.122  0.00  0.00    +0.000 A 
ATOM      5  C   UNL     1      48.269   8.191  13.451  0.00  0.00    +0.000 A 
ATOM      6  C   UNL     1      47.942   8.395  14.800  0.00  0.00    +0.000 A 
ATOM      7  C   UNL     1      48.910   8.281  15.808  0.00  0.00    +0.000 A 
BRANCH   2   8
ATOM      8  C   UNL     1      51.233   7.591  16.544  0.00  0.00    +0.000 C 
BRANCH   8   9
ATOM      9  S   UNL     1      50.610   7.513  18.245  0.00  0.00    +0.000 S 
BRANCH   9  10
ATOM     10  C   UNL     1      50.821   5.738  18.595  0.00  0.00    +0.000 C 
BRANCH  10  17
ATOM     11  C   UNL     1      51.145   2.934  17.464  0.00  0.00    +0.000 C 
ATOM     12  C   UNL     1      49.798   3.588  17.610  0.00  0.00    +0.000 A 
ATOM     13  C   UNL     1      48.659   2.853  17.229  0.00  0.00    +0.000 A 
ATOM     14  C   UNL     1      47.382   3.401  17.330  0.00  0.00    +0.000 A 
ATOM     15  C   UNL     1      47.225   4.695  17.810  0.00  0.00    +0.000 A 
ATOM     16  C   UNL     1      48.347   5.435  18.201  0.00  0.00    +0.000 A 
ATOM     17  C   UNL     1      49.646   4.899  18.116  0.00  0.00    +0.000 A 
ENDBRANCH  10  17
ENDBRANCH   9  10
ENDBRANCH   8   9
ENDBRANCH   2   8
ENDBRANCH   1   5
BRANCH   1  18
ATOM     18  N   UNL     1      46.682   6.682  12.178  0.00  0.00    +0.000 N 
ATOM     19  C   UNL     1      45.313   6.546  11.794  0.00  0.00    +0.000 C 
ATOM     20  O   UNL     1      44.624   7.546  11.575  0.00  0.00    +0.000 OA
BRANCH  19  21
ATOM     21  C   UNL     1      44.686   5.198  11.669  0.00  0.00    +0.000 A 
ATOM     22  C   UNL     1      43.753   4.680  12.559  0.00  0.00    +0.000 A 
ATOM     23  S   UNL     1      43.283   3.077  12.262  0.00  0.00    +0.000 S 
ATOM     24  C   UNL     1      44.075   3.097  10.767  0.00  0.00    +0.000 A 
ATOM     25  N   UNL     1      43.934   2.028   9.963  0.00  0.00    +0.000 NA
ATOM     26  C   UNL     1      44.556   2.166   8.795  0.00  0.00    +0.000 A 
ATOM     27  N   UNL     1      45.292   3.209   8.409  0.00  0.00    +0.000 NA
ATOM     28  C   UNL     1      45.417   4.236   9.271  0.00  0.00    +0.000 A 
ATOM     29 CL   UNL     1      46.391   5.507   8.721  0.00  0.00    +0.000 Cl
ATOM     30  C   UNL     1      44.792   4.266  10.521  0.00  0.00    +0.000 A 
ENDBRANCH  19  21
BRANCH  18  31
ATOM     31  C   UNL     1      47.406   5.545  12.748  0.00  0.00    +0.000 C 
BRANCH  31  32
ATOM     32  C   UNL     1      47.001   4.836  14.039  0.00  0.00    +0.000 C 
BRANCH  32  33
ATOM     33  O   UNL     1      47.350   3.456  13.974  0.00  0.00    +0.000 OA
ATOM     34  H   UNL     1      47.417   3.220  13.034  0.00  0.00    +0.000 HD
ENDBRANCH  32  33
ENDBRANCH  31  32
ENDBRANCH  18  31
ENDBRANCH   1  18
TORSDOF 10
ENDMDL
MODEL 6
REMARK VINA RESULT:    -5.066      3.858      6.037
REMARK INTER + INTRA:         -10.911
REMARK INTER:                  -7.844
REMARK INTRA:                  -3.067
REMARK UNBOUND:                -3.031
REMARK  Name = 
REMARK  11 active torsions:
REMARK  status: ('A' for Active; 'I' for Inactive)
REMARK    1  A    between atoms: C_1  and  C_2
REMARK    2  A    between atoms: C_7  and  C_8
REMARK    3  A    between atoms: C_8  and  S_9
REMARK    4  A    between atoms: S_9  and  C_10
REMARK    5  A    between atoms: C_10  and  C_11
REMARK    6  A    between atoms: C_14  and  C_15
REMARK    7  A    between atoms: C_15  and  N_16
REMARK    8  A    between atoms: N_16  and  C_17
REMARK    9  A    between atoms: C_17  and  C_18
REMARK   10  A    between atoms: C_18  and  O_19
REMARK   11  A    between atoms: C_20  and  C_22
REMARK                            x       y       z     vdW  Elec       q    Type
REMARK                         _______ _______ _______ _____ _____    ______ ____
ROOT
ATOM      1  C   UNL     1      50.223   7.533  14.902  0.00  0.00    +0.000 C 
ENDROOT
BRANCH   1   5
ATOM      2  C   UNL     1      50.846   5.336  18.602  0.00  0.00    +0.000 A 
ATOM      3  C   UNL     1      49.667   5.165  17.860  0.00  0.00    +0.000 A 
ATOM      4  C   UNL     1      49.485   5.826  16.636  0.00  0.00    +0.000 A 
ATOM      5  C   UNL     1      50.486   6.655  16.115  0.00  0.00    +0.000 A 
ATOM      6  C   UNL     1      51.730   6.657  16.764  0.00  0.00    +0.000 A 
ATOM      7  C   UNL     1      51.903   6.030  18.006  0.00  0.00    +0.000 A 
BRANCH   2   8
ATOM      8  C   UNL     1      50.910   4.916  20.052  0.00  0.00    +0.000 C 
BRANCH   8   9
ATOM      9  S   UNL     1      51.640   6.107  21.207  0.00  0.00    +0.000 S 
BRANCH   9  10
ATOM     10  C   UNL     1      50.147   6.992  21.761  0.00  0.00    +0.000 C 
BRANCH  10  17
ATOM     11  C   UNL     1      47.322   6.152  21.013  0.00  0.00    +0.000 C 
ATOM     12  C   UNL     1      48.053   7.241  20.279  0.00  0.00    +0.000 A 
ATOM     13  C   UNL     1      47.383   7.901  19.230  0.00  0.00    +0.000 A 
ATOM     14  C   UNL     1      48.005   8.914  18.503  0.00  0.00    +0.000 A 
ATOM     15  C   UNL     1      49.309   9.281  18.812  0.00  0.00    +0.000 A 
ATOM     16  C   UNL     1      49.984   8.641  19.857  0.00  0.00    +0.000 A 
ATOM     17  C   UNL     1      49.374   7.620  20.611  0.00  0.00    +0.000 A 
ENDBRANCH  10  17
ENDBRANCH   9  10
ENDBRANCH   8   9
ENDBRANCH   2   8
ENDBRANCH   1   5
BRANCH   1  18
ATOM     18  N   UNL     1      48.786   7.650  14.523  0.00  0.00    +0.000 N 
ATOM     19  C   UNL     1      48.346   6.880  13.403  0.00  0.00    +0.000 C 
ATOM     20  O   UNL     1      49.120   6.103  12.837  0.00  0.00    +0.000 OA
BRANCH  19  21
ATOM     21  C   UNL     1      46.953   7.013  12.886  0.00  0.00    +0.000 A 
ATOM     22  C   UNL     1      46.513   8.052  12.074  0.00  0.00    +0.000 A 
ATOM     23  S   UNL     1      44.853   8.040  11.721  0.00  0.00    +0.000 S 
ATOM     24  C   UNL     1      44.699   6.492  12.386  0.00  0.00    +0.000 A 
ATOM     25  N   UNL     1      43.511   5.871  12.273  0.00  0.00    +0.000 NA
ATOM     26  C   UNL     1      43.512   4.644  12.786  0.00  0.00    +0.000 A 
ATOM     27  N   UNL     1      44.533   4.042  13.397  0.00  0.00    +0.000 NA
ATOM     28  C   UNL     1      45.688   4.727  13.502  0.00  0.00    +0.000 A 
ATOM     29 CL   UNL     1      46.925   3.909  14.317  0.00  0.00    +0.000 Cl
ATOM     30  C   UNL     1      45.865   6.011  12.979  0.00  0.00    +0.000 A 
ENDBRANCH  19  21
BRANCH  18  31
ATOM     31  C   UNL     1      47.999   8.791  14.989  0.00  0.00    +0.000 C 
BRANCH  31  32
ATOM     32  C   UNL     1      48.500  10.234  14.981  0.00  0.00    +0.000 C 
BRANCH  32  33
ATOM     33  O   UNL     1      48.254  10.835  13.713  0.00  0.00    +0.000 OA
ATOM     34  H   UNL     1      48.732  10.310  13.048  0.00  0.00    +0.000 HD
ENDBRANCH  32  33
ENDBRANCH  31  32
ENDBRANCH  18  31
ENDBRANCH   1  18
TORSDOF 10
ENDMDL
MODEL 7
REMARK VINA RESULT:    -4.946      4.638      8.699
REMARK INTER + INTRA:         -10.724
REMARK INTER:                  -9.418
REMARK INTRA:                  -1.306
REMARK UNBOUND:                -3.031
REMARK  Name = 
REMARK  11 active torsions:
REMARK  status: ('A' for Active; 'I' for Inactive)
REMARK    1  A    between atoms: C_1  and  C_2
REMARK    2  A    between atoms: C_7  and  C_8
REMARK    3  A    between atoms: C_8  and  S_9
REMARK    4  A    between atoms: S_9  and  C_10
REMARK    5  A    between atoms: C_10  and  C_11
REMARK    6  A    between atoms: C_14  and  C_15
REMARK    7  A    between atoms: C_15  and  N_16
REMARK    8  A    between atoms: N_16  and  C_17
REMARK    9  A    between atoms: C_17  and  C_18
REMARK   10  A    between atoms: C_18  and  O_19
REMARK   11  A    between atoms: C_20  and  C_22
REMARK                            x       y       z     vdW  Elec       q    Type
REMARK                         _______ _______ _______ _____ _____    ______ ____
ROOT
ATOM      1  C   UNL     1      49.699   7.820  16.945  0.00  0.00    +0.000 C 
ENDROOT
BRANCH   1   5
ATOM      2  C   UNL     1      47.367   7.517  13.289  0.00  0.00    +0.000 A 
ATOM      3  C   UNL     1      47.791   6.361  13.962  0.00  0.00    +0.000 A 
ATOM      4  C   UNL     1      48.493   6.451  15.174  0.00  0.00    +0.000 A 
ATOM      5  C   UNL     1      48.767   7.698  15.750  0.00  0.00    +0.000 A 
ATOM      6  C   UNL     1      48.165   8.826  15.174  0.00  0.00    +0.000 A 
ATOM      7  C   UNL     1      47.496   8.745  13.944  0.00  0.00    +0.000 A 
BRANCH   2   8
ATOM      8  C   UNL     1      46.926   7.448  11.845  0.00  0.00    +0.000 C 
BRANCH   8   9
ATOM      9  S   UNL     1      45.140   7.332  11.550  0.00  0.00    +0.000 S 
BRANCH   9  10
ATOM     10  C   UNL     1      44.843   5.590  11.988  0.00  0.00    +0.000 C 
BRANCH  10  17
ATOM     11  C   UNL     1      43.555   2.835  11.977  0.00  0.00    +0.000 C 
ATOM     12  C   UNL     1      44.263   3.392  10.773  0.00  0.00    +0.000 A 
ATOM     13  C   UNL     1      44.298   2.609   9.602  0.00  0.00    +0.000 A 
ATOM     14  C   UNL     1      44.944   3.061   8.454  0.00  0.00    +0.000 A 
ATOM     15  C   UNL     1      45.568   4.303   8.459  0.00  0.00    +0.000 A 
ATOM     16  C   UNL     1      45.533   5.096   9.611  0.00  0.00    +0.000 A 
ATOM     17  C   UNL     1      44.880   4.664  10.781  0.00  0.00    +0.000 A 
ENDBRANCH  10  17
ENDBRANCH   9  10
ENDBRANCH   8   9
ENDBRANCH   2   8
ENDBRANCH   1   5
BRANCH   1  18
ATOM     18  N   UNL     1      50.721   6.740  17.046  0.00  0.00    +0.000 N 
ATOM     19  C   UNL     1      50.663   5.895  18.196  0.00  0.00    +0.000 C 
ATOM     20  O   UNL     1      49.753   6.025  19.019  0.00  0.00    +0.000 OA
BRANCH  19  21
ATOM     21  C   UNL     1      51.708   4.857  18.434  0.00  0.00    +0.000 A 
ATOM     22  C   UNL     1      52.845   5.052  19.208  0.00  0.00    +0.000 A 
ATOM     23  S   UNL     1      53.939   3.754  19.223  0.00  0.00    +0.000 S 
ATOM     24  C   UNL     1      52.812   2.764  18.442  0.00  0.00    +0.000 A 
ATOM     25  N   UNL     1      53.120   1.465  18.275  0.00  0.00    +0.000 NA
ATOM     26  C   UNL     1      52.148   0.767  17.694  0.00  0.00    +0.000 A 
ATOM     27  N   UNL     1      50.981   1.246  17.260  0.00  0.00    +0.000 NA
ATOM     28  C   UNL     1      50.744   2.561  17.431  0.00  0.00    +0.000 A 
ATOM     29 CL   UNL     1      49.257   3.097  16.827  0.00  0.00    +0.000 Cl
ATOM     30  C   UNL     1      51.645   3.424  18.061  0.00  0.00    +0.000 A 
ENDBRANCH  19  21
BRANCH  18  31
ATOM     31  C   UNL     1      51.946   6.820  16.249  0.00  0.00    +0.000 C 
BRANCH  31  32
ATOM     32  C   UNL     1      52.968   7.948  16.365  0.00  0.00    +0.000 C 
BRANCH  32  33
ATOM     33  O   UNL     1      53.152   8.310  17.730  0.00  0.00    +0.000 OA
ATOM     34  H   UNL     1      52.273   8.499  18.099  0.00  0.00    +0.000 HD
ENDBRANCH  32  33
ENDBRANCH  31  32
ENDBRANCH  18  31
ENDBRANCH   1  18
TORSDOF 10
ENDMDL
MODEL 8
REMARK VINA RESULT:    -4.843      4.920      9.299
REMARK INTER + INTRA:         -10.564
REMARK INTER:                  -8.323
REMARK INTRA:                  -2.241
REMARK UNBOUND:                -3.031
REMARK  Name = 
REMARK  11 active torsions:
REMARK  status: ('A' for Active; 'I' for Inactive)
REMARK    1  A    between atoms: C_1  and  C_2
REMARK    2  A    between atoms: C_7  and  C_8
REMARK    3  A    between atoms: C_8  and  S_9
REMARK    4  A    between atoms: S_9  and  C_10
REMARK    5  A    between atoms: C_10  and  C_11
REMARK    6  A    between atoms: C_14  and  C_15
REMARK    7  A    between atoms: C_15  and  N_16
REMARK    8  A    between atoms: N_16  and  C_17
REMARK    9  A    between atoms: C_17  and  C_18
REMARK   10  A    between atoms: C_18  and  O_19
REMARK   11  A    between atoms: C_20  and  C_22
REMARK                            x       y       z     vdW  Elec       q    Type
REMARK                         _______ _______ _______ _____ _____    ______ ____
ROOT
ATOM      1  C   UNL     1      47.670   4.345  17.598  0.00  0.00    +0.000 C 
ENDROOT
BRANCH   1   5
ATOM      2  C   UNL     1      47.567   6.036  13.595  0.00  0.00    +0.000 A 
ATOM      3  C   UNL     1      48.379   6.604  14.588  0.00  0.00    +0.000 A 
ATOM      4  C   UNL     1      48.462   6.028  15.865  0.00  0.00    +0.000 A 
ATOM      5  C   UNL     1      47.753   4.860  16.170  0.00  0.00    +0.000 A 
ATOM      6  C   UNL     1      47.110   4.197  15.115  0.00  0.00    +0.000 A 
ATOM      7  C   UNL     1      46.992   4.788  13.848  0.00  0.00    +0.000 A 
BRANCH   2   8
ATOM      8  C   UNL     1      47.205   6.821  12.354  0.00  0.00    +0.000 C 
BRANCH   8   9
ATOM      9  S   UNL     1      45.816   7.977  12.506  0.00  0.00    +0.000 S 
BRANCH   9  10
ATOM     10  C   UNL     1      44.659   7.266  11.292  0.00  0.00    +0.000 C 
BRANCH  10  17
ATOM     11  C   UNL     1      45.574   5.027   9.449  0.00  0.00    +0.000 C 
ATOM     12  C   UNL     1      44.798   4.759  10.709  0.00  0.00    +0.000 A 
ATOM     13  C   UNL     1      44.518   3.420  11.045  0.00  0.00    +0.000 A 
ATOM     14  C   UNL     1      43.796   3.102  12.193  0.00  0.00    +0.000 A 
ATOM     15  C   UNL     1      43.341   4.119  13.023  0.00  0.00    +0.000 A 
ATOM     16  C   UNL     1      43.619   5.453  12.708  0.00  0.00    +0.000 A 
ATOM     17  C   UNL     1      44.353   5.799  11.557  0.00  0.00    +0.000 A 
ENDBRANCH  10  17
ENDBRANCH   9  10
ENDBRANCH   8   9
ENDBRANCH   2   8
ENDBRANCH   1   5
BRANCH   1  18
ATOM     18  N   UNL     1      48.458   5.135  18.587  0.00  0.00    +0.000 N 
ATOM     19  C   UNL     1      49.781   4.680  18.875  0.00  0.00    +0.000 C 
ATOM     20  O   UNL     1      50.257   3.719  18.265  0.00  0.00    +0.000 OA
BRANCH  19  21
ATOM     21  C   UNL     1      50.603   5.344  19.928  0.00  0.00    +0.000 A 
ATOM     22  C   UNL     1      50.631   4.957  21.263  0.00  0.00    +0.000 A 
ATOM     23  S   UNL     1      51.554   5.950  22.284  0.00  0.00    +0.000 S 
ATOM     24  C   UNL     1      52.196   6.766  20.949  0.00  0.00    +0.000 A 
ATOM     25  N   UNL     1      53.164   7.674  21.169  0.00  0.00    +0.000 NA
ATOM     26  C   UNL     1      53.632   8.221  20.051  0.00  0.00    +0.000 A 
ATOM     27  N   UNL     1      53.208   7.974  18.811  0.00  0.00    +0.000 NA
ATOM     28  C   UNL     1      52.217   7.074  18.659  0.00  0.00    +0.000 A 
ATOM     29 CL   UNL     1      51.714   6.838  17.061  0.00  0.00    +0.000 Cl
ATOM     30  C   UNL     1      51.645   6.379  19.729  0.00  0.00    +0.000 A 
ENDBRANCH  19  21
BRANCH  18  31
ATOM     31  C   UNL     1      47.772   6.042  19.507  0.00  0.00    +0.000 C 
BRANCH  31  32
ATOM     32  C   UNL     1      47.626   7.544  19.275  0.00  0.00    +0.000 C 
BRANCH  32  33
ATOM     33  O   UNL     1      48.753   8.046  18.564  0.00  0.00    +0.000 OA
ATOM     34  H   UNL     1      49.490   7.431  18.722  0.00  0.00    +0.000 HD
ENDBRANCH  32  33
ENDBRANCH  31  32
ENDBRANCH  18  31
ENDBRANCH   1  18
TORSDOF 10
ENDMDL
MODEL 9
REMARK VINA RESULT:    -4.758      3.730      5.999
REMARK INTER + INTRA:         -10.432
REMARK INTER:                  -8.530
REMARK INTRA:                  -1.902
REMARK UNBOUND:                -3.031
REMARK  Name = 
REMARK  11 active torsions:
REMARK  status: ('A' for Active; 'I' for Inactive)
REMARK    1  A    between atoms: C_1  and  C_2
REMARK    2  A    between atoms: C_7  and  C_8
REMARK    3  A    between atoms: C_8  and  S_9
REMARK    4  A    between atoms: S_9  and  C_10
REMARK    5  A    between atoms: C_10  and  C_11
REMARK    6  A    between atoms: C_14  and  C_15
REMARK    7  A    between atoms: C_15  and  N_16
REMARK    8  A    between atoms: N_16  and  C_17
REMARK    9  A    between atoms: C_17  and  C_18
REMARK   10  A    between atoms: C_18  and  O_19
REMARK   11  A    between atoms: C_20  and  C_22
REMARK                            x       y       z     vdW  Elec       q    Type
REMARK                         _______ _______ _______ _____ _____    ______ ____
ROOT
ATOM      1  C   UNL     1      50.105   7.444  14.637  0.00  0.00    +0.000 C 
ENDROOT
BRANCH   1   5
ATOM      2  C   UNL     1      50.541   7.172  18.954  0.00  0.00    +0.000 A 
ATOM      3  C   UNL     1      51.202   6.265  18.111  0.00  0.00    +0.000 A 
ATOM      4  C   UNL     1      51.113   6.383  16.716  0.00  0.00    +0.000 A 
ATOM      5  C   UNL     1      50.379   7.424  16.132  0.00  0.00    +0.000 A 
ATOM      6  C   UNL     1      49.896   8.432  16.979  0.00  0.00    +0.000 A 
ATOM      7  C   UNL     1      49.949   8.298  18.374  0.00  0.00    +0.000 A 
BRANCH   2   8
ATOM      8  C   UNL     1      50.347   6.859  20.420  0.00  0.00    +0.000 C 
BRANCH   8   9
ATOM      9  S   UNL     1      50.593   5.134  20.918  0.00  0.00    +0.000 S 
BRANCH   9  10
ATOM     10  C   UNL     1      48.910   4.476  20.684  0.00  0.00    +0.000 C 
BRANCH  10  17
ATOM     11  C   UNL     1      46.932   6.168  19.112  0.00  0.00    +0.000 C 
ATOM     12  C   UNL     1      47.672   5.017  18.489  0.00  0.00    +0.000 A 
ATOM     13  C   UNL     1      47.450   4.744  17.125  0.00  0.00    +0.000 A 
ATOM     14  C   UNL     1      48.097   3.688  16.487  0.00  0.00    +0.000 A 
ATOM     15  C   UNL     1      48.975   2.885  17.205  0.00  0.00    +0.000 A 
ATOM     16  C   UNL     1      49.214   3.150  18.558  0.00  0.00    +0.000 A 
ATOM     17  C   UNL     1      48.577   4.216  19.222  0.00  0.00    +0.000 A 
ENDBRANCH  10  17
ENDBRANCH   9  10
ENDBRANCH   8   9
ENDBRANCH   2   8
ENDBRANCH   1   5
BRANCH   1  18
ATOM     18  N   UNL     1      48.669   7.605  14.273  0.00  0.00    +0.000 N 
ATOM     19  C   UNL     1      48.135   6.689  13.316  0.00  0.00    +0.000 C 
ATOM     20  O   UNL     1      48.830   5.768  12.879  0.00  0.00    +0.000 OA
BRANCH  19  21
ATOM     21  C   UNL     1      46.739   6.839  12.813  0.00  0.00    +0.000 A 
ATOM     22  C   UNL     1      46.253   7.972  12.171  0.00  0.00    +0.000 A 
ATOM     23  S   UNL     1      44.596   7.940  11.803  0.00  0.00    +0.000 S 
ATOM     24  C   UNL     1      44.513   6.301  12.215  0.00  0.00    +0.000 A 
ATOM     25  N   UNL     1      43.355   5.652  11.994  0.00  0.00    +0.000 NA
ATOM     26  C   UNL     1      43.412   4.360  12.307  0.00  0.00    +0.000 A 
ATOM     27  N   UNL     1      44.458   3.717  12.825  0.00  0.00    +0.000 NA
ATOM     28  C   UNL     1      45.580   4.429  13.048  0.00  0.00    +0.000 A 
ATOM     29 CL   UNL     1      46.852   3.549  13.736  0.00  0.00    +0.000 Cl
ATOM     30  C   UNL     1      45.698   5.786  12.736  0.00  0.00    +0.000 A 
ENDBRANCH  19  21
BRANCH  18  31
ATOM     31  C   UNL     1      47.984   8.868  14.549  0.00  0.00    +0.000 C 
BRANCH  31  32
ATOM     32  C   UNL     1      48.489  10.232  14.085  0.00  0.00    +0.000 C 
BRANCH  32  33
ATOM     33  O   UNL     1      48.507  11.149  15.176  0.00  0.00    +0.000 OA
ATOM     34  H   UNL     1      47.583  11.308  15.433  0.00  0.00    +0.000 HD
ENDBRANCH  32  33
ENDBRANCH  31  32
ENDBRANCH  18  31
ENDBRANCH   1  18
TORSDOF 10
ENDMDL
