MODEL 1
REMARK VINA RESULT:    -8.697      0.000      0.000
REMARK INTER + INTRA:         -13.833
REMARK INTER:                 -12.765
REMARK INTRA:                  -1.068
REMARK UNBOUND:                -1.068
REMARK  Name = 
REMARK  10 active torsions:
REMARK  status: ('A' for Active; 'I' for Inactive)
REMARK    1  A    between atoms: C_1  and  C_2
REMARK    2  A    between atoms: C_8  and  C_9
REMARK    3  A    between atoms: C_9  and  O_11
REMARK    4  A    between atoms: O_11  and  C_12
REMARK    5  A    between atoms: C_12  and  C_13
REMARK    6  A    between atoms: C_16  and  O_17
REMARK    7  A    between atoms: O_17  and  C_18
REMARK    8  A    between atoms: C_18  and  C_19
REMARK    9  A    between atoms: C_19  and  C_20
REMARK   10  A    between atoms: C_30  and  C_31
REMARK                            x       y       z     vdW  Elec       q    Type
REMARK                         _______ _______ _______ _____ _____    ______ ____
ROOT
ATOM      1  C   UNL     1      46.673   4.904  13.871  0.00  0.00    +0.000 A 
ATOM      2  C   UNL     1      46.667   6.156  13.250  0.00  0.00    +0.000 A 
ATOM      3  C   UNL     1      46.017   6.339  12.030  0.00  0.00    +0.000 A 
ATOM      4  C   UNL     1      45.361   5.276  11.407  0.00  0.00    +0.000 A 
ATOM      5  C   UNL     1      45.357   4.025  12.027  0.00  0.00    +0.000 A 
ATOM      6  C   UNL     1      46.007   3.838  13.252  0.00  0.00    +0.000 A 
ENDROOT
BRANCH   1   7
ATOM      7  C   UNL     1      47.351   4.728  15.205  0.00  0.00    +0.000 C 
BRANCH   7   8
ATOM      8  O   UNL     1      47.638   3.341  15.418  0.00  0.00    +0.000 OA
BRANCH   8   9
ATOM      9  C   UNL     1      47.675   2.971  16.726  0.00  0.00    +0.000 C 
ATOM     10  O   UNL     1      46.700   2.779  17.438  0.00  0.00    +0.000 OA
BRANCH   9  18
ATOM     11  C   UNL     1      50.460   6.976  20.049  0.00  0.00    +0.000 C 
ATOM     12  C   UNL     1      50.435   5.700  19.265  0.00  0.00    +0.000 A 
ATOM     13  S   UNL     1      51.856   4.785  19.101  0.00  0.00    +0.000 S 
ATOM     14  C   UNL     1      51.064   3.602  18.178  0.00  0.00    +0.000 A 
ATOM     15  N   UNL     1      51.774   2.549  17.742  0.00  0.00    +0.000 NA
ATOM     16  C   UNL     1      51.053   1.685  17.039  0.00  0.00    +0.000 A 
ATOM     17  N   UNL     1      49.756   1.781  16.748  0.00  0.00    +0.000 NA
ATOM     18  C   UNL     1      49.073   2.873  17.193  0.00  0.00    +0.000 A 
ATOM     19  C   UNL     1      49.716   3.868  17.961  0.00  0.00    +0.000 A 
ATOM     20  C   UNL     1      49.345   5.124  18.621  0.00  0.00    +0.000 A 
ATOM     21  C   UNL     1      48.006   5.798  18.682  0.00  0.00    +0.000 C 
ENDBRANCH   9  18
ENDBRANCH   8   9
ENDBRANCH   7   8
ENDBRANCH   1   7
BRANCH   4  22
ATOM     22  O   UNL     1      44.697   5.350  10.208  0.00  0.00    +0.000 OA
BRANCH  22  23
ATOM     23  C   UNL     1      45.483   5.022   9.058  0.00  0.00    +0.000 C 
BRANCH  23  24
ATOM     24  C   UNL     1      44.814   3.904   8.264  0.00  0.00    +0.000 C 
BRANCH  24  25
ATOM     25  C   UNL     1      45.843   2.992   7.644  0.00  0.00    +0.000 A 
ATOM     26  C   UNL     1      46.618   3.407   6.553  0.00  0.00    +0.000 A 
ATOM     27  C   UNL     1      47.545   2.536   5.974  0.00  0.00    +0.000 A 
ATOM     28  C   UNL     1      47.703   1.241   6.472  0.00  0.00    +0.000 A 
ATOM     29  C   UNL     1      46.922   0.813   7.542  0.00  0.00    +0.000 A 
ATOM     30  C   UNL     1      46.000   1.684   8.115  0.00  0.00    +0.000 A 
ATOM     31  F   UNL     1      45.243   1.247   9.130  0.00  0.00    +0.000 F 
ENDBRANCH  24  25
ENDBRANCH  23  24
ENDBRANCH  22  23
ENDBRANCH   4  22
TORSDOF 8
ENDMDL
MODEL 2
REMARK VINA RESULT:    -8.223      1.386      2.264
REMARK INTER + INTRA:         -13.138
REMARK INTER:                 -12.407
REMARK INTRA:                  -0.731
REMARK UNBOUND:                -1.068
REMARK  Name = 
REMARK  10 active torsions:
REMARK  status: ('A' for Active; 'I' for Inactive)
REMARK    1  A    between atoms: C_1  and  C_2
REMARK    2  A    between atoms: C_8  and  C_9
REMARK    3  A    between atoms: C_9  and  O_11
REMARK    4  A    between atoms: O_11  and  C_12
REMARK    5  A    between atoms: C_12  and  C_13
REMARK    6  A    between atoms: C_16  and  O_17
REMARK    7  A    between atoms: O_17  and  C_18
REMARK    8  A    between atoms: C_18  and  C_19
REMARK    9  A    between atoms: C_19  and  C_20
REMARK   10  A    between atoms: C_30  and  C_31
REMARK                            x       y       z     vdW  Elec       q    Type
REMARK                         _______ _______ _______ _____ _____    ______ ____
ROOT
ATOM      1  C   UNL     1      46.972   5.092  13.971  0.00  0.00    +0.000 A 
ATOM      2  C   UNL     1      47.194   6.240  13.205  0.00  0.00    +0.000 A 
ATOM      3  C   UNL     1      46.628   6.366  11.937  0.00  0.00    +0.000 A 
ATOM      4  C   UNL     1      45.829   5.350  11.410  0.00  0.00    +0.000 A 
ATOM      5  C   UNL     1      45.598   4.204  12.175  0.00  0.00    +0.000 A 
ATOM      6  C   UNL     1      46.163   4.075  13.448  0.00  0.00    +0.000 A 
ENDROOT
BRANCH   1   7
ATOM      7  C   UNL     1      47.563   4.983  15.353  0.00  0.00    +0.000 C 
BRANCH   7   8
ATOM      8  O   UNL     1      47.535   3.616  15.780  0.00  0.00    +0.000 OA
BRANCH   8   9
ATOM      9  C   UNL     1      47.359   3.450  17.118  0.00  0.00    +0.000 C 
ATOM     10  O   UNL     1      46.542   2.706  17.641  0.00  0.00    +0.000 OA
BRANCH   9  18
ATOM     11  C   UNL     1      53.111   2.476  18.019  0.00  0.00    +0.000 C 
ATOM     12  C   UNL     1      51.863   3.279  18.217  0.00  0.00    +0.000 A 
ATOM     13  S   UNL     1      51.898   4.659  19.206  0.00  0.00    +0.000 S 
ATOM     14  C   UNL     1      50.255   4.979  18.927  0.00  0.00    +0.000 A 
ATOM     15  N   UNL     1      49.703   6.053  19.515  0.00  0.00    +0.000 NA
ATOM     16  C   UNL     1      48.418   6.210  19.221  0.00  0.00    +0.000 A 
ATOM     17  N   UNL     1      47.680   5.426  18.436  0.00  0.00    +0.000 NA
ATOM     18  C   UNL     1      48.271   4.336  17.870  0.00  0.00    +0.000 A 
ATOM     19  C   UNL     1      49.636   4.053  18.093  0.00  0.00    +0.000 A 
ATOM     20  C   UNL     1      50.608   3.042  17.667  0.00  0.00    +0.000 A 
ATOM     21  C   UNL     1      50.408   1.868  16.752  0.00  0.00    +0.000 C 
ENDBRANCH   9  18
ENDBRANCH   8   9
ENDBRANCH   7   8
ENDBRANCH   1   7
BRANCH   4  22
ATOM     22  O   UNL     1      45.231   5.374  10.175  0.00  0.00    +0.000 OA
BRANCH  22  23
ATOM     23  C   UNL     1      44.375   4.263   9.893  0.00  0.00    +0.000 C 
BRANCH  23  24
ATOM     24  C   UNL     1      44.334   3.997   8.391  0.00  0.00    +0.000 C 
BRANCH  24  25
ATOM     25  C   UNL     1      45.510   3.158   7.959  0.00  0.00    +0.000 A 
ATOM     26  C   UNL     1      46.523   3.689   7.150  0.00  0.00    +0.000 A 
ATOM     27  C   UNL     1      47.590   2.886   6.735  0.00  0.00    +0.000 A 
ATOM     28  C   UNL     1      47.653   1.545   7.119  0.00  0.00    +0.000 A 
ATOM     29  C   UNL     1      46.641   1.003   7.906  0.00  0.00    +0.000 A 
ATOM     30  C   UNL     1      45.581   1.807   8.315  0.00  0.00    +0.000 A 
ATOM     31  F   UNL     1      44.606   1.262   9.055  0.00  0.00    +0.000 F 
ENDBRANCH  24  25
ENDBRANCH  23  24
ENDBRANCH  22  23
ENDBRANCH   4  22
TORSDOF 8
ENDMDL
MODEL 3
REMARK VINA RESULT:    -8.074      1.982      2.669
REMARK INTER + INTRA:         -12.918
REMARK INTER:                 -11.787
REMARK INTRA:                  -1.131
REMARK UNBOUND:                -1.068
REMARK  Name = 
REMARK  10 active torsions:
REMARK  status: ('A' for Active; 'I' for Inactive)
REMARK    1  A    between atoms: C_1  and  C_2
REMARK    2  A    between atoms: C_8  and  C_9
REMARK    3  A    between atoms: C_9  and  O_11
REMARK    4  A    between atoms: O_11  and  C_12
REMARK    5  A    between atoms: C_12  and  C_13
REMARK    6  A    between atoms: C_16  and  O_17
REMARK    7  A    between atoms: O_17  and  C_18
REMARK    8  A    between atoms: C_18  and  C_19
REMARK    9  A    between atoms: C_19  and  C_20
REMARK   10  A    between atoms: C_30  and  C_31
REMARK                            x       y       z     vdW  Elec       q    Type
REMARK                         _______ _______ _______ _____ _____    ______ ____
ROOT
ATOM      1  C   UNL     1      46.997   5.745  12.716  0.00  0.00    +0.000 A 
ATOM      2  C   UNL     1      46.504   4.563  13.277  0.00  0.00    +0.000 A 
ATOM      3  C   UNL     1      45.521   3.823  12.621  0.00  0.00    +0.000 A 
ATOM      4  C   UNL     1      45.012   4.248  11.392  0.00  0.00    +0.000 A 
ATOM      5  C   UNL     1      45.507   5.424  10.824  0.00  0.00    +0.000 A 
ATOM      6  C   UNL     1      46.494   6.168  11.479  0.00  0.00    +0.000 A 
ENDROOT
BRANCH   1   7
ATOM      7  C   UNL     1      48.082   6.517  13.420  0.00  0.00    +0.000 C 
BRANCH   7   8
ATOM      8  O   UNL     1      47.809   6.555  14.826  0.00  0.00    +0.000 OA
BRANCH   8   9
ATOM      9  C   UNL     1      48.918   6.599  15.611  0.00  0.00    +0.000 C 
ATOM     10  O   UNL     1      49.917   7.269  15.393  0.00  0.00    +0.000 OA
BRANCH   9  18
ATOM     11  C   UNL     1      47.542   8.194  21.125  0.00  0.00    +0.000 C 
ATOM     12  C   UNL     1      47.920   7.164  20.106  0.00  0.00    +0.000 A 
ATOM     13  S   UNL     1      48.148   5.551  20.584  0.00  0.00    +0.000 S 
ATOM     14  C   UNL     1      48.507   5.065  18.999  0.00  0.00    +0.000 A 
ATOM     15  N   UNL     1      48.789   3.771  18.773  0.00  0.00    +0.000 NA
ATOM     16  C   UNL     1      49.046   3.504  17.499  0.00  0.00    +0.000 A 
ATOM     17  N   UNL     1      49.048   4.372  16.489  0.00  0.00    +0.000 NA
ATOM     18  C   UNL     1      48.773   5.679  16.758  0.00  0.00    +0.000 A 
ATOM     19  C   UNL     1      48.475   6.102  18.072  0.00  0.00    +0.000 A 
ATOM     20  C   UNL     1      48.116   7.356  18.742  0.00  0.00    +0.000 A 
ATOM     21  C   UNL     1      47.937   8.724  18.151  0.00  0.00    +0.000 C 
ENDBRANCH   9  18
ENDBRANCH   8   9
ENDBRANCH   7   8
ENDBRANCH   1   7
BRANCH   4  22
ATOM     22  O   UNL     1      44.044   3.597  10.669  0.00  0.00    +0.000 OA
BRANCH  22  23
ATOM     23  C   UNL     1      44.368   3.359   9.296  0.00  0.00    +0.000 C 
BRANCH  23  24
ATOM     24  C   UNL     1      45.320   2.173   9.178  0.00  0.00    +0.000 C 
BRANCH  24  25
ATOM     25  C   UNL     1      46.114   2.244   7.897  0.00  0.00    +0.000 A 
ATOM     26  C   UNL     1      46.182   3.427   7.150  0.00  0.00    +0.000 A 
ATOM     27  C   UNL     1      46.898   3.465   5.949  0.00  0.00    +0.000 A 
ATOM     28  C   UNL     1      47.545   2.321   5.480  0.00  0.00    +0.000 A 
ATOM     29  C   UNL     1      47.466   1.135   6.204  0.00  0.00    +0.000 A 
ATOM     30  C   UNL     1      46.752   1.104   7.399  0.00  0.00    +0.000 A 
ATOM     31  F   UNL     1      46.669  -0.052   8.071  0.00  0.00    +0.000 F 
ENDBRANCH  24  25
ENDBRANCH  23  24
ENDBRANCH  22  23
ENDBRANCH   4  22
TORSDOF 8
ENDMDL
MODEL 4
REMARK VINA RESULT:    -7.666      2.310      3.158
REMARK INTER + INTRA:         -12.320
REMARK INTER:                 -10.860
REMARK INTRA:                  -1.460
REMARK UNBOUND:                -1.068
REMARK  Name = 
REMARK  10 active torsions:
REMARK  status: ('A' for Active; 'I' for Inactive)
REMARK    1  A    between atoms: C_1  and  C_2
REMARK    2  A    between atoms: C_8  and  C_9
REMARK    3  A    between atoms: C_9  and  O_11
REMARK    4  A    between atoms: O_11  and  C_12
REMARK    5  A    between atoms: C_12  and  C_13
REMARK    6  A    between atoms: C_16  and  O_17
REMARK    7  A    between atoms: O_17  and  C_18
REMARK    8  A    between atoms: C_18  and  C_19
REMARK    9  A    between atoms: C_19  and  C_20
REMARK   10  A    between atoms: C_30  and  C_31
REMARK                            x       y       z     vdW  Elec       q    Type
REMARK                         _______ _______ _______ _____ _____    ______ ____
ROOT
ATOM      1  C   UNL     1      47.307   6.547  13.195  0.00  0.00    +0.000 A 
ATOM      2  C   UNL     1      46.138   7.233  12.854  0.00  0.00    +0.000 A 
ATOM      3  C   UNL     1      44.923   6.557  12.756  0.00  0.00    +0.000 A 
ATOM      4  C   UNL     1      44.851   5.184  12.998  0.00  0.00    +0.000 A 
ATOM      5  C   UNL     1      46.016   4.495  13.346  0.00  0.00    +0.000 A 
ATOM      6  C   UNL     1      47.236   5.171  13.446  0.00  0.00    +0.000 A 
ENDROOT
BRANCH   1   7
ATOM      7  C   UNL     1      48.607   7.296  13.329  0.00  0.00    +0.000 C 
BRANCH   7   8
ATOM      8  O   UNL     1      49.411   6.685  14.346  0.00  0.00    +0.000 OA
BRANCH   8   9
ATOM      9  C   UNL     1      49.121   7.092  15.610  0.00  0.00    +0.000 C 
ATOM     10  O   UNL     1      48.816   8.229  15.938  0.00  0.00    +0.000 OA
BRANCH   9  18
ATOM     11  C   UNL     1      54.241   5.025  17.699  0.00  0.00    +0.000 C 
ATOM     12  C   UNL     1      52.748   4.977  17.582  0.00  0.00    +0.000 A 
ATOM     13  S   UNL     1      51.883   3.743  18.363  0.00  0.00    +0.000 S 
ATOM     14  C   UNL     1      50.397   4.344  17.806  0.00  0.00    +0.000 A 
ATOM     15  N   UNL     1      49.273   3.699  18.155  0.00  0.00    +0.000 NA
ATOM     16  C   UNL     1      48.172   4.261  17.671  0.00  0.00    +0.000 A 
ATOM     17  N   UNL     1      48.105   5.350  16.907  0.00  0.00    +0.000 NA
ATOM     18  C   UNL     1      49.268   5.969  16.559  0.00  0.00    +0.000 A 
ATOM     19  C   UNL     1      50.513   5.481  17.011  0.00  0.00    +0.000 A 
ATOM     20  C   UNL     1      51.925   5.857  16.887  0.00  0.00    +0.000 A 
ATOM     21  C   UNL     1      52.532   7.018  16.153  0.00  0.00    +0.000 C 
ENDBRANCH   9  18
ENDBRANCH   8   9
ENDBRANCH   7   8
ENDBRANCH   1   7
BRANCH   4  22
ATOM     22  O   UNL     1      43.709   4.426  12.924  0.00  0.00    +0.000 OA
BRANCH  22  23
ATOM     23  C   UNL     1      43.159   4.282  11.610  0.00  0.00    +0.000 C 
BRANCH  23  24
ATOM     24  C   UNL     1      43.693   3.013  10.952  0.00  0.00    +0.000 C 
BRANCH  24  25
ATOM     25  C   UNL     1      44.634   3.347   9.822  0.00  0.00    +0.000 A 
ATOM     26  C   UNL     1      45.098   4.654   9.625  0.00  0.00    +0.000 A 
ATOM     27  C   UNL     1      45.947   4.949   8.554  0.00  0.00    +0.000 A 
ATOM     28  C   UNL     1      46.335   3.944   7.666  0.00  0.00    +0.000 A 
ATOM     29  C   UNL     1      45.862   2.646   7.841  0.00  0.00    +0.000 A 
ATOM     30  C   UNL     1      45.018   2.359   8.909  0.00  0.00    +0.000 A 
ATOM     31  F   UNL     1      44.557   1.108   9.049  0.00  0.00    +0.000 F 
ENDBRANCH  24  25
ENDBRANCH  23  24
ENDBRANCH  22  23
ENDBRANCH   4  22
TORSDOF 8
ENDMDL
MODEL 5
REMARK VINA RESULT:    -7.240      2.053      2.840
REMARK INTER + INTRA:         -11.695
REMARK INTER:                 -10.967
REMARK INTRA:                  -0.728
REMARK UNBOUND:                -1.068
REMARK  Name = 
REMARK  10 active torsions:
REMARK  status: ('A' for Active; 'I' for Inactive)
REMARK    1  A    between atoms: C_1  and  C_2
REMARK    2  A    between atoms: C_8  and  C_9
REMARK    3  A    between atoms: C_9  and  O_11
REMARK    4  A    between atoms: O_11  and  C_12
REMARK    5  A    between atoms: C_12  and  C_13
REMARK    6  A    between atoms: C_16  and  O_17
REMARK    7  A    between atoms: O_17  and  C_18
REMARK    8  A    between atoms: C_18  and  C_19
REMARK    9  A    between atoms: C_19  and  C_20
REMARK   10  A    between atoms: C_30  and  C_31
REMARK                            x       y       z     vdW  Elec       q    Type
REMARK                         _______ _______ _______ _____ _____    ______ ____
ROOT
ATOM      1  C   UNL     1      46.135   5.576  12.410  0.00  0.00    +0.000 A 
ATOM      2  C   UNL     1      45.667   5.875  11.128  0.00  0.00    +0.000 A 
ATOM      3  C   UNL     1      44.921   4.942  10.409  0.00  0.00    +0.000 A 
ATOM      4  C   UNL     1      44.628   3.692  10.958  0.00  0.00    +0.000 A 
ATOM      5  C   UNL     1      45.086   3.390  12.242  0.00  0.00    +0.000 A 
ATOM      6  C   UNL     1      45.834   4.325  12.965  0.00  0.00    +0.000 A 
ENDROOT
BRANCH   1   7
ATOM      7  C   UNL     1      46.912   6.606  13.188  0.00  0.00    +0.000 C 
BRANCH   7   8
ATOM      8  O   UNL     1      48.006   5.973  13.864  0.00  0.00    +0.000 OA
BRANCH   8   9
ATOM      9  C   UNL     1      48.359   6.565  15.034  0.00  0.00    +0.000 C 
ATOM     10  O   UNL     1      48.539   7.764  15.198  0.00  0.00    +0.000 OA
BRANCH   9  18
ATOM     11  C   UNL     1      53.320   5.698  18.115  0.00  0.00    +0.000 C 
ATOM     12  C   UNL     1      51.910   5.341  17.758  0.00  0.00    +0.000 A 
ATOM     13  S   UNL     1      51.169   4.001  18.492  0.00  0.00    +0.000 S 
ATOM     14  C   UNL     1      49.721   4.258  17.645  0.00  0.00    +0.000 A 
ATOM     15  N   UNL     1      48.696   3.417  17.860  0.00  0.00    +0.000 NA
ATOM     16  C   UNL     1      47.614   3.717  17.153  0.00  0.00    +0.000 A 
ATOM     17  N   UNL     1      47.478   4.726  16.295  0.00  0.00    +0.000 NA
ATOM     18  C   UNL     1      48.546   5.549  16.090  0.00  0.00    +0.000 A 
ATOM     19  C   UNL     1      49.759   5.349  16.783  0.00  0.00    +0.000 A 
ATOM     20  C   UNL     1      51.072   5.997  16.862  0.00  0.00    +0.000 A 
ATOM     21  C   UNL     1      51.568   7.216  16.138  0.00  0.00    +0.000 C 
ENDBRANCH   9  18
ENDBRANCH   8   9
ENDBRANCH   7   8
ENDBRANCH   1   7
BRANCH   4  22
ATOM     22  O   UNL     1      43.907   2.704  10.334  0.00  0.00    +0.000 OA
BRANCH  22  23
ATOM     23  C   UNL     1      44.393   2.320   9.044  0.00  0.00    +0.000 C 
BRANCH  23  24
ATOM     24  C   UNL     1      45.915   2.209   9.066  0.00  0.00    +0.000 C 
BRANCH  24  25
ATOM     25  C   UNL     1      46.473   2.154   7.666  0.00  0.00    +0.000 A 
ATOM     26  C   UNL     1      46.968   0.959   7.128  0.00  0.00    +0.000 A 
ATOM     27  C   UNL     1      47.508   0.935   5.839  0.00  0.00    +0.000 A 
ATOM     28  C   UNL     1      47.566   2.103   5.077  0.00  0.00    +0.000 A 
ATOM     29  C   UNL     1      47.096   3.300   5.611  0.00  0.00    +0.000 A 
ATOM     30  C   UNL     1      46.559   3.318   6.895  0.00  0.00    +0.000 A 
ATOM     31  F   UNL     1      46.130   4.483   7.399  0.00  0.00    +0.000 F 
ENDBRANCH  24  25
ENDBRANCH  23  24
ENDBRANCH  22  23
ENDBRANCH   4  22
TORSDOF 8
ENDMDL
MODEL 6
REMARK VINA RESULT:    -7.122      2.143      3.084
REMARK INTER + INTRA:         -11.521
REMARK INTER:                 -10.327
REMARK INTRA:                  -1.195
REMARK UNBOUND:                -1.068
REMARK  Name = 
REMARK  10 active torsions:
REMARK  status: ('A' for Active; 'I' for Inactive)
REMARK    1  A    between atoms: C_1  and  C_2
REMARK    2  A    between atoms: C_8  and  C_9
REMARK    3  A    between atoms: C_9  and  O_11
REMARK    4  A    between atoms: O_11  and  C_12
REMARK    5  A    between atoms: C_12  and  C_13
REMARK    6  A    between atoms: C_16  and  O_17
REMARK    7  A    between atoms: O_17  and  C_18
REMARK    8  A    between atoms: C_18  and  C_19
REMARK    9  A    between atoms: C_19  and  C_20
REMARK   10  A    between atoms: C_30  and  C_31
REMARK                            x       y       z     vdW  Elec       q    Type
REMARK                         _______ _______ _______ _____ _____    ______ ____
ROOT
ATOM      1  C   UNL     1      48.544   7.647  14.210  0.00  0.00    +0.000 A 
ATOM      2  C   UNL     1      47.396   8.444  14.198  0.00  0.00    +0.000 A 
ATOM      3  C   UNL     1      46.378   8.207  13.275  0.00  0.00    +0.000 A 
ATOM      4  C   UNL     1      46.486   7.168  12.349  0.00  0.00    +0.000 A 
ATOM      5  C   UNL     1      47.628   6.363  12.362  0.00  0.00    +0.000 A 
ATOM      6  C   UNL     1      48.650   6.598  13.287  0.00  0.00    +0.000 A 
ENDROOT
BRANCH   1   7
ATOM      7  C   UNL     1      49.621   7.894  15.234  0.00  0.00    +0.000 C 
BRANCH   7   8
ATOM      8  O   UNL     1      50.063   6.644  15.777  0.00  0.00    +0.000 OA
BRANCH   8   9
ATOM      9  C   UNL     1      49.297   6.174  16.797  0.00  0.00    +0.000 C 
ATOM     10  O   UNL     1      48.752   6.859  17.650  0.00  0.00    +0.000 OA
BRANCH   9  18
ATOM     11  C   UNL     1      53.596   2.560  18.616  0.00  0.00    +0.000 C 
ATOM     12  C   UNL     1      52.254   2.808  17.999  0.00  0.00    +0.000 A 
ATOM     13  S   UNL     1      51.333   1.497  17.436  0.00  0.00    +0.000 S 
ATOM     14  C   UNL     1      50.069   2.516  16.943  0.00  0.00    +0.000 A 
ATOM     15  N   UNL     1      48.982   1.962  16.381  0.00  0.00    +0.000 NA
ATOM     16  C   UNL     1      48.055   2.850  16.042  0.00  0.00    +0.000 A 
ATOM     17  N   UNL     1      48.121   4.170  16.206  0.00  0.00    +0.000 NA
ATOM     18  C   UNL     1      49.247   4.698  16.765  0.00  0.00    +0.000 A 
ATOM     19  C   UNL     1      50.310   3.866  17.178  0.00  0.00    +0.000 A 
ATOM     20  C   UNL     1      51.619   4.032  17.818  0.00  0.00    +0.000 A 
ATOM     21  C   UNL     1      52.292   5.292  18.277  0.00  0.00    +0.000 C 
ENDBRANCH   9  18
ENDBRANCH   8   9
ENDBRANCH   7   8
ENDBRANCH   1   7
BRANCH   4  22
ATOM     22  O   UNL     1      45.546   6.854  11.399  0.00  0.00    +0.000 OA
BRANCH  22  23
ATOM     23  C   UNL     1      45.009   5.531  11.490  0.00  0.00    +0.000 C 
BRANCH  23  24
ATOM     24  C   UNL     1      44.220   5.196  10.227  0.00  0.00    +0.000 C 
BRANCH  24  25
ATOM     25  C   UNL     1      44.948   4.173   9.391  0.00  0.00    +0.000 A 
ATOM     26  C   UNL     1      45.798   4.561   8.348  0.00  0.00    +0.000 A 
ATOM     27  C   UNL     1      46.441   3.597   7.565  0.00  0.00    +0.000 A 
ATOM     28  C   UNL     1      46.236   2.239   7.812  0.00  0.00    +0.000 A 
ATOM     29  C   UNL     1      45.376   1.843   8.833  0.00  0.00    +0.000 A 
ATOM     30  C   UNL     1      44.739   2.807   9.609  0.00  0.00    +0.000 A 
ATOM     31  F   UNL     1      43.900   2.408  10.574  0.00  0.00    +0.000 F 
ENDBRANCH  24  25
ENDBRANCH  23  24
ENDBRANCH  22  23
ENDBRANCH   4  22
TORSDOF 8
ENDMDL
MODEL 7
REMARK VINA RESULT:    -7.048      5.016      6.643
REMARK INTER + INTRA:         -11.413
REMARK INTER:                 -10.344
REMARK INTRA:                  -1.069
REMARK UNBOUND:                -1.068
REMARK  Name = 
REMARK  10 active torsions:
REMARK  status: ('A' for Active; 'I' for Inactive)
REMARK    1  A    between atoms: C_1  and  C_2
REMARK    2  A    between atoms: C_8  and  C_9
REMARK    3  A    between atoms: C_9  and  O_11
REMARK    4  A    between atoms: O_11  and  C_12
REMARK    5  A    between atoms: C_12  and  C_13
REMARK    6  A    between atoms: C_16  and  O_17
REMARK    7  A    between atoms: O_17  and  C_18
REMARK    8  A    between atoms: C_18  and  C_19
REMARK    9  A    between atoms: C_19  and  C_20
REMARK   10  A    between atoms: C_30  and  C_31
REMARK                            x       y       z     vdW  Elec       q    Type
REMARK                         _______ _______ _______ _____ _____    ______ ____
ROOT
ATOM      1  C   UNL     1      46.700   5.716  12.711  0.00  0.00    +0.000 A 
ATOM      2  C   UNL     1      46.380   4.459  13.232  0.00  0.00    +0.000 A 
ATOM      3  C   UNL     1      45.475   3.627  12.573  0.00  0.00    +0.000 A 
ATOM      4  C   UNL     1      44.875   4.034  11.380  0.00  0.00    +0.000 A 
ATOM      5  C   UNL     1      45.197   5.286  10.851  0.00  0.00    +0.000 A 
ATOM      6  C   UNL     1      46.104   6.122  11.510  0.00  0.00    +0.000 A 
ENDROOT
BRANCH   1   7
ATOM      7  C   UNL     1      47.703   6.591  13.417  0.00  0.00    +0.000 C 
BRANCH   7   8
ATOM      8  O   UNL     1      47.759   7.871  12.775  0.00  0.00    +0.000 OA
BRANCH   8   9
ATOM      9  C   UNL     1      48.762   8.675  13.215  0.00  0.00    +0.000 C 
ATOM     10  O   UNL     1      49.460   8.468  14.197  0.00  0.00    +0.000 OA
BRANCH   9  18
ATOM     11  C   UNL     1      53.114   9.767   9.379  0.00  0.00    +0.000 C 
ATOM     12  C   UNL     1      51.854  10.156  10.090  0.00  0.00    +0.000 A 
ATOM     13  S   UNL     1      51.163  11.680   9.805  0.00  0.00    +0.000 S 
ATOM     14  C   UNL     1      49.882  11.369  10.873  0.00  0.00    +0.000 A 
ATOM     15  N   UNL     1      48.949  12.320  11.049  0.00  0.00    +0.000 NA
ATOM     16  C   UNL     1      47.992  11.966  11.898  0.00  0.00    +0.000 A 
ATOM     17  N   UNL     1      47.897  10.810  12.552  0.00  0.00    +0.000 NA
ATOM     18  C   UNL     1      48.871   9.876  12.362  0.00  0.00    +0.000 A 
ATOM     19  C   UNL     1      49.945  10.118  11.479  0.00  0.00    +0.000 A 
ATOM     20  C   UNL     1      51.127   9.394  10.999  0.00  0.00    +0.000 A 
ATOM     21  C   UNL     1      51.593   8.011  11.350  0.00  0.00    +0.000 C 
ENDBRANCH   9  18
ENDBRANCH   8   9
ENDBRANCH   7   8
ENDBRANCH   1   7
BRANCH   4  22
ATOM     22  O   UNL     1      43.971   3.295  10.658  0.00  0.00    +0.000 OA
BRANCH  22  23
ATOM     23  C   UNL     1      44.305   3.106   9.279  0.00  0.00    +0.000 C 
BRANCH  23  24
ATOM     24  C   UNL     1      45.336   1.990   9.136  0.00  0.00    +0.000 C 
BRANCH  24  25
ATOM     25  C   UNL     1      46.125   2.145   7.859  0.00  0.00    +0.000 A 
ATOM     26  C   UNL     1      46.088   3.337   7.123  0.00  0.00    +0.000 A 
ATOM     27  C   UNL     1      46.801   3.450   5.927  0.00  0.00    +0.000 A 
ATOM     28  C   UNL     1      47.552   2.375   5.449  0.00  0.00    +0.000 A 
ATOM     29  C   UNL     1      47.578   1.179   6.163  0.00  0.00    +0.000 A 
ATOM     30  C   UNL     1      46.866   1.072   7.354  0.00  0.00    +0.000 A 
ATOM     31  F   UNL     1      46.886  -0.093   8.015  0.00  0.00    +0.000 F 
ENDBRANCH  24  25
ENDBRANCH  23  24
ENDBRANCH  22  23
ENDBRANCH   4  22
TORSDOF 8
ENDMDL
MODEL 8
REMARK VINA RESULT:    -6.899      4.069      5.665
REMARK INTER + INTRA:         -11.194
REMARK INTER:                 -10.179
REMARK INTRA:                  -1.014
REMARK UNBOUND:                -1.068
REMARK  Name = 
REMARK  10 active torsions:
REMARK  status: ('A' for Active; 'I' for Inactive)
REMARK    1  A    between atoms: C_1  and  C_2
REMARK    2  A    between atoms: C_8  and  C_9
REMARK    3  A    between atoms: C_9  and  O_11
REMARK    4  A    between atoms: O_11  and  C_12
REMARK    5  A    between atoms: C_12  and  C_13
REMARK    6  A    between atoms: C_16  and  O_17
REMARK    7  A    between atoms: O_17  and  C_18
REMARK    8  A    between atoms: C_18  and  C_19
REMARK    9  A    between atoms: C_19  and  C_20
REMARK   10  A    between atoms: C_30  and  C_31
REMARK                            x       y       z     vdW  Elec       q    Type
REMARK                         _______ _______ _______ _____ _____    ______ ____
ROOT
ATOM      1  C   UNL     1      46.616   5.161  13.349  0.00  0.00    +0.000 A 
ATOM      2  C   UNL     1      46.394   3.781  13.348  0.00  0.00    +0.000 A 
ATOM      3  C   UNL     1      45.490   3.209  12.453  0.00  0.00    +0.000 A 
ATOM      4  C   UNL     1      44.792   4.004  11.542  0.00  0.00    +0.000 A 
ATOM      5  C   UNL     1      45.017   5.382  11.533  0.00  0.00    +0.000 A 
ATOM      6  C   UNL     1      45.924   5.959  12.429  0.00  0.00    +0.000 A 
ENDROOT
BRANCH   1   7
ATOM      7  C   UNL     1      47.619   5.761  14.299  0.00  0.00    +0.000 C 
BRANCH   7   8
ATOM      8  O   UNL     1      47.785   7.154  14.005  0.00  0.00    +0.000 OA
BRANCH   8   9
ATOM      9  C   UNL     1      48.938   7.457  13.352  0.00  0.00    +0.000 C 
ATOM     10  O   UNL     1      49.526   6.722  12.572  0.00  0.00    +0.000 OA
BRANCH   9  18
ATOM     11  C   UNL     1      46.572  12.590  11.651  0.00  0.00    +0.000 C 
ATOM     12  C   UNL     1      47.609  11.794  12.380  0.00  0.00    +0.000 A 
ATOM     13  S   UNL     1      48.873  12.594  13.184  0.00  0.00    +0.000 S 
ATOM     14  C   UNL     1      49.546  11.130  13.716  0.00  0.00    +0.000 A 
ATOM     15  N   UNL     1      50.660  11.172  14.465  0.00  0.00    +0.000 NA
ATOM     16  C   UNL     1      51.093   9.972  14.831  0.00  0.00    +0.000 A 
ATOM     17  N   UNL     1      50.539   8.800  14.526  0.00  0.00    +0.000 NA
ATOM     18  C   UNL     1      49.418   8.795  13.751  0.00  0.00    +0.000 A 
ATOM     19  C   UNL     1      48.846  10.003  13.296  0.00  0.00    +0.000 A 
ATOM     20  C   UNL     1      47.683  10.410  12.501  0.00  0.00    +0.000 A 
ATOM     21  C   UNL     1      46.630   9.552  11.862  0.00  0.00    +0.000 C 
ENDBRANCH   9  18
ENDBRANCH   8   9
ENDBRANCH   7   8
ENDBRANCH   1   7
BRANCH   4  22
ATOM     22  O   UNL     1      43.881   3.542  10.625  0.00  0.00    +0.000 OA
BRANCH  22  23
ATOM     23  C   UNL     1      44.371   3.425   9.286  0.00  0.00    +0.000 C 
BRANCH  23  24
ATOM     24  C   UNL     1      45.227   2.169   9.147  0.00  0.00    +0.000 C 
BRANCH  24  25
ATOM     25  C   UNL     1      46.079   2.231   7.904  0.00  0.00    +0.000 A 
ATOM     26  C   UNL     1      46.202   3.417   7.167  0.00  0.00    +0.000 A 
ATOM     27  C   UNL     1      46.972   3.447   6.001  0.00  0.00    +0.000 A 
ATOM     28  C   UNL     1      47.619   2.293   5.554  0.00  0.00    +0.000 A 
ATOM     29  C   UNL     1      47.485   1.105   6.268  0.00  0.00    +0.000 A 
ATOM     30  C   UNL     1      46.718   1.081   7.428  0.00  0.00    +0.000 A 
ATOM     31  F   UNL     1      46.583  -0.076   8.090  0.00  0.00    +0.000 F 
ENDBRANCH  24  25
ENDBRANCH  23  24
ENDBRANCH  22  23
ENDBRANCH   4  22
TORSDOF 8
ENDMDL
MODEL 9
REMARK VINA RESULT:    -6.645      4.996      9.143
REMARK INTER + INTRA:         -10.820
REMARK INTER:                  -8.469
REMARK INTRA:                  -2.352
REMARK UNBOUND:                -1.068
REMARK  Name = 
REMARK  10 active torsions:
REMARK  status: ('A' for Active; 'I' for Inactive)
REMARK    1  A    between atoms: C_1  and  C_2
REMARK    2  A    between atoms: C_8  and  C_9
REMARK    3  A    between atoms: C_9  and  O_11
REMARK    4  A    between atoms: O_11  and  C_12
REMARK    5  A    between atoms: C_12  and  C_13
REMARK    6  A    between atoms: C_16  and  O_17
REMARK    7  A    between atoms: O_17  and  C_18
REMARK    8  A    between atoms: C_18  and  C_19
REMARK    9  A    between atoms: C_19  and  C_20
REMARK   10  A    between atoms: C_30  and  C_31
REMARK                            x       y       z     vdW  Elec       q    Type
REMARK                         _______ _______ _______ _____ _____    ______ ____
ROOT
ATOM      1  C   UNL     1      48.114   4.563  17.550  0.00  0.00    +0.000 A 
ATOM      2  C   UNL     1      47.170   5.102  18.428  0.00  0.00    +0.000 A 
ATOM      3  C   UNL     1      47.558   6.004  19.419  0.00  0.00    +0.000 A 
ATOM      4  C   UNL     1      48.894   6.386  19.549  0.00  0.00    +0.000 A 
ATOM      5  C   UNL     1      49.840   5.857  18.668  0.00  0.00    +0.000 A 
ATOM      6  C   UNL     1      49.454   4.952  17.673  0.00  0.00    +0.000 A 
ENDROOT
BRANCH   1   7
ATOM      7  C   UNL     1      47.677   3.614  16.464  0.00  0.00    +0.000 C 
BRANCH   7   8
ATOM      8  O   UNL     1      46.717   4.261  15.619  0.00  0.00    +0.000 OA
BRANCH   8   9
ATOM      9  C   UNL     1      46.815   3.930  14.304  0.00  0.00    +0.000 C 
ATOM     10  O   UNL     1      47.630   3.156  13.825  0.00  0.00    +0.000 OA
BRANCH   9  18
ATOM     11  C   UNL     1      47.547   9.369  12.128  0.00  0.00    +0.000 C 
ATOM     12  C   UNL     1      46.719   8.144  12.366  0.00  0.00    +0.000 A 
ATOM     13  S   UNL     1      45.108   8.101  11.832  0.00  0.00    +0.000 S 
ATOM     14  C   UNL     1      44.890   6.523  12.415  0.00  0.00    +0.000 A 
ATOM     15  N   UNL     1      43.693   5.937  12.245  0.00  0.00    +0.000 NA
ATOM     16  C   UNL     1      43.638   4.703  12.731  0.00  0.00    +0.000 A 
ATOM     17  N   UNL     1      44.622   4.044  13.342  0.00  0.00    +0.000 NA
ATOM     18  C   UNL     1      45.817   4.677  13.510  0.00  0.00    +0.000 A 
ATOM     19  C   UNL     1      46.016   5.991  13.034  0.00  0.00    +0.000 A 
ATOM     20  C   UNL     1      47.110   6.966  12.995  0.00  0.00    +0.000 A 
ATOM     21  C   UNL     1      48.513   6.833  13.513  0.00  0.00    +0.000 C 
ENDBRANCH   9  18
ENDBRANCH   8   9
ENDBRANCH   7   8
ENDBRANCH   1   7
BRANCH   4  22
ATOM     22  O   UNL     1      49.378   7.261  20.489  0.00  0.00    +0.000 OA
BRANCH  22  23
ATOM     23  C   UNL     1      50.346   8.198  20.006  0.00  0.00    +0.000 C 
BRANCH  23  24
ATOM     24  C   UNL     1      49.661   9.497  19.591  0.00  0.00    +0.000 C 
BRANCH  24  25
ATOM     25  C   UNL     1      49.599   9.618  18.089  0.00  0.00    +0.000 A 
ATOM     26  C   UNL     1      50.701  10.070  17.351  0.00  0.00    +0.000 A 
ATOM     27  C   UNL     1      50.615  10.204  15.963  0.00  0.00    +0.000 A 
ATOM     28  C   UNL     1      49.426   9.896  15.298  0.00  0.00    +0.000 A 
ATOM     29  C   UNL     1      48.319   9.467  16.025  0.00  0.00    +0.000 A 
ATOM     30  C   UNL     1      48.411   9.335  17.407  0.00  0.00    +0.000 A 
ATOM     31  F   UNL     1      47.329   8.941  18.091  0.00  0.00    +0.000 F 
ENDBRANCH  24  25
ENDBRANCH  23  24
ENDBRANCH  22  23
ENDBRANCH   4  22
TORSDOF 8
ENDMDL
