MODEL 1
REMARK VINA RESULT:    -7.894      0.000      0.000
REMARK INTER + INTRA:         -12.243
REMARK INTER:                 -11.125
REMARK INTRA:                  -1.118
REMARK UNBOUND:                -1.118
REMARK  Name = 
REMARK  8 active torsions:
REMARK  status: ('A' for Active; 'I' for Inactive)
REMARK    1  A    between atoms: C_1  and  N_2
REMARK    2  A    between atoms: C_4  and  C_5
REMARK    3  A    between atoms: N_7  and  C_8
REMARK    4  A    between atoms: C_8  and  C_9
REMARK    5  A    between atoms: C_12  and  C_13
REMARK    6  A    between atoms: C_13  and  C_14
REMARK    7  A    between atoms: C_14  and  N_15
REMARK    8  A    between atoms: N_15  and  C_16
REMARK                            x       y       z     vdW  Elec       q    Type
REMARK                         _______ _______ _______ _____ _____    ______ ____
ROOT
ATOM      1  C   UNL     1      47.555   7.358  13.387  0.00  0.00    +0.000 C 
ENDROOT
BRANCH   1   2
ATOM      2  C   UNL     1      46.666   6.309  12.792  0.00  0.00    +0.000 A 
ATOM      3  C   UNL     1      46.194   5.261  13.585  0.00  0.00    +0.000 A 
ATOM      4  C   UNL     1      45.327   4.306  13.052  0.00  0.00    +0.000 A 
ATOM      5  C   UNL     1      44.920   4.373  11.711  0.00  0.00    +0.000 A 
ATOM      6  C   UNL     1      45.407   5.420  10.917  0.00  0.00    +0.000 A 
ATOM      7  C   UNL     1      46.276   6.375  11.450  0.00  0.00    +0.000 A 
BRANCH   5   8
ATOM      8  C   UNL     1      43.973   3.376  11.072  0.00  0.00    +0.000 C 
BRANCH   8   9
ATOM      9  C   UNL     1      44.254   3.088   9.599  0.00  0.00    +0.000 C 
BRANCH   9  10
ATOM     10  N   UNL     1      45.237   2.020   9.430  0.00  0.00    +0.000 N 
ATOM     11  H   UNL     1      44.832   1.093   9.551  0.00  0.00    +0.000 HD
BRANCH  10  12
ATOM     12  C   UNL     1      45.998   2.085   8.247  0.00  0.00    +0.000 A 
ATOM     13  C   UNL     1      46.696   0.983   7.728  0.00  0.00    +0.000 A 
ATOM     14  C   UNL     1      47.394   1.064   6.523  0.00  0.00    +0.000 A 
ATOM     15  C   UNL     1      47.379   2.245   5.793  0.00  0.00    +0.000 A 
ATOM     16  C   UNL     1      46.659   3.340   6.266  0.00  0.00    +0.000 A 
ATOM     17  C   UNL     1      45.962   3.252   7.476  0.00  0.00    +0.000 A 
ENDBRANCH  10  12
ENDBRANCH   9  10
ENDBRANCH   8   9
ENDBRANCH   5   8
ENDBRANCH   1   2
BRANCH   1  20
ATOM     18  C   UNL     1      49.021   6.977  15.281  0.00  0.00    +0.000 C 
ATOM     19  O   UNL     1      49.979   6.909  14.524  0.00  0.00    +0.000 OA
ATOM     20  N   UNL     1      47.748   7.202  14.804  0.00  0.00    +0.000 N 
ATOM     21  H   UNL     1      46.983   7.251  15.468  0.00  0.00    +0.000 HD
BRANCH  18  25
ATOM     22  C   UNL     1      49.868   8.196  19.898  0.00  0.00    +0.000 C 
ATOM     23  N   UNL     1      49.505   7.375  18.769  0.00  0.00    +0.000 N 
ATOM     24  N   UNL     1      49.520   7.873  17.515  0.00  0.00    +0.000 NA
ATOM     25  C   UNL     1      49.130   6.828  16.743  0.00  0.00    +0.000 A 
ATOM     26  C   UNL     1      48.867   5.664  17.534  0.00  0.00    +0.000 A 
ATOM     27  C   UNL     1      48.466   4.339  17.422  0.00  0.00    +0.000 A 
ATOM     28 CL   UNL     1      48.105   3.620  15.934  0.00  0.00    +0.000 Cl
ATOM     29  N   UNL     1      48.341   3.539  18.497  0.00  0.00    +0.000 NA
ATOM     30  C   UNL     1      48.621   4.072  19.693  0.00  0.00    +0.000 A 
ATOM     31  N   UNL     1      49.020   5.325  19.954  0.00  0.00    +0.000 NA
ATOM     32  C   UNL     1      49.123   6.067  18.836  0.00  0.00    +0.000 A 
ENDBRANCH  18  25
ENDBRANCH   1  20
TORSDOF 7
ENDMDL
MODEL 2
REMARK VINA RESULT:    -7.739      1.749      2.702
REMARK INTER + INTRA:         -12.025
REMARK INTER:                 -11.133
REMARK INTRA:                  -0.892
REMARK UNBOUND:                -1.118
REMARK  Name = 
REMARK  8 active torsions:
REMARK  status: ('A' for Active; 'I' for Inactive)
REMARK    1  A    between atoms: C_1  and  N_2
REMARK    2  A    between atoms: C_4  and  C_5
REMARK    3  A    between atoms: N_7  and  C_8
REMARK    4  A    between atoms: C_8  and  C_9
REMARK    5  A    between atoms: C_12  and  C_13
REMARK    6  A    between atoms: C_13  and  C_14
REMARK    7  A    between atoms: C_14  and  N_15
REMARK    8  A    between atoms: N_15  and  C_16
REMARK                            x       y       z     vdW  Elec       q    Type
REMARK                         _______ _______ _______ _____ _____    ______ ____
ROOT
ATOM      1  C   UNL     1      48.250   6.612  13.813  0.00  0.00    +0.000 C 
ENDROOT
BRANCH   1   2
ATOM      2  C   UNL     1      47.059   6.187  13.008  0.00  0.00    +0.000 A 
ATOM      3  C   UNL     1      46.737   6.860  11.828  0.00  0.00    +0.000 A 
ATOM      4  C   UNL     1      45.659   6.442  11.047  0.00  0.00    +0.000 A 
ATOM      5  C   UNL     1      44.873   5.346  11.434  0.00  0.00    +0.000 A 
ATOM      6  C   UNL     1      45.194   4.683  12.626  0.00  0.00    +0.000 A 
ATOM      7  C   UNL     1      46.272   5.101  13.409  0.00  0.00    +0.000 A 
BRANCH   5   8
ATOM      8  C   UNL     1      43.696   4.833  10.628  0.00  0.00    +0.000 C 
BRANCH   8   9
ATOM      9  C   UNL     1      44.019   3.651   9.715  0.00  0.00    +0.000 C 
BRANCH   9  10
ATOM     10  N   UNL     1      44.578   4.087   8.437  0.00  0.00    +0.000 N 
ATOM     11  H   UNL     1      44.946   5.036   8.475  0.00  0.00    +0.000 HD
BRANCH  10  12
ATOM     12  C   UNL     1      45.515   3.207   7.860  0.00  0.00    +0.000 A 
ATOM     13  C   UNL     1      46.387   3.591   6.830  0.00  0.00    +0.000 A 
ATOM     14  C   UNL     1      47.343   2.714   6.318  0.00  0.00    +0.000 A 
ATOM     15  C   UNL     1      47.468   1.438   6.854  0.00  0.00    +0.000 A 
ATOM     16  C   UNL     1      46.642   1.048   7.906  0.00  0.00    +0.000 A 
ATOM     17  C   UNL     1      45.685   1.933   8.414  0.00  0.00    +0.000 A 
ENDBRANCH  10  12
ENDBRANCH   9  10
ENDBRANCH   8   9
ENDBRANCH   5   8
ENDBRANCH   1   2
BRANCH   1  20
ATOM     18  C   UNL     1      49.134   6.474  16.068  0.00  0.00    +0.000 C 
ATOM     19  O   UNL     1      50.273   6.517  15.622  0.00  0.00    +0.000 OA
ATOM     20  N   UNL     1      48.038   6.516  15.233  0.00  0.00    +0.000 N 
ATOM     21  H   UNL     1      47.113   6.478  15.647  0.00  0.00    +0.000 HD
BRANCH  18  25
ATOM     22  C   UNL     1      48.725   4.496  20.476  0.00  0.00    +0.000 C 
ATOM     23  N   UNL     1      48.653   5.496  19.440  0.00  0.00    +0.000 N 
ATOM     24  N   UNL     1      49.039   5.216  18.177  0.00  0.00    +0.000 NA
ATOM     25  C   UNL     1      48.829   6.376  17.506  0.00  0.00    +0.000 A 
ATOM     26  C   UNL     1      48.306   7.391  18.369  0.00  0.00    +0.000 A 
ATOM     27  C   UNL     1      47.886   8.715  18.363  0.00  0.00    +0.000 A 
ATOM     28 CL   UNL     1      47.902   9.670  16.967  0.00  0.00    +0.000 Cl
ATOM     29  N   UNL     1      47.433   9.324  19.475  0.00  0.00    +0.000 NA
ATOM     30  C   UNL     1      47.401   8.600  20.600  0.00  0.00    +0.000 A 
ATOM     31  N   UNL     1      47.769   7.319  20.757  0.00  0.00    +0.000 NA
ATOM     32  C   UNL     1      48.210   6.776  19.608  0.00  0.00    +0.000 A 
ENDBRANCH  18  25
ENDBRANCH   1  20
TORSDOF 7
ENDMDL
MODEL 3
REMARK VINA RESULT:    -7.475      2.048      3.231
REMARK INTER + INTRA:         -11.652
REMARK INTER:                 -10.416
REMARK INTRA:                  -1.237
REMARK UNBOUND:                -1.118
REMARK  Name = 
REMARK  8 active torsions:
REMARK  status: ('A' for Active; 'I' for Inactive)
REMARK    1  A    between atoms: C_1  and  N_2
REMARK    2  A    between atoms: C_4  and  C_5
REMARK    3  A    between atoms: N_7  and  C_8
REMARK    4  A    between atoms: C_8  and  C_9
REMARK    5  A    between atoms: C_12  and  C_13
REMARK    6  A    between atoms: C_13  and  C_14
REMARK    7  A    between atoms: C_14  and  N_15
REMARK    8  A    between atoms: N_15  and  C_16
REMARK                            x       y       z     vdW  Elec       q    Type
REMARK                         _______ _______ _______ _____ _____    ______ ____
ROOT
ATOM      1  C   UNL     1      47.498   4.096  15.690  0.00  0.00    +0.000 C 
ENDROOT
BRANCH   1   2
ATOM      2  C   UNL     1      46.933   4.417  14.339  0.00  0.00    +0.000 A 
ATOM      3  C   UNL     1      46.377   3.404  13.555  0.00  0.00    +0.000 A 
ATOM      4  C   UNL     1      45.806   3.701  12.317  0.00  0.00    +0.000 A 
ATOM      5  C   UNL     1      45.785   5.018  11.832  0.00  0.00    +0.000 A 
ATOM      6  C   UNL     1      46.356   6.027  12.618  0.00  0.00    +0.000 A 
ATOM      7  C   UNL     1      46.929   5.730  13.857  0.00  0.00    +0.000 A 
BRANCH   5   8
ATOM      8  C   UNL     1      45.172   5.410  10.503  0.00  0.00    +0.000 C 
BRANCH   8   9
ATOM      9  C   UNL     1      44.079   4.466  10.005  0.00  0.00    +0.000 C 
BRANCH   9  10
ATOM     10  N   UNL     1      44.129   4.292   8.555  0.00  0.00    +0.000 N 
ATOM     11  H   UNL     1      44.121   5.179   8.054  0.00  0.00    +0.000 HD
BRANCH  10  12
ATOM     12  C   UNL     1      45.163   3.458   8.086  0.00  0.00    +0.000 A 
ATOM     13  C   UNL     1      46.195   3.919   7.253  0.00  0.00    +0.000 A 
ATOM     14  C   UNL     1      47.237   3.084   6.852  0.00  0.00    +0.000 A 
ATOM     15  C   UNL     1      47.285   1.772   7.306  0.00  0.00    +0.000 A 
ATOM     16  C   UNL     1      46.296   1.303   8.168  0.00  0.00    +0.000 A 
ATOM     17  C   UNL     1      45.253   2.147   8.566  0.00  0.00    +0.000 A 
ENDBRANCH  10  12
ENDBRANCH   9  10
ENDBRANCH   8   9
ENDBRANCH   5   8
ENDBRANCH   1   2
BRANCH   1  20
ATOM     18  C   UNL     1      48.602   5.781  17.041  0.00  0.00    +0.000 C 
ATOM     19  O   UNL     1      49.690   5.375  16.655  0.00  0.00    +0.000 OA
ATOM     20  N   UNL     1      47.429   5.199  16.610  0.00  0.00    +0.000 N 
ATOM     21  H   UNL     1      46.550   5.568  16.957  0.00  0.00    +0.000 HD
BRANCH  18  25
ATOM     22  C   UNL     1      48.028   8.087  21.268  0.00  0.00    +0.000 C 
ATOM     23  N   UNL     1      48.189   7.906  19.846  0.00  0.00    +0.000 N 
ATOM     24  N   UNL     1      48.314   6.673  19.313  0.00  0.00    +0.000 NA
ATOM     25  C   UNL     1      48.441   6.902  17.982  0.00  0.00    +0.000 A 
ATOM     26  C   UNL     1      48.395   8.303  17.688  0.00  0.00    +0.000 A 
ATOM     27  C   UNL     1      48.455   9.194  16.625  0.00  0.00    +0.000 A 
ATOM     28 CL   UNL     1      48.644   8.688  15.021  0.00  0.00    +0.000 Cl
ATOM     29  N   UNL     1      48.363  10.525  16.804  0.00  0.00    +0.000 NA
ATOM     30  C   UNL     1      48.210  10.964  18.059  0.00  0.00    +0.000 A 
ATOM     31  N   UNL     1      48.133  10.228  19.178  0.00  0.00    +0.000 NA
ATOM     32  C   UNL     1      48.232   8.911  18.923  0.00  0.00    +0.000 A 
ENDBRANCH  18  25
ENDBRANCH   1  20
TORSDOF 7
ENDMDL
MODEL 4
REMARK VINA RESULT:    -7.156      2.094      2.592
REMARK INTER + INTRA:         -11.202
REMARK INTER:                  -9.896
REMARK INTRA:                  -1.307
REMARK UNBOUND:                -1.118
REMARK  Name = 
REMARK  8 active torsions:
REMARK  status: ('A' for Active; 'I' for Inactive)
REMARK    1  A    between atoms: C_1  and  N_2
REMARK    2  A    between atoms: C_4  and  C_5
REMARK    3  A    between atoms: N_7  and  C_8
REMARK    4  A    between atoms: C_8  and  C_9
REMARK    5  A    between atoms: C_12  and  C_13
REMARK    6  A    between atoms: C_13  and  C_14
REMARK    7  A    between atoms: C_14  and  N_15
REMARK    8  A    between atoms: N_15  and  C_16
REMARK                            x       y       z     vdW  Elec       q    Type
REMARK                         _______ _______ _______ _____ _____    ______ ____
ROOT
ATOM      1  C   UNL     1      48.674   7.592  12.599  0.00  0.00    +0.000 C 
ENDROOT
BRANCH   1   2
ATOM      2  C   UNL     1      47.347   6.901  12.693  0.00  0.00    +0.000 A 
ATOM      3  C   UNL     1      46.187   7.554  12.273  0.00  0.00    +0.000 A 
ATOM      4  C   UNL     1      44.954   6.901  12.312  0.00  0.00    +0.000 A 
ATOM      5  C   UNL     1      44.853   5.583  12.781  0.00  0.00    +0.000 A 
ATOM      6  C   UNL     1      46.019   4.937  13.214  0.00  0.00    +0.000 A 
ATOM      7  C   UNL     1      47.254   5.590  13.175  0.00  0.00    +0.000 A 
BRANCH   5   8
ATOM      8  C   UNL     1      43.549   4.812  12.841  0.00  0.00    +0.000 C 
BRANCH   8   9
ATOM      9  C   UNL     1      43.426   3.694  11.808  0.00  0.00    +0.000 C 
BRANCH   9  10
ATOM     10  N   UNL     1      43.445   4.210  10.441  0.00  0.00    +0.000 N 
ATOM     11  H   UNL     1      43.469   5.228  10.408  0.00  0.00    +0.000 HD
BRANCH  10  12
ATOM     12  C   UNL     1      44.433   3.657   9.604  0.00  0.00    +0.000 A 
ATOM     13  C   UNL     1      44.629   2.273   9.467  0.00  0.00    +0.000 A 
ATOM     14  C   UNL     1      45.577   1.754   8.586  0.00  0.00    +0.000 A 
ATOM     15  C   UNL     1      46.331   2.614   7.797  0.00  0.00    +0.000 A 
ATOM     16  C   UNL     1      46.126   3.989   7.884  0.00  0.00    +0.000 A 
ATOM     17  C   UNL     1      45.173   4.503   8.770  0.00  0.00    +0.000 A 
ENDBRANCH  10  12
ENDBRANCH   9  10
ENDBRANCH   8   9
ENDBRANCH   5   8
ENDBRANCH   1   2
BRANCH   1  20
ATOM     18  C   UNL     1      49.727   7.607  14.784  0.00  0.00    +0.000 C 
ATOM     19  O   UNL     1      48.980   8.511  15.135  0.00  0.00    +0.000 OA
ATOM     20  N   UNL     1      49.651   7.071  13.516  0.00  0.00    +0.000 N 
ATOM     21  H   UNL     1      50.290   6.324  13.268  0.00  0.00    +0.000 HD
BRANCH  18  25
ATOM     22  C   UNL     1      54.106   6.799  16.703  0.00  0.00    +0.000 C 
ATOM     23  N   UNL     1      52.685   6.670  16.495  0.00  0.00    +0.000 N 
ATOM     24  N   UNL     1      52.050   7.409  15.561  0.00  0.00    +0.000 NA
ATOM     25  C   UNL     1      50.755   7.017  15.659  0.00  0.00    +0.000 A 
ATOM     26  C   UNL     1      50.586   6.020  16.672  0.00  0.00    +0.000 A 
ATOM     27  C   UNL     1      49.613   5.228  17.268  0.00  0.00    +0.000 A 
ATOM     28 CL   UNL     1      47.987   5.279  16.806  0.00  0.00    +0.000 Cl
ATOM     29  N   UNL     1      49.907   4.361  18.256  0.00  0.00    +0.000 NA
ATOM     30  C   UNL     1      51.185   4.290  18.647  0.00  0.00    +0.000 A 
ATOM     31  N   UNL     1      52.226   4.985  18.166  0.00  0.00    +0.000 NA
ATOM     32  C   UNL     1      51.860   5.829  17.184  0.00  0.00    +0.000 A 
ENDBRANCH  18  25
ENDBRANCH   1  20
TORSDOF 7
ENDMDL
MODEL 5
REMARK VINA RESULT:    -6.921      3.820      9.445
REMARK INTER + INTRA:         -10.872
REMARK INTER:                  -8.926
REMARK INTRA:                  -1.946
REMARK UNBOUND:                -1.118
REMARK  Name = 
REMARK  8 active torsions:
REMARK  status: ('A' for Active; 'I' for Inactive)
REMARK    1  A    between atoms: C_1  and  N_2
REMARK    2  A    between atoms: C_4  and  C_5
REMARK    3  A    between atoms: N_7  and  C_8
REMARK    4  A    between atoms: C_8  and  C_9
REMARK    5  A    between atoms: C_12  and  C_13
REMARK    6  A    between atoms: C_13  and  C_14
REMARK    7  A    between atoms: C_14  and  N_15
REMARK    8  A    between atoms: N_15  and  C_16
REMARK                            x       y       z     vdW  Elec       q    Type
REMARK                         _______ _______ _______ _____ _____    ______ ____
ROOT
ATOM      1  C   UNL     1      47.782   3.730  16.743  0.00  0.00    +0.000 C 
ENDROOT
BRANCH   1   2
ATOM      2  C   UNL     1      47.883   4.398  18.081  0.00  0.00    +0.000 A 
ATOM      3  C   UNL     1      48.937   4.083  18.942  0.00  0.00    +0.000 A 
ATOM      4  C   UNL     1      49.066   4.735  20.169  0.00  0.00    +0.000 A 
ATOM      5  C   UNL     1      48.139   5.710  20.566  0.00  0.00    +0.000 A 
ATOM      6  C   UNL     1      47.077   6.012  19.704  0.00  0.00    +0.000 A 
ATOM      7  C   UNL     1      46.946   5.359  18.475  0.00  0.00    +0.000 A 
BRANCH   5   8
ATOM      8  C   UNL     1      48.226   6.463  21.879  0.00  0.00    +0.000 C 
BRANCH   8   9
ATOM      9  C   UNL     1      48.258   7.983  21.738  0.00  0.00    +0.000 C 
BRANCH   9  10
ATOM     10  N   UNL     1      49.421   8.435  20.978  0.00  0.00    +0.000 N 
ATOM     11  H   UNL     1      50.218   7.808  21.073  0.00  0.00    +0.000 HD
BRANCH  10  12
ATOM     12  C   UNL     1      49.174   8.733  19.623  0.00  0.00    +0.000 A 
ATOM     13  C   UNL     1      49.915   8.170  18.572  0.00  0.00    +0.000 A 
ATOM     14  C   UNL     1      49.610   8.440  17.238  0.00  0.00    +0.000 A 
ATOM     15  C   UNL     1      48.530   9.258  16.928  0.00  0.00    +0.000 A 
ATOM     16  C   UNL     1      47.754   9.795  17.953  0.00  0.00    +0.000 A 
ATOM     17  C   UNL     1      48.067   9.520  19.289  0.00  0.00    +0.000 A 
ENDBRANCH  10  12
ENDBRANCH   9  10
ENDBRANCH   8   9
ENDBRANCH   5   8
ENDBRANCH   1   2
BRANCH   1  20
ATOM     18  C   UNL     1      46.879   4.036  14.513  0.00  0.00    +0.000 C 
ATOM     19  O   UNL     1      47.633   3.169  14.091  0.00  0.00    +0.000 OA
ATOM     20  N   UNL     1      46.878   4.394  15.844  0.00  0.00    +0.000 N 
ATOM     21  H   UNL     1      46.236   5.118  16.149  0.00  0.00    +0.000 HD
BRANCH  18  25
ATOM     22  C   UNL     1      42.867   4.887  11.926  0.00  0.00    +0.000 C 
ATOM     23  N   UNL     1      44.156   5.129  12.527  0.00  0.00    +0.000 N 
ATOM     24  N   UNL     1      44.758   4.186  13.282  0.00  0.00    +0.000 NA
ATOM     25  C   UNL     1      45.924   4.765  13.662  0.00  0.00    +0.000 A 
ATOM     26  C   UNL     1      46.044   6.091  13.133  0.00  0.00    +0.000 A 
ATOM     27  C   UNL     1      46.905   7.181  13.114  0.00  0.00    +0.000 A 
ATOM     28 CL   UNL     1      48.392   7.182  13.920  0.00  0.00    +0.000 Cl
ATOM     29  N   UNL     1      46.608   8.311  12.444  0.00  0.00    +0.000 NA
ATOM     30  C   UNL     1      45.441   8.347  11.791  0.00  0.00    +0.000 A 
ATOM     31  N   UNL     1      44.516   7.378  11.718  0.00  0.00    +0.000 NA
ATOM     32  C   UNL     1      44.878   6.281  12.408  0.00  0.00    +0.000 A 
ENDBRANCH  18  25
ENDBRANCH   1  20
TORSDOF 7
ENDMDL
MODEL 6
REMARK VINA RESULT:    -6.850      1.964      2.808
REMARK INTER + INTRA:         -10.772
REMARK INTER:                  -9.960
REMARK INTRA:                  -0.812
REMARK UNBOUND:                -1.118
REMARK  Name = 
REMARK  8 active torsions:
REMARK  status: ('A' for Active; 'I' for Inactive)
REMARK    1  A    between atoms: C_1  and  N_2
REMARK    2  A    between atoms: C_4  and  C_5
REMARK    3  A    between atoms: N_7  and  C_8
REMARK    4  A    between atoms: C_8  and  C_9
REMARK    5  A    between atoms: C_12  and  C_13
REMARK    6  A    between atoms: C_13  and  C_14
REMARK    7  A    between atoms: C_14  and  N_15
REMARK    8  A    between atoms: N_15  and  C_16
REMARK                            x       y       z     vdW  Elec       q    Type
REMARK                         _______ _______ _______ _____ _____    ______ ____
ROOT
ATOM      1  C   UNL     1      47.354   4.080  15.407  0.00  0.00    +0.000 C 
ENDROOT
BRANCH   1   2
ATOM      2  C   UNL     1      46.730   4.492  14.108  0.00  0.00    +0.000 A 
ATOM      3  C   UNL     1      46.922   5.786  13.620  0.00  0.00    +0.000 A 
ATOM      4  C   UNL     1      46.386   6.164  12.388  0.00  0.00    +0.000 A 
ATOM      5  C   UNL     1      45.638   5.258  11.621  0.00  0.00    +0.000 A 
ATOM      6  C   UNL     1      45.438   3.965  12.123  0.00  0.00    +0.000 A 
ATOM      7  C   UNL     1      45.974   3.586  13.356  0.00  0.00    +0.000 A 
BRANCH   5   8
ATOM      8  C   UNL     1      45.037   5.599  10.272  0.00  0.00    +0.000 C 
BRANCH   8   9
ATOM      9  C   UNL     1      45.827   5.075   9.075  0.00  0.00    +0.000 C 
BRANCH   9  10
ATOM     10  N   UNL     1      45.116   4.003   8.380  0.00  0.00    +0.000 N 
ATOM     11  H   UNL     1      44.405   4.356   7.742  0.00  0.00    +0.000 HD
BRANCH  10  12
ATOM     12  C   UNL     1      45.938   3.053   7.743  0.00  0.00    +0.000 A 
ATOM     13  C   UNL     1      46.122   1.752   8.236  0.00  0.00    +0.000 A 
ATOM     14  C   UNL     1      46.896   0.815   7.552  0.00  0.00    +0.000 A 
ATOM     15  C   UNL     1      47.478   1.154   6.337  0.00  0.00    +0.000 A 
ATOM     16  C   UNL     1      47.275   2.425   5.805  0.00  0.00    +0.000 A 
ATOM     17  C   UNL     1      46.497   3.361   6.498  0.00  0.00    +0.000 A 
ENDBRANCH  10  12
ENDBRANCH   9  10
ENDBRANCH   8   9
ENDBRANCH   5   8
ENDBRANCH   1   2
BRANCH   1  20
ATOM     18  C   UNL     1      47.884   4.986  17.594  0.00  0.00    +0.000 C 
ATOM     19  O   UNL     1      47.733   3.877  18.088  0.00  0.00    +0.000 OA
ATOM     20  N   UNL     1      47.714   5.195  16.242  0.00  0.00    +0.000 N 
ATOM     21  H   UNL     1      47.850   6.130  15.876  0.00  0.00    +0.000 HD
BRANCH  18  25
ATOM     22  C   UNL     1      47.344   8.818  20.516  0.00  0.00    +0.000 C 
ATOM     23  N   UNL     1      48.004   7.862  19.661  0.00  0.00    +0.000 N 
ATOM     24  N   UNL     1      47.315   6.850  19.091  0.00  0.00    +0.000 NA
ATOM     25  C   UNL     1      48.252   6.179  18.375  0.00  0.00    +0.000 A 
ATOM     26  C   UNL     1      49.542   6.786  18.506  0.00  0.00    +0.000 A 
ATOM     27  C   UNL     1      50.858   6.648  18.084  0.00  0.00    +0.000 A 
ATOM     28 CL   UNL     1      51.356   5.407  17.048  0.00  0.00    +0.000 Cl
ATOM     29  N   UNL     1      51.825   7.501  18.472  0.00  0.00    +0.000 NA
ATOM     30  C   UNL     1      51.468   8.499  19.289  0.00  0.00    +0.000 A 
ATOM     31  N   UNL     1      50.245   8.759  19.774  0.00  0.00    +0.000 NA
ATOM     32  C   UNL     1      49.332   7.868  19.346  0.00  0.00    +0.000 A 
ENDBRANCH  18  25
ENDBRANCH   1  20
TORSDOF 7
ENDMDL
MODEL 7
REMARK VINA RESULT:    -6.600      1.962      2.787
REMARK INTER + INTRA:         -10.419
REMARK INTER:                  -9.674
REMARK INTRA:                  -0.745
REMARK UNBOUND:                -1.118
REMARK  Name = 
REMARK  8 active torsions:
REMARK  status: ('A' for Active; 'I' for Inactive)
REMARK    1  A    between atoms: C_1  and  N_2
REMARK    2  A    between atoms: C_4  and  C_5
REMARK    3  A    between atoms: N_7  and  C_8
REMARK    4  A    between atoms: C_8  and  C_9
REMARK    5  A    between atoms: C_12  and  C_13
REMARK    6  A    between atoms: C_13  and  C_14
REMARK    7  A    between atoms: C_14  and  N_15
REMARK    8  A    between atoms: N_15  and  C_16
REMARK                            x       y       z     vdW  Elec       q    Type
REMARK                         _______ _______ _______ _____ _____    ______ ____
ROOT
ATOM      1  C   UNL     1      47.550   4.236  15.515  0.00  0.00    +0.000 C 
ENDROOT
BRANCH   1   2
ATOM      2  C   UNL     1      46.971   4.654  14.197  0.00  0.00    +0.000 A 
ATOM      3  C   UNL     1      45.977   3.881  13.594  0.00  0.00    +0.000 A 
ATOM      4  C   UNL     1      45.399   4.287  12.391  0.00  0.00    +0.000 A 
ATOM      5  C   UNL     1      45.808   5.472  11.759  0.00  0.00    +0.000 A 
ATOM      6  C   UNL     1      46.815   6.236  12.363  0.00  0.00    +0.000 A 
ATOM      7  C   UNL     1      47.396   5.829  13.567  0.00  0.00    +0.000 A 
BRANCH   5   8
ATOM      8  C   UNL     1      45.215   5.976  10.459  0.00  0.00    +0.000 C 
BRANCH   8   9
ATOM      9  C   UNL     1      45.792   5.324   9.204  0.00  0.00    +0.000 C 
BRANCH   9  10
ATOM     10  N   UNL     1      45.086   4.093   8.856  0.00  0.00    +0.000 N 
ATOM     11  H   UNL     1      44.182   4.270   8.421  0.00  0.00    +0.000 HD
BRANCH  10  12
ATOM     12  C   UNL     1      45.832   3.165   8.102  0.00  0.00    +0.000 A 
ATOM     13  C   UNL     1      46.694   3.546   7.062  0.00  0.00    +0.000 A 
ATOM     14  C   UNL     1      47.463   2.609   6.372  0.00  0.00    +0.000 A 
ATOM     15  C   UNL     1      47.409   1.269   6.734  0.00  0.00    +0.000 A 
ATOM     16  C   UNL     1      46.593   0.872   7.790  0.00  0.00    +0.000 A 
ATOM     17  C   UNL     1      45.824   1.817   8.478  0.00  0.00    +0.000 A 
ENDBRANCH  10  12
ENDBRANCH   9  10
ENDBRANCH   8   9
ENDBRANCH   5   8
ENDBRANCH   1   2
BRANCH   1  20
ATOM     18  C   UNL     1      47.652   5.512  17.576  0.00  0.00    +0.000 C 
ATOM     19  O   UNL     1      46.838   4.752  18.084  0.00  0.00    +0.000 OA
ATOM     20  N   UNL     1      48.078   5.336  16.277  0.00  0.00    +0.000 N 
ATOM     21  H   UNL     1      48.754   5.989  15.897  0.00  0.00    +0.000 HD
BRANCH  18  25
ATOM     22  C   UNL     1      49.135  10.062  18.357  0.00  0.00    +0.000 C 
ATOM     23  N   UNL     1      48.890   8.664  18.617  0.00  0.00    +0.000 N 
ATOM     24  N   UNL     1      48.299   7.880  17.691  0.00  0.00    +0.000 NA
ATOM     25  C   UNL     1      48.242   6.661  18.284  0.00  0.00    +0.000 A 
ATOM     26  C   UNL     1      48.806   6.693  19.599  0.00  0.00    +0.000 A 
ATOM     27  C   UNL     1      49.066   5.877  20.693  0.00  0.00    +0.000 A 
ATOM     28 CL   UNL     1      48.669   4.232  20.716  0.00  0.00    +0.000 Cl
ATOM     29  N   UNL     1      49.657   6.346  21.808  0.00  0.00    +0.000 NA
ATOM     30  C   UNL     1      49.989   7.642  21.825  0.00  0.00    +0.000 A 
ATOM     31  N   UNL     1      49.805   8.545  20.851  0.00  0.00    +0.000 NA
ATOM     32  C   UNL     1      49.211   8.008  19.770  0.00  0.00    +0.000 A 
ENDBRANCH  18  25
ENDBRANCH   1  20
TORSDOF 7
ENDMDL
MODEL 8
REMARK VINA RESULT:    -6.383      3.874      9.948
REMARK INTER + INTRA:         -10.114
REMARK INTER:                  -8.711
REMARK INTRA:                  -1.403
REMARK UNBOUND:                -1.118
REMARK  Name = 
REMARK  8 active torsions:
REMARK  status: ('A' for Active; 'I' for Inactive)
REMARK    1  A    between atoms: C_1  and  N_2
REMARK    2  A    between atoms: C_4  and  C_5
REMARK    3  A    between atoms: N_7  and  C_8
REMARK    4  A    between atoms: C_8  and  C_9
REMARK    5  A    between atoms: C_12  and  C_13
REMARK    6  A    between atoms: C_13  and  C_14
REMARK    7  A    between atoms: C_14  and  N_15
REMARK    8  A    between atoms: N_15  and  C_16
REMARK                            x       y       z     vdW  Elec       q    Type
REMARK                         _______ _______ _______ _____ _____    ______ ____
ROOT
ATOM      1  C   UNL     1      47.622   3.539  16.667  0.00  0.00    +0.000 C 
ENDROOT
BRANCH   1   2
ATOM      2  C   UNL     1      48.674   4.395  17.304  0.00  0.00    +0.000 A 
ATOM      3  C   UNL     1      49.554   3.844  18.237  0.00  0.00    +0.000 A 
ATOM      4  C   UNL     1      50.567   4.622  18.800  0.00  0.00    +0.000 A 
ATOM      5  C   UNL     1      50.717   5.972  18.447  0.00  0.00    +0.000 A 
ATOM      6  C   UNL     1      49.822   6.522  17.520  0.00  0.00    +0.000 A 
ATOM      7  C   UNL     1      48.807   5.745  16.957  0.00  0.00    +0.000 A 
BRANCH   5   8
ATOM      8  C   UNL     1      51.800   6.869  19.011  0.00  0.00    +0.000 C 
BRANCH   8   9
ATOM      9  C   UNL     1      51.292   8.183  19.603  0.00  0.00    +0.000 C 
BRANCH   9  10
ATOM     10  N   UNL     1      50.341   7.959  20.689  0.00  0.00    +0.000 N 
ATOM     11  H   UNL     1      50.760   8.087  21.609  0.00  0.00    +0.000 HD
BRANCH  10  12
ATOM     12  C   UNL     1      49.131   8.672  20.585  0.00  0.00    +0.000 A 
ATOM     13  C   UNL     1      48.786   9.425  19.452  0.00  0.00    +0.000 A 
ATOM     14  C   UNL     1      47.555  10.074  19.354  0.00  0.00    +0.000 A 
ATOM     15  C   UNL     1      46.627   9.954  20.381  0.00  0.00    +0.000 A 
ATOM     16  C   UNL     1      46.929   9.178  21.497  0.00  0.00    +0.000 A 
ATOM     17  C   UNL     1      48.166   8.530  21.589  0.00  0.00    +0.000 A 
ENDBRANCH  10  12
ENDBRANCH   9  10
ENDBRANCH   8   9
ENDBRANCH   5   8
ENDBRANCH   1   2
BRANCH   1  20
ATOM     18  C   UNL     1      46.740   3.984  14.452  0.00  0.00    +0.000 C 
ATOM     19  O   UNL     1      47.471   3.120  13.989  0.00  0.00    +0.000 OA
ATOM     20  N   UNL     1      46.741   4.273  15.800  0.00  0.00    +0.000 N 
ATOM     21  H   UNL     1      46.117   4.997  16.140  0.00  0.00    +0.000 HD
BRANCH  18  25
ATOM     22  C   UNL     1      42.684   5.153  12.065  0.00  0.00    +0.000 C 
ATOM     23  N   UNL     1      44.021   5.286  12.589  0.00  0.00    +0.000 N 
ATOM     24  N   UNL     1      44.575   4.306  13.334  0.00  0.00    +0.000 NA
ATOM     25  C   UNL     1      45.809   4.782  13.636  0.00  0.00    +0.000 A 
ATOM     26  C   UNL     1      46.020   6.080  13.069  0.00  0.00    +0.000 A 
ATOM     27  C   UNL     1      46.975   7.085  12.976  0.00  0.00    +0.000 A 
ATOM     28 CL   UNL     1      48.498   6.963  13.701  0.00  0.00    +0.000 Cl
ATOM     29  N   UNL     1      46.746   8.224  12.296  0.00  0.00    +0.000 NA
ATOM     30  C   UNL     1      45.552   8.355  11.706  0.00  0.00    +0.000 A 
ATOM     31  N   UNL     1      44.540   7.475  11.707  0.00  0.00    +0.000 NA
ATOM     32  C   UNL     1      44.838   6.363  12.404  0.00  0.00    +0.000 A 
ENDBRANCH  18  25
ENDBRANCH   1  20
TORSDOF 7
ENDMDL
MODEL 9
REMARK VINA RESULT:    -6.157      3.626      8.757
REMARK INTER + INTRA:          -9.795
REMARK INTER:                  -7.791
REMARK INTRA:                  -2.004
REMARK UNBOUND:                -1.118
REMARK  Name = 
REMARK  8 active torsions:
REMARK  status: ('A' for Active; 'I' for Inactive)
REMARK    1  A    between atoms: C_1  and  N_2
REMARK    2  A    between atoms: C_4  and  C_5
REMARK    3  A    between atoms: N_7  and  C_8
REMARK    4  A    between atoms: C_8  and  C_9
REMARK    5  A    between atoms: C_12  and  C_13
REMARK    6  A    between atoms: C_13  and  C_14
REMARK    7  A    between atoms: C_14  and  N_15
REMARK    8  A    between atoms: N_15  and  C_16
REMARK                            x       y       z     vdW  Elec       q    Type
REMARK                         _______ _______ _______ _____ _____    ______ ____
ROOT
ATOM      1  C   UNL     1      47.806   4.209  16.839  0.00  0.00    +0.000 C 
ENDROOT
BRANCH   1   2
ATOM      2  C   UNL     1      48.712   5.284  17.360  0.00  0.00    +0.000 A 
ATOM      3  C   UNL     1      48.189   6.328  18.126  0.00  0.00    +0.000 A 
ATOM      4  C   UNL     1      49.031   7.306  18.655  0.00  0.00    +0.000 A 
ATOM      5  C   UNL     1      50.414   7.267  18.424  0.00  0.00    +0.000 A 
ATOM      6  C   UNL     1      50.931   6.223  17.645  0.00  0.00    +0.000 A 
ATOM      7  C   UNL     1      50.088   5.244  17.113  0.00  0.00    +0.000 A 
BRANCH   5   8
ATOM      8  C   UNL     1      51.386   8.290  18.978  0.00  0.00    +0.000 C 
BRANCH   8   9
ATOM      9  C   UNL     1      52.122   9.106  17.916  0.00  0.00    +0.000 C 
BRANCH   9  10
ATOM     10  N   UNL     1      51.226  10.023  17.216  0.00  0.00    +0.000 N 
ATOM     11  H   UNL     1      51.429  11.000  17.419  0.00  0.00    +0.000 HD
BRANCH  10  12
ATOM     12  C   UNL     1      51.115   9.811  15.828  0.00  0.00    +0.000 A 
ATOM     13  C   UNL     1      51.732   8.736  15.169  0.00  0.00    +0.000 A 
ATOM     14  C   UNL     1      51.557   8.520  13.803  0.00  0.00    +0.000 A 
ATOM     15  C   UNL     1      50.731   9.362  13.070  0.00  0.00    +0.000 A 
ATOM     16  C   UNL     1      50.074  10.411  13.709  0.00  0.00    +0.000 A 
ATOM     17  C   UNL     1      50.254  10.622  15.080  0.00  0.00    +0.000 A 
ENDBRANCH  10  12
ENDBRANCH   9  10
ENDBRANCH   8   9
ENDBRANCH   5   8
ENDBRANCH   1   2
BRANCH   1  20
ATOM     18  C   UNL     1      46.926   4.127  14.580  0.00  0.00    +0.000 C 
ATOM     19  O   UNL     1      47.732   3.250  14.300  0.00  0.00    +0.000 OA
ATOM     20  N   UNL     1      46.882   4.680  15.842  0.00  0.00    +0.000 N 
ATOM     21  H   UNL     1      46.197   5.404  16.030  0.00  0.00    +0.000 HD
BRANCH  18  25
ATOM     22  C   UNL     1      43.122   4.217  11.574  0.00  0.00    +0.000 C 
ATOM     23  N   UNL     1      44.272   4.695  12.301  0.00  0.00    +0.000 N 
ATOM     24  N   UNL     1      44.956   3.879  13.132  0.00  0.00    +0.000 NA
ATOM     25  C   UNL     1      45.946   4.666  13.621  0.00  0.00    +0.000 A 
ATOM     26  C   UNL     1      45.873   5.992  13.085  0.00  0.00    +0.000 A 
ATOM     27  C   UNL     1      46.512   7.224  13.136  0.00  0.00    +0.000 A 
ATOM     28 CL   UNL     1      47.879   7.502  14.092  0.00  0.00    +0.000 Cl
ATOM     29  N   UNL     1      46.083   8.279  12.419  0.00  0.00    +0.000 NA
ATOM     30  C   UNL     1      45.005   8.097  11.646  0.00  0.00    +0.000 A 
ATOM     31  N   UNL     1      44.291   6.972  11.494  0.00  0.00    +0.000 NA
ATOM     32  C   UNL     1      44.775   5.962  12.238  0.00  0.00    +0.000 A 
ENDBRANCH  18  25
ENDBRANCH   1  20
TORSDOF 7
ENDMDL
