MODEL 1
REMARK VINA RESULT:    -7.840      0.000      0.000
REMARK INTER + INTRA:         -12.377
REMARK INTER:                 -11.278
REMARK INTRA:                  -1.099
REMARK UNBOUND:                -1.099
REMARK  Name = 
REMARK  8 active torsions:
REMARK  status: ('A' for Active; 'I' for Inactive)
REMARK    1  A    between atoms: C_2  and  C_20
REMARK    2  A    between atoms: N_3  and  C_4
REMARK    3  A    between atoms: C_4  and  C_5
REMARK    4  A    between atoms: C_8  and  C_9
REMARK    5  A    between atoms: C_9  and  C_10
REMARK    6  A    between atoms: C_10  and  N_11
REMARK    7  A    between atoms: N_11  and  C_12
REMARK    8  A    between atoms: C_27  and  O_28
REMARK                            x       y       z     vdW  Elec       q    Type
REMARK                         _______ _______ _______ _____ _____    ______ ____
ROOT
ATOM      1  C   UNL     1      48.556   6.524  14.183  0.00  0.00    +0.000 C 
ENDROOT
BRANCH   1   2
ATOM      2  C   UNL     1      47.371   6.088  13.366  0.00  0.00    +0.000 A 
ATOM      3  C   UNL     1      46.552   5.045  13.813  0.00  0.00    +0.000 A 
ATOM      4  C   UNL     1      45.421   4.669  13.085  0.00  0.00    +0.000 A 
ATOM      5  C   UNL     1      45.076   5.326  11.899  0.00  0.00    +0.000 A 
ATOM      6  C   UNL     1      45.934   6.329  11.422  0.00  0.00    +0.000 A 
ATOM      7  C   UNL     1      47.069   6.707  12.147  0.00  0.00    +0.000 A 
BRANCH   5   8
ATOM      8  C   UNL     1      43.842   4.969  11.094  0.00  0.00    +0.000 C 
BRANCH   8   9
ATOM      9  C   UNL     1      43.980   3.829  10.066  0.00  0.00    +0.000 C 
BRANCH   9  10
ATOM     10  N   UNL     1      44.382   4.312   8.741  0.00  0.00    +0.000 NA
ATOM     11  H   UNL     1      44.993   5.122   8.843  0.00  0.00    +0.000 HD
BRANCH  10  12
ATOM     12  C   UNL     1      45.025   3.298   7.896  0.00  0.00    +0.000 C 
ATOM     13  C   UNL     1      45.469   2.130   8.799  0.00  0.00    +0.000 C 
ATOM     14  C   UNL     1      46.241   1.061   8.025  0.00  0.00    +0.000 C 
ATOM     15  C   UNL     1      47.429   1.657   7.278  0.00  0.00    +0.000 C 
ATOM     16  C   UNL     1      46.984   2.784   6.358  0.00  0.00    +0.000 C 
ATOM     17  C   UNL     1      46.230   3.865   7.125  0.00  0.00    +0.000 C 
ENDBRANCH  10  12
ENDBRANCH   9  10
ENDBRANCH   8   9
ENDBRANCH   5   8
ENDBRANCH   1   2
BRANCH   1  20
ATOM     18  O   UNL     1      49.723   5.332  16.399  0.00  0.00    +0.000 OA
ATOM     19  C   UNL     1      48.865   6.190  16.581  0.00  0.00    +0.000 C 
ATOM     20  N   UNL     1      48.191   6.793  15.549  0.00  0.00    +0.000 N 
ATOM     21  H   UNL     1      47.602   7.595  15.738  0.00  0.00    +0.000 HD
BRANCH  19  22
ATOM     22  C   UNL     1      48.472   6.608  17.923  0.00  0.00    +0.000 A 
ATOM     23  C   UNL     1      48.005   7.885  18.215  0.00  0.00    +0.000 A 
ATOM     24  N   UNL     1      47.735   7.963  19.555  0.00  0.00    +0.000 N 
ATOM     25  C   UNL     1      47.987   6.754  20.139  0.00  0.00    +0.000 A 
ATOM     26  N   UNL     1      47.805   6.484  21.441  0.00  0.00    +0.000 NA
ATOM     27  C   UNL     1      48.116   5.207  21.731  0.00  0.00    +0.000 A 
ATOM     28  N   UNL     1      48.561   4.250  20.895  0.00  0.00    +0.000 NA
ATOM     29  C   UNL     1      48.724   4.601  19.612  0.00  0.00    +0.000 A 
ATOM     30  C   UNL     1      48.444   5.885  19.160  0.00  0.00    +0.000 A 
ATOM     31  H   UNL     1      47.393   8.773  20.052  0.00  0.00    +0.000 HD
BRANCH  29  32
ATOM     32  O   UNL     1      49.179   3.602  18.800  0.00  0.00    +0.000 OA
ATOM     33  H   UNL     1      50.017   3.381  19.245  0.00  0.00    +0.000 HD
ENDBRANCH  29  32
ENDBRANCH  19  22
ENDBRANCH   1  20
TORSDOF 8
ENDMDL
MODEL 2
REMARK VINA RESULT:    -7.659      1.158      1.747
REMARK INTER + INTRA:         -12.116
REMARK INTER:                 -11.133
REMARK INTRA:                  -0.982
REMARK UNBOUND:                -1.099
REMARK  Name = 
REMARK  8 active torsions:
REMARK  status: ('A' for Active; 'I' for Inactive)
REMARK    1  A    between atoms: C_2  and  C_20
REMARK    2  A    between atoms: N_3  and  C_4
REMARK    3  A    between atoms: C_4  and  C_5
REMARK    4  A    between atoms: C_8  and  C_9
REMARK    5  A    between atoms: C_9  and  C_10
REMARK    6  A    between atoms: C_10  and  N_11
REMARK    7  A    between atoms: N_11  and  C_12
REMARK    8  A    between atoms: C_27  and  O_28
REMARK                            x       y       z     vdW  Elec       q    Type
REMARK                         _______ _______ _______ _____ _____    ______ ____
ROOT
ATOM      1  C   UNL     1      48.103   6.559  14.386  0.00  0.00    +0.000 C 
ENDROOT
BRANCH   1   2
ATOM      2  C   UNL     1      47.033   6.111  13.429  0.00  0.00    +0.000 A 
ATOM      3  C   UNL     1      46.320   4.931  13.672  0.00  0.00    +0.000 A 
ATOM      4  C   UNL     1      45.290   4.536  12.815  0.00  0.00    +0.000 A 
ATOM      5  C   UNL     1      44.944   5.307  11.700  0.00  0.00    +0.000 A 
ATOM      6  C   UNL     1      45.702   6.455  11.426  0.00  0.00    +0.000 A 
ATOM      7  C   UNL     1      46.735   6.854  12.281  0.00  0.00    +0.000 A 
BRANCH   5   8
ATOM      8  C   UNL     1      43.814   4.930  10.762  0.00  0.00    +0.000 C 
BRANCH   8   9
ATOM      9  C   UNL     1      44.062   3.745   9.807  0.00  0.00    +0.000 C 
BRANCH   9  10
ATOM     10  N   UNL     1      44.478   4.178   8.470  0.00  0.00    +0.000 NA
ATOM     11  H   UNL     1      45.065   5.008   8.545  0.00  0.00    +0.000 HD
BRANCH  10  12
ATOM     12  C   UNL     1      45.164   3.144   7.684  0.00  0.00    +0.000 C 
ATOM     13  C   UNL     1      45.615   2.028   8.649  0.00  0.00    +0.000 C 
ATOM     14  C   UNL     1      46.430   0.947   7.940  0.00  0.00    +0.000 C 
ATOM     15  C   UNL     1      47.621   1.538   7.194  0.00  0.00    +0.000 C 
ATOM     16  C   UNL     1      47.171   2.612   6.215  0.00  0.00    +0.000 C 
ATOM     17  C   UNL     1      46.373   3.707   6.916  0.00  0.00    +0.000 C 
ENDBRANCH  10  12
ENDBRANCH   9  10
ENDBRANCH   8   9
ENDBRANCH   5   8
ENDBRANCH   1   2
BRANCH   1  20
ATOM     18  O   UNL     1      49.754   7.005  16.570  0.00  0.00    +0.000 OA
ATOM     19  C   UNL     1      48.934   6.092  16.633  0.00  0.00    +0.000 C 
ATOM     20  N   UNL     1      48.116   5.760  15.582  0.00  0.00    +0.000 N 
ATOM     21  H   UNL     1      47.359   5.103  15.728  0.00  0.00    +0.000 HD
BRANCH  19  22
ATOM     22  C   UNL     1      48.796   5.267  17.829  0.00  0.00    +0.000 A 
ATOM     23  C   UNL     1      48.644   3.885  17.785  0.00  0.00    +0.000 A 
ATOM     24  N   UNL     1      48.529   3.411  19.064  0.00  0.00    +0.000 N 
ATOM     25  C   UNL     1      48.633   4.451  19.944  0.00  0.00    +0.000 A 
ATOM     26  N   UNL     1      48.584   4.328  21.279  0.00  0.00    +0.000 NA
ATOM     27  C   UNL     1      48.733   5.516  21.893  0.00  0.00    +0.000 A 
ATOM     28  N   UNL     1      48.912   6.725  21.330  0.00  0.00    +0.000 NA
ATOM     29  C   UNL     1      48.942   6.766  19.991  0.00  0.00    +0.000 A 
ATOM     30  C   UNL     1      48.802   5.620  19.217  0.00  0.00    +0.000 A 
ATOM     31  H   UNL     1      48.398   2.448  19.338  0.00  0.00    +0.000 HD
BRANCH  29  32
ATOM     32  O   UNL     1      49.123   8.011  19.461  0.00  0.00    +0.000 OA
ATOM     33  H   UNL     1      48.840   8.565  20.212  0.00  0.00    +0.000 HD
ENDBRANCH  29  32
ENDBRANCH  19  22
ENDBRANCH   1  20
TORSDOF 8
ENDMDL
MODEL 3
REMARK VINA RESULT:    -7.400      1.393      2.446
REMARK INTER + INTRA:         -11.743
REMARK INTER:                 -10.650
REMARK INTRA:                  -1.094
REMARK UNBOUND:                -1.099
REMARK  Name = 
REMARK  8 active torsions:
REMARK  status: ('A' for Active; 'I' for Inactive)
REMARK    1  A    between atoms: C_2  and  C_20
REMARK    2  A    between atoms: N_3  and  C_4
REMARK    3  A    between atoms: C_4  and  C_5
REMARK    4  A    between atoms: C_8  and  C_9
REMARK    5  A    between atoms: C_9  and  C_10
REMARK    6  A    between atoms: C_10  and  N_11
REMARK    7  A    between atoms: N_11  and  C_12
REMARK    8  A    between atoms: C_27  and  O_28
REMARK                            x       y       z     vdW  Elec       q    Type
REMARK                         _______ _______ _______ _____ _____    ______ ____
ROOT
ATOM      1  C   UNL     1      48.334   7.321  13.811  0.00  0.00    +0.000 C 
ENDROOT
BRANCH   1   2
ATOM      2  C   UNL     1      47.192   6.688  13.065  0.00  0.00    +0.000 A 
ATOM      3  C   UNL     1      46.877   5.339  13.273  0.00  0.00    +0.000 A 
ATOM      4  C   UNL     1      45.786   4.757  12.623  0.00  0.00    +0.000 A 
ATOM      5  C   UNL     1      44.981   5.505  11.756  0.00  0.00    +0.000 A 
ATOM      6  C   UNL     1      45.337   6.838  11.503  0.00  0.00    +0.000 A 
ATOM      7  C   UNL     1      46.430   7.424  12.151  0.00  0.00    +0.000 A 
BRANCH   5   8
ATOM      8  C   UNL     1      43.771   4.921  11.054  0.00  0.00    +0.000 C 
BRANCH   8   9
ATOM      9  C   UNL     1      44.026   3.777  10.052  0.00  0.00    +0.000 C 
BRANCH   9  10
ATOM     10  N   UNL     1      44.404   4.268   8.723  0.00  0.00    +0.000 NA
ATOM     11  H   UNL     1      45.006   5.086   8.818  0.00  0.00    +0.000 HD
BRANCH  10  12
ATOM     12  C   UNL     1      45.048   3.264   7.867  0.00  0.00    +0.000 C 
ATOM     13  C   UNL     1      45.520   2.100   8.761  0.00  0.00    +0.000 C 
ATOM     14  C   UNL     1      46.294   1.043   7.974  0.00  0.00    +0.000 C 
ATOM     15  C   UNL     1      47.465   1.655   7.213  0.00  0.00    +0.000 C 
ATOM     16  C   UNL     1      46.993   2.778   6.301  0.00  0.00    +0.000 C 
ATOM     17  C   UNL     1      46.235   3.849   7.081  0.00  0.00    +0.000 C 
ENDBRANCH  10  12
ENDBRANCH   9  10
ENDBRANCH   8   9
ENDBRANCH   5   8
ENDBRANCH   1   2
BRANCH   1  20
ATOM     18  O   UNL     1      49.842   6.110  15.798  0.00  0.00    +0.000 OA
ATOM     19  C   UNL     1      48.900   6.823  16.132  0.00  0.00    +0.000 C 
ATOM     20  N   UNL     1      48.063   7.416  15.220  0.00  0.00    +0.000 N 
ATOM     21  H   UNL     1      47.395   8.110  15.534  0.00  0.00    +0.000 HD
BRANCH  19  22
ATOM     22  C   UNL     1      48.579   7.063  17.535  0.00  0.00    +0.000 A 
ATOM     23  C   UNL     1      48.694   6.087  18.519  0.00  0.00    +0.000 A 
ATOM     24  N   UNL     1      48.309   6.620  19.719  0.00  0.00    +0.000 N 
ATOM     25  C   UNL     1      47.975   7.934  19.546  0.00  0.00    +0.000 A 
ATOM     26  N   UNL     1      47.574   8.754  20.529  0.00  0.00    +0.000 NA
ATOM     27  C   UNL     1      47.331   9.995  20.070  0.00  0.00    +0.000 A 
ATOM     28  N   UNL     1      47.443  10.452  18.809  0.00  0.00    +0.000 NA
ATOM     29  C   UNL     1      47.842   9.568  17.884  0.00  0.00    +0.000 A 
ATOM     30  C   UNL     1      48.131   8.248  18.205  0.00  0.00    +0.000 A 
ATOM     31  H   UNL     1      48.280   6.140  20.608  0.00  0.00    +0.000 HD
BRANCH  29  32
ATOM     32  O   UNL     1      47.939  10.072  16.618  0.00  0.00    +0.000 OA
ATOM     33  H   UNL     1      47.029   9.929  16.301  0.00  0.00    +0.000 HD
ENDBRANCH  29  32
ENDBRANCH  19  22
ENDBRANCH   1  20
TORSDOF 8
ENDMDL
MODEL 4
REMARK VINA RESULT:    -7.303      2.831      9.081
REMARK INTER + INTRA:         -11.605
REMARK INTER:                  -9.953
REMARK INTRA:                  -1.652
REMARK UNBOUND:                -1.099
REMARK  Name = 
REMARK  8 active torsions:
REMARK  status: ('A' for Active; 'I' for Inactive)
REMARK    1  A    between atoms: C_2  and  C_20
REMARK    2  A    between atoms: N_3  and  C_4
REMARK    3  A    between atoms: C_4  and  C_5
REMARK    4  A    between atoms: C_8  and  C_9
REMARK    5  A    between atoms: C_9  and  C_10
REMARK    6  A    between atoms: C_10  and  N_11
REMARK    7  A    between atoms: N_11  and  C_12
REMARK    8  A    between atoms: C_27  and  O_28
REMARK                            x       y       z     vdW  Elec       q    Type
REMARK                         _______ _______ _______ _____ _____    ______ ____
ROOT
ATOM      1  C   UNL     1      47.459   7.744  12.093  0.00  0.00    +0.000 C 
ENDROOT
BRANCH   1   2
ATOM      2  C   UNL     1      48.004   7.814  13.493  0.00  0.00    +0.000 A 
ATOM      3  C   UNL     1      47.747   8.933  14.293  0.00  0.00    +0.000 A 
ATOM      4  C   UNL     1      48.207   8.983  15.612  0.00  0.00    +0.000 A 
ATOM      5  C   UNL     1      48.928   7.919  16.164  0.00  0.00    +0.000 A 
ATOM      6  C   UNL     1      49.237   6.827  15.339  0.00  0.00    +0.000 A 
ATOM      7  C   UNL     1      48.780   6.774  14.018  0.00  0.00    +0.000 A 
BRANCH   5   8
ATOM      8  C   UNL     1      49.420   7.920  17.598  0.00  0.00    +0.000 C 
BRANCH   8   9
ATOM      9  C   UNL     1      50.096   6.631  18.108  0.00  0.00    +0.000 C 
BRANCH   9  10
ATOM     10  N   UNL     1      49.273   5.914  19.087  0.00  0.00    +0.000 NA
ATOM     11  H   UNL     1      48.431   6.453  19.287  0.00  0.00    +0.000 HD
BRANCH  10  12
ATOM     12  C   UNL     1      48.915   4.546  18.691  0.00  0.00    +0.000 C 
ATOM     13  C   UNL     1      50.071   3.972  17.848  0.00  0.00    +0.000 C 
ATOM     14  C   UNL     1      49.752   2.580  17.302  0.00  0.00    +0.000 C 
ATOM     15  C   UNL     1      48.445   2.571  16.516  0.00  0.00    +0.000 C 
ATOM     16  C   UNL     1      47.298   3.102  17.362  0.00  0.00    +0.000 C 
ATOM     17  C   UNL     1      47.598   4.499  17.896  0.00  0.00    +0.000 C 
ENDBRANCH  10  12
ENDBRANCH   9  10
ENDBRANCH   8   9
ENDBRANCH   5   8
ENDBRANCH   1   2
BRANCH   1  20
ATOM     18  O   UNL     1      44.925   6.974  12.916  0.00  0.00    +0.000 OA
ATOM     19  C   UNL     1      45.576   6.196  12.224  0.00  0.00    +0.000 C 
ATOM     20  N   UNL     1      46.859   6.465  11.819  0.00  0.00    +0.000 N 
ATOM     21  H   UNL     1      47.301   5.866  11.131  0.00  0.00    +0.000 HD
BRANCH  19  22
ATOM     22  C   UNL     1      45.039   4.904  11.810  0.00  0.00    +0.000 A 
ATOM     23  C   UNL     1      44.424   4.019  12.689  0.00  0.00    +0.000 A 
ATOM     24  N   UNL     1      44.044   2.900  11.998  0.00  0.00    +0.000 N 
ATOM     25  C   UNL     1      44.371   3.048  10.680  0.00  0.00    +0.000 A 
ATOM     26  N   UNL     1      44.116   2.141   9.725  0.00  0.00    +0.000 NA
ATOM     27  C   UNL     1      44.532   2.562   8.517  0.00  0.00    +0.000 A 
ATOM     28  N   UNL     1      45.135   3.724   8.205  0.00  0.00    +0.000 NA
ATOM     29  C   UNL     1      45.361   4.574   9.216  0.00  0.00    +0.000 A 
ATOM     30  C   UNL     1      44.988   4.279  10.521  0.00  0.00    +0.000 A 
ATOM     31  H   UNL     1      43.583   2.086  12.381  0.00  0.00    +0.000 HD
BRANCH  29  32
ATOM     32  O   UNL     1      45.977   5.739   8.856  0.00  0.00    +0.000 OA
ATOM     33  H   UNL     1      46.427   5.455   8.039  0.00  0.00    +0.000 HD
ENDBRANCH  29  32
ENDBRANCH  19  22
ENDBRANCH   1  20
TORSDOF 8
ENDMDL
MODEL 5
REMARK VINA RESULT:    -7.287      3.098      8.313
REMARK INTER + INTRA:         -11.582
REMARK INTER:                  -9.622
REMARK INTRA:                  -1.960
REMARK UNBOUND:                -1.099
REMARK  Name = 
REMARK  8 active torsions:
REMARK  status: ('A' for Active; 'I' for Inactive)
REMARK    1  A    between atoms: C_2  and  C_20
REMARK    2  A    between atoms: N_3  and  C_4
REMARK    3  A    between atoms: C_4  and  C_5
REMARK    4  A    between atoms: C_8  and  C_9
REMARK    5  A    between atoms: C_9  and  C_10
REMARK    6  A    between atoms: C_10  and  N_11
REMARK    7  A    between atoms: N_11  and  C_12
REMARK    8  A    between atoms: C_27  and  O_28
REMARK                            x       y       z     vdW  Elec       q    Type
REMARK                         _______ _______ _______ _____ _____    ______ ____
ROOT
ATOM      1  C   UNL     1      49.414   7.753  12.995  0.00  0.00    +0.000 C 
ENDROOT
BRANCH   1   2
ATOM      2  C   UNL     1      49.311   7.921  14.487  0.00  0.00    +0.000 A 
ATOM      3  C   UNL     1      48.409   8.842  15.031  0.00  0.00    +0.000 A 
ATOM      4  C   UNL     1      48.271   8.967  16.415  0.00  0.00    +0.000 A 
ATOM      5  C   UNL     1      49.024   8.175  17.289  0.00  0.00    +0.000 A 
ATOM      6  C   UNL     1      49.971   7.297  16.740  0.00  0.00    +0.000 A 
ATOM      7  C   UNL     1      50.113   7.170  15.354  0.00  0.00    +0.000 A 
BRANCH   5   8
ATOM      8  C   UNL     1      48.884   8.257  18.796  0.00  0.00    +0.000 C 
BRANCH   8   9
ATOM      9  C   UNL     1      48.205   7.067  19.503  0.00  0.00    +0.000 C 
BRANCH   9  10
ATOM     10  N   UNL     1      47.101   6.503  18.720  0.00  0.00    +0.000 NA
ATOM     11  H   UNL     1      46.956   7.062  17.880  0.00  0.00    +0.000 HD
BRANCH  10  12
ATOM     12  C   UNL     1      47.272   5.089  18.363  0.00  0.00    +0.000 C 
ATOM     13  C   UNL     1      48.541   4.566  19.066  0.00  0.00    +0.000 C 
ATOM     14  C   UNL     1      48.863   3.123  18.677  0.00  0.00    +0.000 C 
ATOM     15  C   UNL     1      48.969   2.958  17.165  0.00  0.00    +0.000 C 
ATOM     16  C   UNL     1      47.701   3.439  16.475  0.00  0.00    +0.000 C 
ATOM     17  C   UNL     1      47.381   4.885  16.841  0.00  0.00    +0.000 C 
ENDBRANCH  10  12
ENDBRANCH   9  10
ENDBRANCH   8   9
ENDBRANCH   5   8
ENDBRANCH   1   2
BRANCH   1  20
ATOM     18  O   UNL     1      48.108   5.321  13.261  0.00  0.00    +0.000 OA
ATOM     19  C   UNL     1      47.549   6.219  12.639  0.00  0.00    +0.000 C 
ATOM     20  N   UNL     1      48.141   7.436  12.406  0.00  0.00    +0.000 N 
ATOM     21  H   UNL     1      47.590   8.193  12.020  0.00  0.00    +0.000 HD
BRANCH  19  22
ATOM     22  C   UNL     1      46.218   6.044  12.067  0.00  0.00    +0.000 A 
ATOM     23  C   UNL     1      45.572   7.028  11.328  0.00  0.00    +0.000 A 
ATOM     24  N   UNL     1      44.343   6.562  10.947  0.00  0.00    +0.000 N 
ATOM     25  C   UNL     1      44.184   5.281  11.396  0.00  0.00    +0.000 A 
ATOM     26  N   UNL     1      43.099   4.524  11.175  0.00  0.00    +0.000 NA
ATOM     27  C   UNL     1      43.228   3.300  11.717  0.00  0.00    +0.000 A 
ATOM     28  N   UNL     1      44.270   2.805  12.411  0.00  0.00    +0.000 NA
ATOM     29  C   UNL     1      45.313   3.626  12.596  0.00  0.00    +0.000 A 
ATOM     30  C   UNL     1      45.327   4.921  12.094  0.00  0.00    +0.000 A 
ATOM     31  H   UNL     1      43.650   7.064  10.409  0.00  0.00    +0.000 HD
BRANCH  29  32
ATOM     32  O   UNL     1      46.347   3.085  13.306  0.00  0.00    +0.000 OA
ATOM     33  H   UNL     1      47.078   3.204  12.673  0.00  0.00    +0.000 HD
ENDBRANCH  29  32
ENDBRANCH  19  22
ENDBRANCH   1  20
TORSDOF 8
ENDMDL
MODEL 6
REMARK VINA RESULT:    -7.269      1.465      1.867
REMARK INTER + INTRA:         -11.556
REMARK INTER:                 -10.541
REMARK INTRA:                  -1.015
REMARK UNBOUND:                -1.099
REMARK  Name = 
REMARK  8 active torsions:
REMARK  status: ('A' for Active; 'I' for Inactive)
REMARK    1  A    between atoms: C_2  and  C_20
REMARK    2  A    between atoms: N_3  and  C_4
REMARK    3  A    between atoms: C_4  and  C_5
REMARK    4  A    between atoms: C_8  and  C_9
REMARK    5  A    between atoms: C_9  and  C_10
REMARK    6  A    between atoms: C_10  and  N_11
REMARK    7  A    between atoms: N_11  and  C_12
REMARK    8  A    between atoms: C_27  and  O_28
REMARK                            x       y       z     vdW  Elec       q    Type
REMARK                         _______ _______ _______ _____ _____    ______ ____
ROOT
ATOM      1  C   UNL     1      47.357   3.862  15.515  0.00  0.00    +0.000 C 
ENDROOT
BRANCH   1   2
ATOM      2  C   UNL     1      46.826   4.471  14.246  0.00  0.00    +0.000 A 
ATOM      3  C   UNL     1      47.232   5.753  13.856  0.00  0.00    +0.000 A 
ATOM      4  C   UNL     1      46.783   6.305  12.654  0.00  0.00    +0.000 A 
ATOM      5  C   UNL     1      45.924   5.591  11.810  0.00  0.00    +0.000 A 
ATOM      6  C   UNL     1      45.471   4.333  12.234  0.00  0.00    +0.000 A 
ATOM      7  C   UNL     1      45.917   3.778  13.438  0.00  0.00    +0.000 A 
BRANCH   5   8
ATOM      8  C   UNL     1      45.437   6.140  10.483  0.00  0.00    +0.000 C 
BRANCH   8   9
ATOM      9  C   UNL     1      45.815   5.348   9.216  0.00  0.00    +0.000 C 
BRANCH   9  10
ATOM     10  N   UNL     1      44.784   4.379   8.831  0.00  0.00    +0.000 NA
ATOM     11  H   UNL     1      43.995   4.868   8.409  0.00  0.00    +0.000 HD
BRANCH  10  12
ATOM     12  C   UNL     1      45.256   3.315   7.936  0.00  0.00    +0.000 C 
ATOM     13  C   UNL     1      45.612   2.086   8.796  0.00  0.00    +0.000 C 
ATOM     14  C   UNL     1      46.209   0.952   7.964  0.00  0.00    +0.000 C 
ATOM     15  C   UNL     1      47.415   1.421   7.157  0.00  0.00    +0.000 C 
ATOM     16  C   UNL     1      47.052   2.610   6.279  0.00  0.00    +0.000 C 
ATOM     17  C   UNL     1      46.473   3.755   7.104  0.00  0.00    +0.000 C 
ENDBRANCH  10  12
ENDBRANCH   9  10
ENDBRANCH   8   9
ENDBRANCH   5   8
ENDBRANCH   1   2
BRANCH   1  20
ATOM     18  O   UNL     1      46.690   4.395  18.153  0.00  0.00    +0.000 OA
ATOM     19  C   UNL     1      47.639   4.995  17.657  0.00  0.00    +0.000 C 
ATOM     20  N   UNL     1      48.007   4.841  16.344  0.00  0.00    +0.000 N 
ATOM     21  H   UNL     1      48.880   5.240  16.020  0.00  0.00    +0.000 HD
BRANCH  19  22
ATOM     22  C   UNL     1      48.428   5.951  18.428  0.00  0.00    +0.000 A 
ATOM     23  C   UNL     1      48.769   7.213  17.953  0.00  0.00    +0.000 A 
ATOM     24  N   UNL     1      49.518   7.856  18.901  0.00  0.00    +0.000 N 
ATOM     25  C   UNL     1      49.648   7.052  19.999  0.00  0.00    +0.000 A 
ATOM     26  N   UNL     1      50.305   7.391  21.118  0.00  0.00    +0.000 NA
ATOM     27  C   UNL     1      50.253   6.412  22.039  0.00  0.00    +0.000 A 
ATOM     28  N   UNL     1      49.647   5.214  21.945  0.00  0.00    +0.000 NA
ATOM     29  C   UNL     1      49.017   4.949  20.792  0.00  0.00    +0.000 A 
ATOM     30  C   UNL     1      48.984   5.862  19.746  0.00  0.00    +0.000 A 
ATOM     31  H   UNL     1      49.912   8.783  18.827  0.00  0.00    +0.000 HD
BRANCH  29  32
ATOM     32  O   UNL     1      48.418   3.722  20.738  0.00  0.00    +0.000 OA
ATOM     33  H   UNL     1      47.961   3.711  21.598  0.00  0.00    +0.000 HD
ENDBRANCH  29  32
ENDBRANCH  19  22
ENDBRANCH   1  20
TORSDOF 8
ENDMDL
MODEL 7
REMARK VINA RESULT:    -7.119      3.218      9.646
REMARK INTER + INTRA:         -11.339
REMARK INTER:                  -9.426
REMARK INTRA:                  -1.913
REMARK UNBOUND:                -1.099
REMARK  Name = 
REMARK  8 active torsions:
REMARK  status: ('A' for Active; 'I' for Inactive)
REMARK    1  A    between atoms: C_2  and  C_20
REMARK    2  A    between atoms: N_3  and  C_4
REMARK    3  A    between atoms: C_4  and  C_5
REMARK    4  A    between atoms: C_8  and  C_9
REMARK    5  A    between atoms: C_9  and  C_10
REMARK    6  A    between atoms: C_10  and  N_11
REMARK    7  A    between atoms: N_11  and  C_12
REMARK    8  A    between atoms: C_27  and  O_28
REMARK                            x       y       z     vdW  Elec       q    Type
REMARK                         _______ _______ _______ _____ _____    ______ ____
ROOT
ATOM      1  C   UNL     1      47.794   3.788  16.658  0.00  0.00    +0.000 C 
ENDROOT
BRANCH   1   2
ATOM      2  C   UNL     1      47.849   4.408  18.028  0.00  0.00    +0.000 A 
ATOM      3  C   UNL     1      48.796   3.971  18.961  0.00  0.00    +0.000 A 
ATOM      4  C   UNL     1      48.887   4.577  20.216  0.00  0.00    +0.000 A 
ATOM      5  C   UNL     1      48.042   5.635  20.569  0.00  0.00    +0.000 A 
ATOM      6  C   UNL     1      47.053   6.028  19.654  0.00  0.00    +0.000 A 
ATOM      7  C   UNL     1      46.958   5.423  18.397  0.00  0.00    +0.000 A 
BRANCH   5   8
ATOM      8  C   UNL     1      48.126   6.340  21.909  0.00  0.00    +0.000 C 
BRANCH   8   9
ATOM      9  C   UNL     1      48.222   7.878  21.886  0.00  0.00    +0.000 C 
BRANCH   9  10
ATOM     10  N   UNL     1      49.499   8.355  21.347  0.00  0.00    +0.000 NA
ATOM     11  H   UNL     1      50.152   7.575  21.273  0.00  0.00    +0.000 HD
BRANCH  10  12
ATOM     12  C   UNL     1      49.391   9.047  20.056  0.00  0.00    +0.000 C 
ATOM     13  C   UNL     1      47.923   9.475  19.862  0.00  0.00    +0.000 C 
ATOM     14  C   UNL     1      47.685  10.120  18.496  0.00  0.00    +0.000 C 
ATOM     15  C   UNL     1      48.146   9.215  17.359  0.00  0.00    +0.000 C 
ATOM     16  C   UNL     1      49.606   8.825  17.532  0.00  0.00    +0.000 C 
ATOM     17  C   UNL     1      49.850   8.162  18.884  0.00  0.00    +0.000 C 
ENDBRANCH  10  12
ENDBRANCH   9  10
ENDBRANCH   8   9
ENDBRANCH   5   8
ENDBRANCH   1   2
BRANCH   1  20
ATOM     18  O   UNL     1      47.280   3.131  14.014  0.00  0.00    +0.000 OA
ATOM     19  C   UNL     1      46.893   4.218  14.431  0.00  0.00    +0.000 C 
ATOM     20  N   UNL     1      47.151   4.654  15.707  0.00  0.00    +0.000 N 
ATOM     21  H   UNL     1      46.689   5.487  16.053  0.00  0.00    +0.000 HD
BRANCH  19  22
ATOM     22  C   UNL     1      46.154   5.147  13.582  0.00  0.00    +0.000 A 
ATOM     23  C   UNL     1      46.489   6.491  13.453  0.00  0.00    +0.000 A 
ATOM     24  N   UNL     1      45.602   7.089  12.601  0.00  0.00    +0.000 N 
ATOM     25  C   UNL     1      44.711   6.158  12.145  0.00  0.00    +0.000 A 
ATOM     26  N   UNL     1      43.722   6.411  11.275  0.00  0.00    +0.000 NA
ATOM     27  C   UNL     1      43.015   5.302  10.992  0.00  0.00    +0.000 A 
ATOM     28  N   UNL     1      43.197   4.056  11.468  0.00  0.00    +0.000 NA
ATOM     29  C   UNL     1      44.202   3.887  12.339  0.00  0.00    +0.000 A 
ATOM     30  C   UNL     1      45.021   4.939  12.729  0.00  0.00    +0.000 A 
ATOM     31  H   UNL     1      45.594   8.062  12.328  0.00  0.00    +0.000 HD
BRANCH  29  32
ATOM     32  O   UNL     1      44.350   2.610  12.799  0.00  0.00    +0.000 OA
ATOM     33  H   UNL     1      44.763   2.781  13.665  0.00  0.00    +0.000 HD
ENDBRANCH  29  32
ENDBRANCH  19  22
ENDBRANCH   1  20
TORSDOF 8
ENDMDL
MODEL 8
REMARK VINA RESULT:    -7.034      3.412      9.838
REMARK INTER + INTRA:         -11.217
REMARK INTER:                 -10.445
REMARK INTRA:                  -0.772
REMARK UNBOUND:                -1.099
REMARK  Name = 
REMARK  8 active torsions:
REMARK  status: ('A' for Active; 'I' for Inactive)
REMARK    1  A    between atoms: C_2  and  C_20
REMARK    2  A    between atoms: N_3  and  C_4
REMARK    3  A    between atoms: C_4  and  C_5
REMARK    4  A    between atoms: C_8  and  C_9
REMARK    5  A    between atoms: C_9  and  C_10
REMARK    6  A    between atoms: C_10  and  N_11
REMARK    7  A    between atoms: N_11  and  C_12
REMARK    8  A    between atoms: C_27  and  O_28
REMARK                            x       y       z     vdW  Elec       q    Type
REMARK                         _______ _______ _______ _____ _____    ______ ____
ROOT
ATOM      1  C   UNL     1      43.479   5.711  11.128  0.00  0.00    +0.000 C 
ENDROOT
BRANCH   1   2
ATOM      2  C   UNL     1      44.628   6.340  11.867  0.00  0.00    +0.000 A 
ATOM      3  C   UNL     1      44.932   7.693  11.676  0.00  0.00    +0.000 A 
ATOM      4  C   UNL     1      45.964   8.297  12.397  0.00  0.00    +0.000 A 
ATOM      5  C   UNL     1      46.715   7.570  13.328  0.00  0.00    +0.000 A 
ATOM      6  C   UNL     1      46.447   6.200  13.471  0.00  0.00    +0.000 A 
ATOM      7  C   UNL     1      45.415   5.591  12.749  0.00  0.00    +0.000 A 
BRANCH   5   8
ATOM      8  C   UNL     1      47.824   8.193  14.153  0.00  0.00    +0.000 C 
BRANCH   8   9
ATOM      9  C   UNL     1      48.812   7.229  14.839  0.00  0.00    +0.000 C 
BRANCH   9  10
ATOM     10  N   UNL     1      48.315   6.737  16.127  0.00  0.00    +0.000 NA
ATOM     11  H   UNL     1      47.317   6.932  16.207  0.00  0.00    +0.000 HD
BRANCH  10  12
ATOM     12  C   UNL     1      48.572   5.312  16.372  0.00  0.00    +0.000 C 
ATOM     13  C   UNL     1      47.297   4.692  16.980  0.00  0.00    +0.000 C 
ATOM     14  C   UNL     1      47.496   3.225  17.364  0.00  0.00    +0.000 C 
ATOM     15  C   UNL     1      48.689   3.045  18.296  0.00  0.00    +0.000 C 
ATOM     16  C   UNL     1      49.953   3.623  17.678  0.00  0.00    +0.000 C 
ATOM     17  C   UNL     1      49.772   5.092  17.309  0.00  0.00    +0.000 C 
ENDBRANCH  10  12
ENDBRANCH   9  10
ENDBRANCH   8   9
ENDBRANCH   5   8
ENDBRANCH   1   2
BRANCH   1  20
ATOM     18  O   UNL     1      45.241   5.440   9.004  0.00  0.00    +0.000 OA
ATOM     19  C   UNL     1      44.777   4.423   9.511  0.00  0.00    +0.000 C 
ATOM     20  N   UNL     1      43.854   4.459  10.526  0.00  0.00    +0.000 N 
ATOM     21  H   UNL     1      43.612   3.603  11.011  0.00  0.00    +0.000 HD
BRANCH  19  22
ATOM     22  C   UNL     1      45.150   3.093   9.041  0.00  0.00    +0.000 A 
ATOM     23  C   UNL     1      44.522   1.930   9.475  0.00  0.00    +0.000 A 
ATOM     24  N   UNL     1      45.107   0.855   8.861  0.00  0.00    +0.000 N 
ATOM     25  C   UNL     1      46.084   1.294   8.012  0.00  0.00    +0.000 A 
ATOM     26  N   UNL     1      46.837   0.496   7.239  0.00  0.00    +0.000 NA
ATOM     27  C   UNL     1      47.703   1.204   6.492  0.00  0.00    +0.000 A 
ATOM     28  N   UNL     1      47.870   2.539   6.454  0.00  0.00    +0.000 NA
ATOM     29  C   UNL     1      47.085   3.266   7.261  0.00  0.00    +0.000 A 
ATOM     30  C   UNL     1      46.140   2.677   8.093  0.00  0.00    +0.000 A 
ATOM     31  H   UNL     1      44.864  -0.116   8.992  0.00  0.00    +0.000 HD
BRANCH  29  32
ATOM     32  O   UNL     1      47.288   4.614   7.193  0.00  0.00    +0.000 OA
ATOM     33  H   UNL     1      47.751   4.765   8.037  0.00  0.00    +0.000 HD
ENDBRANCH  29  32
ENDBRANCH  19  22
ENDBRANCH   1  20
TORSDOF 8
ENDMDL
MODEL 9
REMARK VINA RESULT:    -6.933      3.860      9.427
REMARK INTER + INTRA:         -11.072
REMARK INTER:                  -9.166
REMARK INTRA:                  -1.906
REMARK UNBOUND:                -1.099
REMARK  Name = 
REMARK  8 active torsions:
REMARK  status: ('A' for Active; 'I' for Inactive)
REMARK    1  A    between atoms: C_2  and  C_20
REMARK    2  A    between atoms: N_3  and  C_4
REMARK    3  A    between atoms: C_4  and  C_5
REMARK    4  A    between atoms: C_8  and  C_9
REMARK    5  A    between atoms: C_9  and  C_10
REMARK    6  A    between atoms: C_10  and  N_11
REMARK    7  A    between atoms: N_11  and  C_12
REMARK    8  A    between atoms: C_27  and  O_28
REMARK                            x       y       z     vdW  Elec       q    Type
REMARK                         _______ _______ _______ _____ _____    ______ ____
ROOT
ATOM      1  C   UNL     1      45.739   7.496  12.842  0.00  0.00    +0.000 C 
ENDROOT
BRANCH   1   2
ATOM      2  C   UNL     1      47.146   8.009  12.697  0.00  0.00    +0.000 A 
ATOM      3  C   UNL     1      47.541   9.178  13.357  0.00  0.00    +0.000 A 
ATOM      4  C   UNL     1      48.859   9.633  13.269  0.00  0.00    +0.000 A 
ATOM      5  C   UNL     1      49.815   8.930  12.526  0.00  0.00    +0.000 A 
ATOM      6  C   UNL     1      49.400   7.793  11.817  0.00  0.00    +0.000 A 
ATOM      7  C   UNL     1      48.081   7.336  11.901  0.00  0.00    +0.000 A 
BRANCH   5   8
ATOM      8  C   UNL     1      51.262   9.371  12.429  0.00  0.00    +0.000 C 
BRANCH   8   9
ATOM      9  C   UNL     1      52.134   9.200  13.688  0.00  0.00    +0.000 C 
BRANCH   9  10
ATOM     10  N   UNL     1      52.031   7.855  14.264  0.00  0.00    +0.000 NA
ATOM     11  H   UNL     1      52.960   7.438  14.328  0.00  0.00    +0.000 HD
BRANCH  10  12
ATOM     12  C   UNL     1      51.363   7.804  15.570  0.00  0.00    +0.000 C 
ATOM     13  C   UNL     1      50.078   6.965  15.420  0.00  0.00    +0.000 C 
ATOM     14  C   UNL     1      49.255   6.933  16.707  0.00  0.00    +0.000 C 
ATOM     15  C   UNL     1      48.934   8.338  17.204  0.00  0.00    +0.000 C 
ATOM     16  C   UNL     1      50.205   9.153  17.389  0.00  0.00    +0.000 C 
ATOM     17  C   UNL     1      51.025   9.207  16.103  0.00  0.00    +0.000 C 
ENDBRANCH  10  12
ENDBRANCH   9  10
ENDBRANCH   8   9
ENDBRANCH   5   8
ENDBRANCH   1   2
BRANCH   1  20
ATOM     18  O   UNL     1      43.644   5.738  13.301  0.00  0.00    +0.000 OA
ATOM     19  C   UNL     1      44.458   5.462  12.424  0.00  0.00    +0.000 C 
ATOM     20  N   UNL     1      45.558   6.240  12.165  0.00  0.00    +0.000 N 
ATOM     21  H   UNL     1      46.117   6.056  11.340  0.00  0.00    +0.000 HD
BRANCH  19  22
ATOM     22  C   UNL     1      44.330   4.256  11.612  0.00  0.00    +0.000 A 
ATOM     23  C   UNL     1      43.725   3.091  12.070  0.00  0.00    +0.000 A 
ATOM     24  N   UNL     1      43.775   2.146  11.081  0.00  0.00    +0.000 N 
ATOM     25  C   UNL     1      44.374   2.680   9.974  0.00  0.00    +0.000 A 
ATOM     26  N   UNL     1      44.561   2.024   8.818  0.00  0.00    +0.000 NA
ATOM     27  C   UNL     1      45.158   2.803   7.898  0.00  0.00    +0.000 A 
ATOM     28  N   UNL     1      45.554   4.084   8.024  0.00  0.00    +0.000 NA
ATOM     29  C   UNL     1      45.337   4.665   9.212  0.00  0.00    +0.000 A 
ATOM     30  C   UNL     1      44.731   3.988  10.262  0.00  0.00    +0.000 A 
ATOM     31  H   UNL     1      43.422   1.201  11.135  0.00  0.00    +0.000 HD
BRANCH  29  32
ATOM     32  O   UNL     1      45.756   5.962   9.297  0.00  0.00    +0.000 OA
ATOM     33  H   UNL     1      44.987   6.422   8.914  0.00  0.00    +0.000 HD
ENDBRANCH  29  32
ENDBRANCH  19  22
ENDBRANCH   1  20
TORSDOF 8
ENDMDL
