MODEL 1
REMARK VINA RESULT:    -7.649      0.000      0.000
REMARK INTER + INTRA:         -11.253
REMARK INTER:                 -10.555
REMARK INTRA:                  -0.698
REMARK UNBOUND:                -0.698
REMARK  Name = 
REMARK  8 active torsions:
REMARK  status: ('A' for Active; 'I' for Inactive)
REMARK    1  A    between atoms: C_1  and  C_2
REMARK    2  A    between atoms: C_4  and  C_5
REMARK    3  A    between atoms: C_10  and  C_11
REMARK    4  A    between atoms: C_11  and  C_12
REMARK    5  A    between atoms: C_12  and  N_13
REMARK    6  A    between atoms: N_13  and  C_14
REMARK    7  A    between atoms: C_18  and  C_19
REMARK    8  A    between atoms: C_19  and  N_20
REMARK                            x       y       z     vdW  Elec       q    Type
REMARK                         _______ _______ _______ _____ _____    ______ ____
ROOT
ATOM      1  C   UNL     1      44.710   3.362  12.294  0.00  0.00    +0.000 C 
ENDROOT
BRANCH   1   8
ATOM      2  C   UNL     1      46.868   4.576  14.084  0.00  0.00    +0.000 C 
ATOM      3  C   UNL     1      45.984   5.408  13.201  0.00  0.00    +0.000 A 
ATOM      4  N   UNL     1      46.234   6.741  13.241  0.00  0.00    +0.000 NA
ATOM      5  C   UNL     1      45.477   7.551  12.452  0.00  0.00    +0.000 A 
ATOM      6  C   UNL     1      44.478   7.093  11.613  0.00  0.00    +0.000 A 
ATOM      7  C   UNL     1      44.234   5.724  11.585  0.00  0.00    +0.000 A 
ATOM      8  C   UNL     1      44.984   4.850  12.390  0.00  0.00    +0.000 A 
BRANCH   5   9
ATOM      9  C   UNL     1      45.778   9.017  12.530  0.00  0.00    +0.000 C 
ATOM     10  N   UNL     1      44.682   9.829  12.653  0.00  0.00    +0.000 N 
ATOM     11  O   UNL     1      46.916   9.466  12.483  0.00  0.00    +0.000 OA
ATOM     12  H   UNL     1      43.759   9.415  12.676  0.00  0.00    +0.000 HD
ATOM     13  H   UNL     1      44.802  10.830  12.695  0.00  0.00    +0.000 HD
ENDBRANCH   5   9
ENDBRANCH   1   8
BRANCH   1  14
ATOM     14  C   UNL     1      43.737   3.050  11.151  0.00  0.00    +0.000 C 
BRANCH  14  15
ATOM     15  N   UNL     1      44.289   2.085  10.201  0.00  0.00    +0.000 N 
ATOM     16  H   UNL     1      44.627   1.215  10.604  0.00  0.00    +0.000 HD
BRANCH  15  17
ATOM     17  C   UNL     1      45.151   2.554   9.192  0.00  0.00    +0.000 A 
ATOM     18  C   UNL     1      45.232   3.900   8.816  0.00  0.00    +0.000 A 
ATOM     19  C   UNL     1      46.051   4.317   7.762  0.00  0.00    +0.000 A 
ATOM     20  C   UNL     1      46.785   3.387   7.036  0.00  0.00    +0.000 A 
ATOM     21  C   UNL     1      46.705   2.029   7.355  0.00  0.00    +0.000 A 
ATOM     22  C   UNL     1      45.879   1.627   8.428  0.00  0.00    +0.000 A 
BRANCH  21  23
ATOM     23  C   UNL     1      47.459   1.011   6.535  0.00  0.00    +0.000 C 
BRANCH  23  24
ATOM     24  N   UNL     1      48.461   1.637   5.681  0.00  0.00    +0.000 NA
ATOM     25  H   UNL     1      48.728   0.974   4.955  0.00  0.00    +0.000 HD
ATOM     26  H   UNL     1      49.299   1.815   6.231  0.00  0.00    +0.000 HD
ENDBRANCH  23  24
ENDBRANCH  21  23
ENDBRANCH  15  17
ENDBRANCH  14  15
ENDBRANCH   1  14
TORSDOF 7
ENDMDL
MODEL 2
REMARK VINA RESULT:    -7.181      2.250      3.375
REMARK INTER + INTRA:         -10.608
REMARK INTER:                  -9.926
REMARK INTRA:                  -0.682
REMARK UNBOUND:                -0.698
REMARK  Name = 
REMARK  8 active torsions:
REMARK  status: ('A' for Active; 'I' for Inactive)
REMARK    1  A    between atoms: C_1  and  C_2
REMARK    2  A    between atoms: C_4  and  C_5
REMARK    3  A    between atoms: C_10  and  C_11
REMARK    4  A    between atoms: C_11  and  C_12
REMARK    5  A    between atoms: C_12  and  N_13
REMARK    6  A    between atoms: N_13  and  C_14
REMARK    7  A    between atoms: C_18  and  C_19
REMARK    8  A    between atoms: C_19  and  N_20
REMARK                            x       y       z     vdW  Elec       q    Type
REMARK                         _______ _______ _______ _____ _____    ______ ____
ROOT
ATOM      1  C   UNL     1      45.493   5.873  10.651  0.00  0.00    +0.000 C 
ENDROOT
BRANCH   1   8
ATOM      2  C   UNL     1      47.897   7.310  11.872  0.00  0.00    +0.000 C 
ATOM      3  C   UNL     1      47.197   6.173  12.558  0.00  0.00    +0.000 A 
ATOM      4  N   UNL     1      47.700   5.848  13.776  0.00  0.00    +0.000 NA
ATOM      5  C   UNL     1      47.103   4.834  14.458  0.00  0.00    +0.000 A 
ATOM      6  C   UNL     1      46.013   4.125  13.985  0.00  0.00    +0.000 A 
ATOM      7  C   UNL     1      45.511   4.471  12.735  0.00  0.00    +0.000 A 
ATOM      8  C   UNL     1      46.102   5.505  11.989  0.00  0.00    +0.000 A 
BRANCH   5   9
ATOM      9  C   UNL     1      47.692   4.500  15.795  0.00  0.00    +0.000 C 
ATOM     10  N   UNL     1      46.999   3.566  16.518  0.00  0.00    +0.000 N 
ATOM     11  O   UNL     1      48.714   5.021  16.220  0.00  0.00    +0.000 OA
ATOM     12  H   UNL     1      46.151   3.170  16.131  0.00  0.00    +0.000 HD
ATOM     13  H   UNL     1      47.323   3.301  17.435  0.00  0.00    +0.000 HD
ENDBRANCH   5   9
ENDBRANCH   1   8
BRANCH   1  14
ATOM     14  C   UNL     1      44.329   4.939  10.296  0.00  0.00    +0.000 C 
BRANCH  14  15
ATOM     15  N   UNL     1      44.283   4.632   8.867  0.00  0.00    +0.000 N 
ATOM     16  H   UNL     1      43.367   4.697   8.432  0.00  0.00    +0.000 HD
BRANCH  15  17
ATOM     17  C   UNL     1      44.997   3.514   8.398  0.00  0.00    +0.000 A 
ATOM     18  C   UNL     1      45.019   2.282   9.062  0.00  0.00    +0.000 A 
ATOM     19  C   UNL     1      45.796   1.215   8.600  0.00  0.00    +0.000 A 
ATOM     20  C   UNL     1      46.599   1.369   7.477  0.00  0.00    +0.000 A 
ATOM     21  C   UNL     1      46.635   2.594   6.805  0.00  0.00    +0.000 A 
ATOM     22  C   UNL     1      45.837   3.658   7.280  0.00  0.00    +0.000 A 
BRANCH  21  23
ATOM     23  C   UNL     1      47.546   2.781   5.616  0.00  0.00    +0.000 C 
BRANCH  23  24
ATOM     24  N   UNL     1      48.393   1.616   5.394  0.00  0.00    +0.000 NA
ATOM     25  H   UNL     1      48.857   1.380   6.270  0.00  0.00    +0.000 HD
ATOM     26  H   UNL     1      49.129   1.863   4.737  0.00  0.00    +0.000 HD
ENDBRANCH  23  24
ENDBRANCH  21  23
ENDBRANCH  15  17
ENDBRANCH  14  15
ENDBRANCH   1  14
TORSDOF 7
ENDMDL
MODEL 3
REMARK VINA RESULT:    -6.960      1.617      1.793
REMARK INTER + INTRA:         -10.302
REMARK INTER:                  -9.255
REMARK INTRA:                  -1.048
REMARK UNBOUND:                -0.698
REMARK  Name = 
REMARK  8 active torsions:
REMARK  status: ('A' for Active; 'I' for Inactive)
REMARK    1  A    between atoms: C_1  and  C_2
REMARK    2  A    between atoms: C_4  and  C_5
REMARK    3  A    between atoms: C_10  and  C_11
REMARK    4  A    between atoms: C_11  and  C_12
REMARK    5  A    between atoms: C_12  and  N_13
REMARK    6  A    between atoms: N_13  and  C_14
REMARK    7  A    between atoms: C_18  and  C_19
REMARK    8  A    between atoms: C_19  and  N_20
REMARK                            x       y       z     vdW  Elec       q    Type
REMARK                         _______ _______ _______ _____ _____    ______ ____
ROOT
ATOM      1  C   UNL     1      43.722   4.279  12.833  0.00  0.00    +0.000 C 
ENDROOT
BRANCH   1   8
ATOM      2  C   UNL     1      46.601   3.468  13.453  0.00  0.00    +0.000 C 
ATOM      3  C   UNL     1      46.228   4.849  12.997  0.00  0.00    +0.000 A 
ATOM      4  N   UNL     1      47.273   5.703  12.858  0.00  0.00    +0.000 NA
ATOM      5  C   UNL     1      47.006   6.968  12.435  0.00  0.00    +0.000 A 
ATOM      6  C   UNL     1      45.736   7.425  12.133  0.00  0.00    +0.000 A 
ATOM      7  C   UNL     1      44.676   6.537  12.281  0.00  0.00    +0.000 A 
ATOM      8  C   UNL     1      44.904   5.223  12.727  0.00  0.00    +0.000 A 
BRANCH   5   9
ATOM      9  C   UNL     1      48.185   7.883  12.301  0.00  0.00    +0.000 C 
ATOM     10  N   UNL     1      49.364   7.385  12.788  0.00  0.00    +0.000 N 
ATOM     11  O   UNL     1      48.109   8.996  11.799  0.00  0.00    +0.000 OA
ATOM     12  H   UNL     1      49.377   6.463  13.206  0.00  0.00    +0.000 HD
ATOM     13  H   UNL     1      50.200   7.948  12.750  0.00  0.00    +0.000 HD
ENDBRANCH   5   9
ENDBRANCH   1   8
BRANCH   1  14
ATOM     14  C   UNL     1      43.208   3.877  11.445  0.00  0.00    +0.000 C 
BRANCH  14  15
ATOM     15  N   UNL     1      43.988   2.786  10.861  0.00  0.00    +0.000 N 
ATOM     16  H   UNL     1      44.431   2.157  11.525  0.00  0.00    +0.000 HD
BRANCH  15  17
ATOM     17  C   UNL     1      44.840   3.076   9.779  0.00  0.00    +0.000 A 
ATOM     18  C   UNL     1      44.988   4.359   9.239  0.00  0.00    +0.000 A 
ATOM     19  C   UNL     1      45.792   4.593   8.120  0.00  0.00    +0.000 A 
ATOM     20  C   UNL     1      46.443   3.539   7.492  0.00  0.00    +0.000 A 
ATOM     21  C   UNL     1      46.293   2.236   7.976  0.00  0.00    +0.000 A 
ATOM     22  C   UNL     1      45.484   2.019   9.113  0.00  0.00    +0.000 A 
BRANCH  21  23
ATOM     23  C   UNL     1      46.955   1.081   7.266  0.00  0.00    +0.000 C 
BRANCH  23  24
ATOM     24  N   UNL     1      46.637  -0.196   7.893  0.00  0.00    +0.000 NA
ATOM     25  H   UNL     1      47.485  -0.568   8.317  0.00  0.00    +0.000 HD
ATOM     26  H   UNL     1      46.361  -0.858   7.172  0.00  0.00    +0.000 HD
ENDBRANCH  23  24
ENDBRANCH  21  23
ENDBRANCH  15  17
ENDBRANCH  14  15
ENDBRANCH   1  14
TORSDOF 7
ENDMDL
MODEL 4
REMARK VINA RESULT:    -6.745      2.632      6.726
REMARK INTER + INTRA:         -10.007
REMARK INTER:                  -9.048
REMARK INTRA:                  -0.959
REMARK UNBOUND:                -0.698
REMARK  Name = 
REMARK  8 active torsions:
REMARK  status: ('A' for Active; 'I' for Inactive)
REMARK    1  A    between atoms: C_1  and  C_2
REMARK    2  A    between atoms: C_4  and  C_5
REMARK    3  A    between atoms: C_10  and  C_11
REMARK    4  A    between atoms: C_11  and  C_12
REMARK    5  A    between atoms: C_12  and  N_13
REMARK    6  A    between atoms: N_13  and  C_14
REMARK    7  A    between atoms: C_18  and  C_19
REMARK    8  A    between atoms: C_19  and  N_20
REMARK                            x       y       z     vdW  Elec       q    Type
REMARK                         _______ _______ _______ _____ _____    ______ ____
ROOT
ATOM      1  C   UNL     1      43.611   3.587  10.740  0.00  0.00    +0.000 C 
ENDROOT
BRANCH   1   8
ATOM      2  C   UNL     1      45.439   5.692   9.492  0.00  0.00    +0.000 C 
ATOM      3  C   UNL     1      45.464   4.249   9.080  0.00  0.00    +0.000 A 
ATOM      4  N   UNL     1      46.381   3.947   8.125  0.00  0.00    +0.000 NA
ATOM      5  C   UNL     1      46.465   2.653   7.716  0.00  0.00    +0.000 A 
ATOM      6  C   UNL     1      45.679   1.633   8.221  0.00  0.00    +0.000 A 
ATOM      7  C   UNL     1      44.745   1.960   9.198  0.00  0.00    +0.000 A 
ATOM      8  C   UNL     1      44.614   3.286   9.644  0.00  0.00    +0.000 A 
BRANCH   5   9
ATOM      9  C   UNL     1      47.483   2.361   6.656  0.00  0.00    +0.000 C 
ATOM     10  N   UNL     1      47.314   3.048   5.483  0.00  0.00    +0.000 N 
ATOM     11  O   UNL     1      48.399   1.565   6.814  0.00  0.00    +0.000 OA
ATOM     12  H   UNL     1      46.534   3.688   5.393  0.00  0.00    +0.000 HD
ATOM     13  H   UNL     1      47.949   2.894   4.715  0.00  0.00    +0.000 HD
ENDBRANCH   5   9
ENDBRANCH   1   8
BRANCH   1  14
ATOM     14  C   UNL     1      44.030   2.941  12.067  0.00  0.00    +0.000 C 
BRANCH  14  15
ATOM     15  N   UNL     1      44.135   3.919  13.149  0.00  0.00    +0.000 N 
ATOM     16  H   UNL     1      43.256   4.320  13.467  0.00  0.00    +0.000 HD
BRANCH  15  17
ATOM     17  C   UNL     1      45.150   4.891  13.079  0.00  0.00    +0.000 A 
ATOM     18  C   UNL     1      46.499   4.613  13.330  0.00  0.00    +0.000 A 
ATOM     19  C   UNL     1      47.468   5.621  13.317  0.00  0.00    +0.000 A 
ATOM     20  C   UNL     1      47.102   6.941  13.086  0.00  0.00    +0.000 A 
ATOM     21  C   UNL     1      45.761   7.268  12.868  0.00  0.00    +0.000 A 
ATOM     22  C   UNL     1      44.796   6.236  12.876  0.00  0.00    +0.000 A 
BRANCH  21  23
ATOM     23  C   UNL     1      45.353   8.707  12.670  0.00  0.00    +0.000 C 
BRANCH  23  24
ATOM     24  N   UNL     1      46.378   9.631  13.141  0.00  0.00    +0.000 NA
ATOM     25  H   UNL     1      47.241   9.442  12.635  0.00  0.00    +0.000 HD
ATOM     26  H   UNL     1      46.570   9.440  14.121  0.00  0.00    +0.000 HD
ENDBRANCH  23  24
ENDBRANCH  21  23
ENDBRANCH  15  17
ENDBRANCH  14  15
ENDBRANCH   1  14
TORSDOF 7
ENDMDL
MODEL 5
REMARK VINA RESULT:    -6.653      2.855      4.490
REMARK INTER + INTRA:          -9.879
REMARK INTER:                  -8.969
REMARK INTRA:                  -0.910
REMARK UNBOUND:                -0.698
REMARK  Name = 
REMARK  8 active torsions:
REMARK  status: ('A' for Active; 'I' for Inactive)
REMARK    1  A    between atoms: C_1  and  C_2
REMARK    2  A    between atoms: C_4  and  C_5
REMARK    3  A    between atoms: C_10  and  C_11
REMARK    4  A    between atoms: C_11  and  C_12
REMARK    5  A    between atoms: C_12  and  N_13
REMARK    6  A    between atoms: N_13  and  C_14
REMARK    7  A    between atoms: C_18  and  C_19
REMARK    8  A    between atoms: C_19  and  N_20
REMARK                            x       y       z     vdW  Elec       q    Type
REMARK                         _______ _______ _______ _____ _____    ______ ____
ROOT
ATOM      1  C   UNL     1      46.848   6.517  11.993  0.00  0.00    +0.000 C 
ENDROOT
BRANCH   1   8
ATOM      2  C   UNL     1      48.575   7.497  14.315  0.00  0.00    +0.000 C 
ATOM      3  C   UNL     1      47.889   6.161  14.322  0.00  0.00    +0.000 A 
ATOM      4  N   UNL     1      48.076   5.432  15.451  0.00  0.00    +0.000 NA
ATOM      5  C   UNL     1      47.470   4.217  15.527  0.00  0.00    +0.000 A 
ATOM      6  C   UNL     1      46.673   3.689  14.527  0.00  0.00    +0.000 A 
ATOM      7  C   UNL     1      46.493   4.450  13.376  0.00  0.00    +0.000 A 
ATOM      8  C   UNL     1      47.108   5.707  13.248  0.00  0.00    +0.000 A 
BRANCH   5   9
ATOM      9  C   UNL     1      47.706   3.439  16.786  0.00  0.00    +0.000 C 
ATOM     10  N   UNL     1      49.020   3.308  17.150  0.00  0.00    +0.000 N 
ATOM     11  O   UNL     1      46.799   2.948  17.445  0.00  0.00    +0.000 OA
ATOM     12  H   UNL     1      49.738   3.721  16.567  0.00  0.00    +0.000 HD
ATOM     13  H   UNL     1      49.262   2.784  17.977  0.00  0.00    +0.000 HD
ENDBRANCH   5   9
ENDBRANCH   1   8
BRANCH   1  14
ATOM     14  C   UNL     1      45.383   6.961  11.914  0.00  0.00    +0.000 C 
BRANCH  14  15
ATOM     15  N   UNL     1      44.777   6.643  10.621  0.00  0.00    +0.000 N 
ATOM     16  H   UNL     1      43.939   7.167  10.387  0.00  0.00    +0.000 HD
BRANCH  15  17
ATOM     17  C   UNL     1      44.661   5.291  10.250  0.00  0.00    +0.000 A 
ATOM     18  C   UNL     1      43.987   4.337  11.022  0.00  0.00    +0.000 A 
ATOM     19  C   UNL     1      43.952   2.989  10.653  0.00  0.00    +0.000 A 
ATOM     20  C   UNL     1      44.621   2.557   9.515  0.00  0.00    +0.000 A 
ATOM     21  C   UNL     1      45.337   3.470   8.735  0.00  0.00    +0.000 A 
ATOM     22  C   UNL     1      45.355   4.830   9.118  0.00  0.00    +0.000 A 
BRANCH  21  23
ATOM     23  C   UNL     1      46.109   2.996   7.528  0.00  0.00    +0.000 C 
BRANCH  23  24
ATOM     24  N   UNL     1      46.922   4.061   6.953  0.00  0.00    +0.000 NA
ATOM     25  H   UNL     1      47.847   4.029   7.381  0.00  0.00    +0.000 HD
ATOM     26  H   UNL     1      46.518   4.959   7.205  0.00  0.00    +0.000 HD
ENDBRANCH  23  24
ENDBRANCH  21  23
ENDBRANCH  15  17
ENDBRANCH  14  15
ENDBRANCH   1  14
TORSDOF 7
ENDMDL
MODEL 6
REMARK VINA RESULT:    -6.486      2.831      4.831
REMARK INTER + INTRA:          -9.649
REMARK INTER:                  -8.623
REMARK INTRA:                  -1.027
REMARK UNBOUND:                -0.698
REMARK  Name = 
REMARK  8 active torsions:
REMARK  status: ('A' for Active; 'I' for Inactive)
REMARK    1  A    between atoms: C_1  and  C_2
REMARK    2  A    between atoms: C_4  and  C_5
REMARK    3  A    between atoms: C_10  and  C_11
REMARK    4  A    between atoms: C_11  and  C_12
REMARK    5  A    between atoms: C_12  and  N_13
REMARK    6  A    between atoms: N_13  and  C_14
REMARK    7  A    between atoms: C_18  and  C_19
REMARK    8  A    between atoms: C_19  and  N_20
REMARK                            x       y       z     vdW  Elec       q    Type
REMARK                         _______ _______ _______ _____ _____    ______ ____
ROOT
ATOM      1  C   UNL     1      46.953   6.813  12.324  0.00  0.00    +0.000 C 
ENDROOT
BRANCH   1   8
ATOM      2  C   UNL     1      48.605   7.547  14.787  0.00  0.00    +0.000 C 
ATOM      3  C   UNL     1      48.012   6.183  14.585  0.00  0.00    +0.000 A 
ATOM      4  N   UNL     1      48.246   5.306  15.594  0.00  0.00    +0.000 NA
ATOM      5  C   UNL     1      47.724   4.055  15.480  0.00  0.00    +0.000 A 
ATOM      6  C   UNL     1      46.967   3.632  14.403  0.00  0.00    +0.000 A 
ATOM      7  C   UNL     1      46.737   4.543  13.377  0.00  0.00    +0.000 A 
ATOM      8  C   UNL     1      47.266   5.843  13.446  0.00  0.00    +0.000 A 
BRANCH   5   9
ATOM      9  C   UNL     1      48.011   3.115  16.611  0.00  0.00    +0.000 C 
ATOM     10  N   UNL     1      46.987   2.953  17.506  0.00  0.00    +0.000 N 
ATOM     11  O   UNL     1      49.080   2.533  16.737  0.00  0.00    +0.000 OA
ATOM     12  H   UNL     1      46.123   3.464  17.368  0.00  0.00    +0.000 HD
ATOM     13  H   UNL     1      47.108   2.348  18.304  0.00  0.00    +0.000 HD
ENDBRANCH   5   9
ENDBRANCH   1   8
BRANCH   1  14
ATOM     14  C   UNL     1      45.479   7.236  12.351  0.00  0.00    +0.000 C 
BRANCH  14  15
ATOM     15  N   UNL     1      44.774   6.862  11.124  0.00  0.00    +0.000 N 
ATOM     16  H   UNL     1      44.020   7.483  10.844  0.00  0.00    +0.000 HD
BRANCH  15  17
ATOM     17  C   UNL     1      44.427   5.512  10.935  0.00  0.00    +0.000 A 
ATOM     18  C   UNL     1      43.618   4.794  11.824  0.00  0.00    +0.000 A 
ATOM     19  C   UNL     1      43.353   3.434  11.637  0.00  0.00    +0.000 A 
ATOM     20  C   UNL     1      43.920   2.751  10.568  0.00  0.00    +0.000 A 
ATOM     21  C   UNL     1      44.763   3.421   9.677  0.00  0.00    +0.000 A 
ATOM     22  C   UNL     1      45.014   4.796   9.877  0.00  0.00    +0.000 A 
BRANCH  21  23
ATOM     23  C   UNL     1      45.424   2.670   8.547  0.00  0.00    +0.000 C 
BRANCH  23  24
ATOM     24  N   UNL     1      45.522   1.243   8.828  0.00  0.00    +0.000 NA
ATOM     25  H   UNL     1      46.423   1.060   9.267  0.00  0.00    +0.000 HD
ATOM     26  H   UNL     1      45.521   0.732   7.949  0.00  0.00    +0.000 HD
ENDBRANCH  23  24
ENDBRANCH  21  23
ENDBRANCH  15  17
ENDBRANCH  14  15
ENDBRANCH   1  14
TORSDOF 7
ENDMDL
MODEL 7
REMARK VINA RESULT:    -6.287      3.036      4.942
REMARK INTER + INTRA:          -9.373
REMARK INTER:                  -8.503
REMARK INTRA:                  -0.871
REMARK UNBOUND:                -0.698
REMARK  Name = 
REMARK  8 active torsions:
REMARK  status: ('A' for Active; 'I' for Inactive)
REMARK    1  A    between atoms: C_1  and  C_2
REMARK    2  A    between atoms: C_4  and  C_5
REMARK    3  A    between atoms: C_10  and  C_11
REMARK    4  A    between atoms: C_11  and  C_12
REMARK    5  A    between atoms: C_12  and  N_13
REMARK    6  A    between atoms: N_13  and  C_14
REMARK    7  A    between atoms: C_18  and  C_19
REMARK    8  A    between atoms: C_19  and  N_20
REMARK                            x       y       z     vdW  Elec       q    Type
REMARK                         _______ _______ _______ _____ _____    ______ ____
ROOT
ATOM      1  C   UNL     1      47.259   6.665  11.993  0.00  0.00    +0.000 C 
ENDROOT
BRANCH   1   8
ATOM      2  C   UNL     1      49.061   7.722  14.222  0.00  0.00    +0.000 C 
ATOM      3  C   UNL     1      48.271   6.452  14.351  0.00  0.00    +0.000 A 
ATOM      4  N   UNL     1      48.401   5.822  15.546  0.00  0.00    +0.000 NA
ATOM      5  C   UNL     1      47.700   4.671  15.734  0.00  0.00    +0.000 A 
ATOM      6  C   UNL     1      46.863   4.116  14.783  0.00  0.00    +0.000 A 
ATOM      7  C   UNL     1      46.742   4.774  13.564  0.00  0.00    +0.000 A 
ATOM      8  C   UNL     1      47.455   5.961  13.321  0.00  0.00    +0.000 A 
BRANCH   5   9
ATOM      9  C   UNL     1      47.875   4.001  17.063  0.00  0.00    +0.000 C 
ATOM     10  N   UNL     1      46.881   3.124  17.406  0.00  0.00    +0.000 N 
ATOM     11  O   UNL     1      48.830   4.218  17.796  0.00  0.00    +0.000 OA
ATOM     12  H   UNL     1      46.103   2.984  16.773  0.00  0.00    +0.000 HD
ATOM     13  H   UNL     1      46.919   2.645  18.293  0.00  0.00    +0.000 HD
ENDBRANCH   5   9
ENDBRANCH   1   8
BRANCH   1  14
ATOM     14  C   UNL     1      45.770   6.853  11.680  0.00  0.00    +0.000 C 
BRANCH  14  15
ATOM     15  N   UNL     1      45.448   6.515  10.294  0.00  0.00    +0.000 N 
ATOM     16  H   UNL     1      44.773   7.122   9.838  0.00  0.00    +0.000 HD
BRANCH  15  17
ATOM     17  C   UNL     1      45.230   5.164   9.966  0.00  0.00    +0.000 A 
ATOM     18  C   UNL     1      45.642   4.591   8.757  0.00  0.00    +0.000 A 
ATOM     19  C   UNL     1      45.346   3.262   8.440  0.00  0.00    +0.000 A 
ATOM     20  C   UNL     1      44.599   2.483   9.315  0.00  0.00    +0.000 A 
ATOM     21  C   UNL     1      44.136   3.027  10.516  0.00  0.00    +0.000 A 
ATOM     22  C   UNL     1      44.452   4.369  10.824  0.00  0.00    +0.000 A 
BRANCH  21  23
ATOM     23  C   UNL     1      43.280   2.201  11.444  0.00  0.00    +0.000 C 
BRANCH  23  24
ATOM     24  N   UNL     1      43.587   2.464  12.844  0.00  0.00    +0.000 NA
ATOM     25  H   UNL     1      44.352   3.135  12.888  0.00  0.00    +0.000 HD
ATOM     26  H   UNL     1      43.930   1.608  13.274  0.00  0.00    +0.000 HD
ENDBRANCH  23  24
ENDBRANCH  21  23
ENDBRANCH  15  17
ENDBRANCH  14  15
ENDBRANCH   1  14
TORSDOF 7
ENDMDL
MODEL 8
REMARK VINA RESULT:    -6.169      2.403      3.166
REMARK INTER + INTRA:          -9.211
REMARK INTER:                  -8.620
REMARK INTRA:                  -0.591
REMARK UNBOUND:                -0.698
REMARK  Name = 
REMARK  8 active torsions:
REMARK  status: ('A' for Active; 'I' for Inactive)
REMARK    1  A    between atoms: C_1  and  C_2
REMARK    2  A    between atoms: C_4  and  C_5
REMARK    3  A    between atoms: C_10  and  C_11
REMARK    4  A    between atoms: C_11  and  C_12
REMARK    5  A    between atoms: C_12  and  N_13
REMARK    6  A    between atoms: N_13  and  C_14
REMARK    7  A    between atoms: C_18  and  C_19
REMARK    8  A    between atoms: C_19  and  N_20
REMARK                            x       y       z     vdW  Elec       q    Type
REMARK                         _______ _______ _______ _____ _____    ______ ____
ROOT
ATOM      1  C   UNL     1      45.427   5.573  12.005  0.00  0.00    +0.000 C 
ENDROOT
BRANCH   1   8
ATOM      2  C   UNL     1      46.886   4.532  14.479  0.00  0.00    +0.000 C 
ATOM      3  C   UNL     1      47.391   5.689  13.667  0.00  0.00    +0.000 A 
ATOM      4  N   UNL     1      48.560   6.223  14.104  0.00  0.00    +0.000 NA
ATOM      5  C   UNL     1      49.080   7.267  13.404  0.00  0.00    +0.000 A 
ATOM      6  C   UNL     1      48.490   7.807  12.275  0.00  0.00    +0.000 A 
ATOM      7  C   UNL     1      47.292   7.248  11.842  0.00  0.00    +0.000 A 
ATOM      8  C   UNL     1      46.712   6.175  12.540  0.00  0.00    +0.000 A 
BRANCH   5   9
ATOM      9  C   UNL     1      50.367   7.833  13.921  0.00  0.00    +0.000 C 
ATOM     10  N   UNL     1      50.853   7.231  15.051  0.00  0.00    +0.000 N 
ATOM     11  O   UNL     1      50.946   8.768  13.384  0.00  0.00    +0.000 OA
ATOM     12  H   UNL     1      50.334   6.468  15.468  0.00  0.00    +0.000 HD
ATOM     13  H   UNL     1      51.707   7.566  15.470  0.00  0.00    +0.000 HD
ENDBRANCH   5   9
ENDBRANCH   1   8
BRANCH   1  14
ATOM     14  C   UNL     1      45.191   5.979  10.546  0.00  0.00    +0.000 C 
BRANCH  14  15
ATOM     15  N   UNL     1      44.250   5.086   9.869  0.00  0.00    +0.000 N 
ATOM     16  H   UNL     1      43.389   4.891  10.371  0.00  0.00    +0.000 HD
BRANCH  15  17
ATOM     17  C   UNL     1      44.754   3.931   9.243  0.00  0.00    +0.000 A 
ATOM     18  C   UNL     1      44.339   2.635   9.573  0.00  0.00    +0.000 A 
ATOM     19  C   UNL     1      44.914   1.509   8.976  0.00  0.00    +0.000 A 
ATOM     20  C   UNL     1      45.944   1.653   8.055  0.00  0.00    +0.000 A 
ATOM     21  C   UNL     1      46.414   2.927   7.724  0.00  0.00    +0.000 A 
ATOM     22  C   UNL     1      45.816   4.054   8.331  0.00  0.00    +0.000 A 
BRANCH  21  23
ATOM     23  C   UNL     1      47.568   3.086   6.765  0.00  0.00    +0.000 C 
BRANCH  23  24
ATOM     24  N   UNL     1      47.116   3.164   5.381  0.00  0.00    +0.000 NA
ATOM     25  H   UNL     1      47.463   2.347   4.881  0.00  0.00    +0.000 HD
ATOM     26  H   UNL     1      47.543   3.975   4.940  0.00  0.00    +0.000 HD
ENDBRANCH  23  24
ENDBRANCH  21  23
ENDBRANCH  15  17
ENDBRANCH  14  15
ENDBRANCH   1  14
TORSDOF 7
ENDMDL
MODEL 9
REMARK VINA RESULT:    -6.120      4.222      7.385
REMARK INTER + INTRA:          -9.144
REMARK INTER:                  -8.370
REMARK INTRA:                  -0.774
REMARK UNBOUND:                -0.698
REMARK  Name = 
REMARK  8 active torsions:
REMARK  status: ('A' for Active; 'I' for Inactive)
REMARK    1  A    between atoms: C_1  and  C_2
REMARK    2  A    between atoms: C_4  and  C_5
REMARK    3  A    between atoms: C_10  and  C_11
REMARK    4  A    between atoms: C_11  and  C_12
REMARK    5  A    between atoms: C_12  and  N_13
REMARK    6  A    between atoms: N_13  and  C_14
REMARK    7  A    between atoms: C_18  and  C_19
REMARK    8  A    between atoms: C_19  and  N_20
REMARK                            x       y       z     vdW  Elec       q    Type
REMARK                         _______ _______ _______ _____ _____    ______ ____
ROOT
ATOM      1  C   UNL     1      48.491   6.501  13.491  0.00  0.00    +0.000 C 
ENDROOT
BRANCH   1   8
ATOM      2  C   UNL     1      46.916   3.914  13.892  0.00  0.00    +0.000 C 
ATOM      3  C   UNL     1      46.412   5.048  13.048  0.00  0.00    +0.000 A 
ATOM      4  N   UNL     1      45.189   4.845  12.495  0.00  0.00    +0.000 NA
ATOM      5  C   UNL     1      44.667   5.840  11.729  0.00  0.00    +0.000 A 
ATOM      6  C   UNL     1      45.306   7.043  11.489  0.00  0.00    +0.000 A 
ATOM      7  C   UNL     1      46.559   7.234  12.062  0.00  0.00    +0.000 A 
ATOM      8  C   UNL     1      47.143   6.230  12.853  0.00  0.00    +0.000 A 
BRANCH   5   9
ATOM      9  C   UNL     1      43.319   5.575  11.130  0.00  0.00    +0.000 C 
ATOM     10  N   UNL     1      42.262   6.096  11.827  0.00  0.00    +0.000 N 
ATOM     11  O   UNL     1      43.164   4.936  10.098  0.00  0.00    +0.000 OA
ATOM     12  H   UNL     1      42.437   6.608  12.683  0.00  0.00    +0.000 HD
ATOM     13  H   UNL     1      41.320   5.946  11.497  0.00  0.00    +0.000 HD
ENDBRANCH   5   9
ENDBRANCH   1   8
BRANCH   1  14
ATOM     14  C   UNL     1      48.463   7.792  14.318  0.00  0.00    +0.000 C 
BRANCH  14  15
ATOM     15  N   UNL     1      48.184   7.537  15.732  0.00  0.00    +0.000 N 
ATOM     16  H   UNL     1      48.111   8.361  16.322  0.00  0.00    +0.000 HD
BRANCH  15  17
ATOM     17  C   UNL     1      48.886   6.502  16.377  0.00  0.00    +0.000 A 
ATOM     18  C   UNL     1      50.277   6.495  16.528  0.00  0.00    +0.000 A 
ATOM     19  C   UNL     1      50.944   5.415  17.115  0.00  0.00    +0.000 A 
ATOM     20  C   UNL     1      50.233   4.298  17.536  0.00  0.00    +0.000 A 
ATOM     21  C   UNL     1      48.846   4.248  17.371  0.00  0.00    +0.000 A 
ATOM     22  C   UNL     1      48.188   5.352  16.783  0.00  0.00    +0.000 A 
BRANCH  21  23
ATOM     23  C   UNL     1      48.076   3.016  17.778  0.00  0.00    +0.000 C 
BRANCH  23  24
ATOM     24  N   UNL     1      46.652   3.148  17.497  0.00  0.00    +0.000 NA
ATOM     25  H   UNL     1      46.245   3.787  18.178  0.00  0.00    +0.000 HD
ATOM     26  H   UNL     1      46.202   2.247  17.641  0.00  0.00    +0.000 HD
ENDBRANCH  23  24
ENDBRANCH  21  23
ENDBRANCH  15  17
ENDBRANCH  14  15
ENDBRANCH   1  14
TORSDOF 7
ENDMDL
