MODEL 1
REMARK VINA RESULT:    -7.790      0.000      0.000
REMARK INTER + INTRA:          -9.721
REMARK INTER:                  -9.156
REMARK INTRA:                  -0.565
REMARK UNBOUND:                -0.565
REMARK  Name = 
REMARK  3 active torsions:
REMARK  status: ('A' for Active; 'I' for Inactive)
REMARK    1  A    between atoms: C_4  and  C_5
REMARK    2  A    between atoms: C_9  and  C_10
REMARK    3  A    between atoms: C_10  and  N_11
REMARK                            x       y       z     vdW  Elec       q    Type
REMARK                         _______ _______ _______ _____ _____    ______ ____
ROOT
ATOM      1  C   UNL     1      46.650   6.266  12.195  0.00  0.00    +0.000 A 
ATOM      2  C   UNL     1      46.989   5.397  13.247  0.00  0.00    +0.000 A 
ATOM      3  C   UNL     1      46.384   4.143  13.388  0.00  0.00    +0.000 A 
ATOM      4  C   UNL     1      45.394   3.739  12.498  0.00  0.00    +0.000 A 
ATOM      5  C   UNL     1      45.005   4.585  11.456  0.00  0.00    +0.000 A 
ATOM      6  C   UNL     1      45.664   5.817  11.295  0.00  0.00    +0.000 A 
ENDROOT
BRANCH   1  10
ATOM      7  C   UNL     1      48.477  10.160  11.763  0.00  0.00    +0.000 A 
ATOM      8  C   UNL     1      47.133  10.051  12.101  0.00  0.00    +0.000 A 
ATOM      9  C   UNL     1      46.544   8.791  12.251  0.00  0.00    +0.000 A 
ATOM     10  C   UNL     1      47.276   7.605  12.054  0.00  0.00    +0.000 A 
ATOM     11  C   UNL     1      48.634   7.749  11.704  0.00  0.00    +0.000 A 
ATOM     12  C   UNL     1      49.229   9.007  11.567  0.00  0.00    +0.000 A 
ENDBRANCH   1  10
BRANCH   5  13
ATOM     13  C   UNL     1      43.862   4.218  10.540  0.00  0.00    +0.000 C 
BRANCH  13  14
ATOM     14  N   UNL     1      44.161   4.584   9.173  0.00  0.00    +0.000 N 
ATOM     15  C   UNL     1      45.065   3.709   8.579  0.00  0.00    +0.000 A 
ATOM     16  N   UNL     1      45.043   2.407   8.901  0.00  0.00    +0.000 NA
ATOM     17  C   UNL     1      45.948   1.609   8.306  0.00  0.00    +0.000 A 
ATOM     18  C   UNL     1      46.875   2.062   7.406  0.00  0.00    +0.000 A 
ATOM     19  C   UNL     1      46.820   3.409   7.141  0.00  0.00    +0.000 A 
ATOM     20  N   UNL     1      45.936   4.248   7.717  0.00  0.00    +0.000 NA
ATOM     21  H   UNL     1      44.533   5.517   9.047  0.00  0.00    +0.000 HD
ENDBRANCH  13  14
ENDBRANCH   5  13
TORSDOF 3
ENDMDL
MODEL 2
REMARK VINA RESULT:    -7.743      2.506      6.236
REMARK INTER + INTRA:          -9.666
REMARK INTER:                  -8.927
REMARK INTRA:                  -0.739
REMARK UNBOUND:                -0.565
REMARK  Name = 
REMARK  3 active torsions:
REMARK  status: ('A' for Active; 'I' for Inactive)
REMARK    1  A    between atoms: C_4  and  C_5
REMARK    2  A    between atoms: C_9  and  C_10
REMARK    3  A    between atoms: C_10  and  N_11
REMARK                            x       y       z     vdW  Elec       q    Type
REMARK                         _______ _______ _______ _____ _____    ______ ____
ROOT
ATOM      1  C   UNL     1      44.830   3.277   9.543  0.00  0.00    +0.000 A 
ATOM      2  C   UNL     1      44.097   2.375  10.336  0.00  0.00    +0.000 A 
ATOM      3  C   UNL     1      43.333   2.809  11.425  0.00  0.00    +0.000 A 
ATOM      4  C   UNL     1      43.310   4.155  11.774  0.00  0.00    +0.000 A 
ATOM      5  C   UNL     1      44.049   5.080  11.031  0.00  0.00    +0.000 A 
ATOM      6  C   UNL     1      44.765   4.636   9.905  0.00  0.00    +0.000 A 
ENDROOT
BRANCH   1  10
ATOM      7  C   UNL     1      47.255   1.956   6.217  0.00  0.00    +0.000 A 
ATOM      8  C   UNL     1      46.956   1.082   7.256  0.00  0.00    +0.000 A 
ATOM      9  C   UNL     1      46.162   1.506   8.327  0.00  0.00    +0.000 A 
ATOM     10  C   UNL     1      45.657   2.818   8.398  0.00  0.00    +0.000 A 
ATOM     11  C   UNL     1      45.985   3.682   7.335  0.00  0.00    +0.000 A 
ATOM     12  C   UNL     1      46.766   3.257   6.255  0.00  0.00    +0.000 A 
ENDBRANCH   1  10
BRANCH   5  13
ATOM     13  C   UNL     1      44.127   6.530  11.448  0.00  0.00    +0.000 C 
BRANCH  13  14
ATOM     14  N   UNL     1      44.694   6.654  12.772  0.00  0.00    +0.000 N 
ATOM     15  C   UNL     1      46.082   6.749  12.745  0.00  0.00    +0.000 A 
ATOM     16  N   UNL     1      46.687   7.384  11.729  0.00  0.00    +0.000 NA
ATOM     17  C   UNL     1      48.031   7.434  11.748  0.00  0.00    +0.000 A 
ATOM     18  C   UNL     1      48.793   6.873  12.738  0.00  0.00    +0.000 A 
ATOM     19  C   UNL     1      48.083   6.246  13.733  0.00  0.00    +0.000 A 
ATOM     20  N   UNL     1      46.738   6.165  13.754  0.00  0.00    +0.000 NA
ATOM     21  H   UNL     1      44.466   5.903  13.412  0.00  0.00    +0.000 HD
ENDBRANCH  13  14
ENDBRANCH   5  13
TORSDOF 3
ENDMDL
MODEL 3
REMARK VINA RESULT:    -7.655      1.364      2.014
REMARK INTER + INTRA:          -9.562
REMARK INTER:                  -8.920
REMARK INTRA:                  -0.643
REMARK UNBOUND:                -0.565
REMARK  Name = 
REMARK  3 active torsions:
REMARK  status: ('A' for Active; 'I' for Inactive)
REMARK    1  A    between atoms: C_4  and  C_5
REMARK    2  A    between atoms: C_9  and  C_10
REMARK    3  A    between atoms: C_10  and  N_11
REMARK                            x       y       z     vdW  Elec       q    Type
REMARK                         _______ _______ _______ _____ _____    ______ ____
ROOT
ATOM      1  C   UNL     1      45.122   5.955  11.943  0.00  0.00    +0.000 A 
ATOM      2  C   UNL     1      44.133   5.774  12.925  0.00  0.00    +0.000 A 
ATOM      3  C   UNL     1      43.217   4.717  12.859  0.00  0.00    +0.000 A 
ATOM      4  C   UNL     1      43.245   3.832  11.786  0.00  0.00    +0.000 A 
ATOM      5  C   UNL     1      44.193   3.995  10.772  0.00  0.00    +0.000 A 
ATOM      6  C   UNL     1      45.142   5.028  10.884  0.00  0.00    +0.000 A 
ENDROOT
BRANCH   1  10
ATOM      7  C   UNL     1      47.922   9.246  12.086  0.00  0.00    +0.000 A 
ATOM      8  C   UNL     1      46.570   9.467  12.326  0.00  0.00    +0.000 A 
ATOM      9  C   UNL     1      45.666   8.399  12.291  0.00  0.00    +0.000 A 
ATOM     10  C   UNL     1      46.082   7.087  12.000  0.00  0.00    +0.000 A 
ATOM     11  C   UNL     1      47.457   6.899  11.752  0.00  0.00    +0.000 A 
ATOM     12  C   UNL     1      48.366   7.960  11.802  0.00  0.00    +0.000 A 
ENDBRANCH   1  10
BRANCH   5  13
ATOM     13  C   UNL     1      44.180   3.115   9.545  0.00  0.00    +0.000 C 
BRANCH  13  14
ATOM     14  N   UNL     1      45.237   2.131   9.607  0.00  0.00    +0.000 N 
ATOM     15  C   UNL     1      45.970   2.069   8.426  0.00  0.00    +0.000 A 
ATOM     16  N   UNL     1      46.179   3.185   7.712  0.00  0.00    +0.000 NA
ATOM     17  C   UNL     1      46.884   3.065   6.573  0.00  0.00    +0.000 A 
ATOM     18  C   UNL     1      47.384   1.873   6.118  0.00  0.00    +0.000 A 
ATOM     19  C   UNL     1      47.118   0.789   6.917  0.00  0.00    +0.000 A 
ATOM     20  N   UNL     1      46.411   0.859   8.063  0.00  0.00    +0.000 NA
ATOM     21  H   UNL     1      44.935   1.186   9.812  0.00  0.00    +0.000 HD
ENDBRANCH  13  14
ENDBRANCH   5  13
TORSDOF 3
ENDMDL
MODEL 4
REMARK VINA RESULT:    -7.352      3.723      6.911
REMARK INTER + INTRA:          -9.206
REMARK INTER:                  -8.686
REMARK INTRA:                  -0.520
REMARK UNBOUND:                -0.565
REMARK  Name = 
REMARK  3 active torsions:
REMARK  status: ('A' for Active; 'I' for Inactive)
REMARK    1  A    between atoms: C_4  and  C_5
REMARK    2  A    between atoms: C_9  and  C_10
REMARK    3  A    between atoms: C_10  and  N_11
REMARK                            x       y       z     vdW  Elec       q    Type
REMARK                         _______ _______ _______ _____ _____    ______ ____
ROOT
ATOM      1  C   UNL     1      44.934   4.207  10.487  0.00  0.00    +0.000 A 
ATOM      2  C   UNL     1      43.618   4.697  10.573  0.00  0.00    +0.000 A 
ATOM      3  C   UNL     1      43.130   5.289  11.743  0.00  0.00    +0.000 A 
ATOM      4  C   UNL     1      43.935   5.374  12.874  0.00  0.00    +0.000 A 
ATOM      5  C   UNL     1      45.238   4.871  12.842  0.00  0.00    +0.000 A 
ATOM      6  C   UNL     1      45.733   4.332  11.640  0.00  0.00    +0.000 A 
ENDROOT
BRANCH   1  10
ATOM      7  C   UNL     1      46.454   2.336   6.899  0.00  0.00    +0.000 A 
ATOM      8  C   UNL     1      46.041   1.556   7.974  0.00  0.00    +0.000 A 
ATOM      9  C   UNL     1      45.539   2.162   9.131  0.00  0.00    +0.000 A 
ATOM     10  C   UNL     1      45.449   3.560   9.253  0.00  0.00    +0.000 A 
ATOM     11  C   UNL     1      45.884   4.323   8.150  0.00  0.00    +0.000 A 
ATOM     12  C   UNL     1      46.372   3.721   6.986  0.00  0.00    +0.000 A 
ENDBRANCH   1  10
BRANCH   5  13
ATOM     13  C   UNL     1      46.098   4.854  14.083  0.00  0.00    +0.000 C 
BRANCH  13  14
ATOM     14  N   UNL     1      46.693   3.551  14.280  0.00  0.00    +0.000 N 
ATOM     15  C   UNL     1      47.263   3.417  15.542  0.00  0.00    +0.000 A 
ATOM     16  N   UNL     1      46.701   4.028  16.596  0.00  0.00    +0.000 NA
ATOM     17  C   UNL     1      47.301   3.874  17.790  0.00  0.00    +0.000 A 
ATOM     18  C   UNL     1      48.442   3.137  17.970  0.00  0.00    +0.000 A 
ATOM     19  C   UNL     1      48.942   2.552  16.833  0.00  0.00    +0.000 A 
ATOM     20  N   UNL     1      48.379   2.682  15.616  0.00  0.00    +0.000 NA
ATOM     21  H   UNL     1      47.407   3.296  13.609  0.00  0.00    +0.000 HD
ENDBRANCH  13  14
ENDBRANCH   5  13
TORSDOF 3
ENDMDL
MODEL 5
REMARK VINA RESULT:    -7.230      2.413      6.500
REMARK INTER + INTRA:          -9.063
REMARK INTER:                  -8.535
REMARK INTRA:                  -0.528
REMARK UNBOUND:                -0.565
REMARK  Name = 
REMARK  3 active torsions:
REMARK  status: ('A' for Active; 'I' for Inactive)
REMARK    1  A    between atoms: C_4  and  C_5
REMARK    2  A    between atoms: C_9  and  C_10
REMARK    3  A    between atoms: C_10  and  N_11
REMARK                            x       y       z     vdW  Elec       q    Type
REMARK                         _______ _______ _______ _____ _____    ______ ____
ROOT
ATOM      1  C   UNL     1      45.254   3.203   9.108  0.00  0.00    +0.000 A 
ATOM      2  C   UNL     1      44.338   2.414   9.826  0.00  0.00    +0.000 A 
ATOM      3  C   UNL     1      43.648   2.916  10.935  0.00  0.00    +0.000 A 
ATOM      4  C   UNL     1      43.884   4.213  11.379  0.00  0.00    +0.000 A 
ATOM      5  C   UNL     1      44.810   5.021  10.713  0.00  0.00    +0.000 A 
ATOM      6  C   UNL     1      45.451   4.521   9.565  0.00  0.00    +0.000 A 
ENDROOT
BRANCH   1  10
ATOM      7  C   UNL     1      47.415   1.628   5.711  0.00  0.00    +0.000 A 
ATOM      8  C   UNL     1      46.917   2.927   5.683  0.00  0.00    +0.000 A 
ATOM      9  C   UNL     1      46.227   3.440   6.787  0.00  0.00    +0.000 A 
ATOM     10  C   UNL     1      46.002   2.668   7.942  0.00  0.00    +0.000 A 
ATOM     11  C   UNL     1      46.511   1.353   7.935  0.00  0.00    +0.000 A 
ATOM     12  C   UNL     1      47.214   0.842   6.839  0.00  0.00    +0.000 A 
ENDBRANCH   1  10
BRANCH   5  13
ATOM     13  C   UNL     1      45.163   6.394  11.233  0.00  0.00    +0.000 C 
BRANCH  13  14
ATOM     14  N   UNL     1      46.588   6.622  11.156  0.00  0.00    +0.000 N 
ATOM     15  C   UNL     1      47.206   6.522  12.399  0.00  0.00    +0.000 A 
ATOM     16  N   UNL     1      46.749   5.640  13.302  0.00  0.00    +0.000 NA
ATOM     17  C   UNL     1      47.376   5.594  14.490  0.00  0.00    +0.000 A 
ATOM     18  C   UNL     1      48.439   6.396  14.813  0.00  0.00    +0.000 A 
ATOM     19  C   UNL     1      48.833   7.264  13.825  0.00  0.00    +0.000 A 
ATOM     20  N   UNL     1      48.232   7.351  12.622  0.00  0.00    +0.000 NA
ATOM     21  H   UNL     1      46.862   7.516  10.767  0.00  0.00    +0.000 HD
ENDBRANCH  13  14
ENDBRANCH   5  13
TORSDOF 3
ENDMDL
MODEL 6
REMARK VINA RESULT:    -7.166      2.244      4.055
REMARK INTER + INTRA:          -8.987
REMARK INTER:                  -8.405
REMARK INTRA:                  -0.581
REMARK UNBOUND:                -0.565
REMARK  Name = 
REMARK  3 active torsions:
REMARK  status: ('A' for Active; 'I' for Inactive)
REMARK    1  A    between atoms: C_4  and  C_5
REMARK    2  A    between atoms: C_9  and  C_10
REMARK    3  A    between atoms: C_10  and  N_11
REMARK                            x       y       z     vdW  Elec       q    Type
REMARK                         _______ _______ _______ _____ _____    ______ ____
ROOT
ATOM      1  C   UNL     1      47.320   5.500  14.133  0.00  0.00    +0.000 A 
ATOM      2  C   UNL     1      48.088   6.477  13.474  0.00  0.00    +0.000 A 
ATOM      3  C   UNL     1      47.720   6.977  12.220  0.00  0.00    +0.000 A 
ATOM      4  C   UNL     1      46.590   6.486  11.573  0.00  0.00    +0.000 A 
ATOM      5  C   UNL     1      45.817   5.492  12.179  0.00  0.00    +0.000 A 
ATOM      6  C   UNL     1      46.168   5.042  13.465  0.00  0.00    +0.000 A 
ENDROOT
BRANCH   1  10
ATOM      7  C   UNL     1      48.466   3.923  17.991  0.00  0.00    +0.000 A 
ATOM      8  C   UNL     1      47.700   3.155  17.120  0.00  0.00    +0.000 A 
ATOM      9  C   UNL     1      47.339   3.661  15.867  0.00  0.00    +0.000 A 
ATOM     10  C   UNL     1      47.718   4.952  15.455  0.00  0.00    +0.000 A 
ATOM     11  C   UNL     1      48.485   5.709  16.363  0.00  0.00    +0.000 A 
ATOM     12  C   UNL     1      48.862   5.200  17.611  0.00  0.00    +0.000 A 
ENDBRANCH   1  10
BRANCH   5  13
ATOM     13  C   UNL     1      44.648   4.867  11.456  0.00  0.00    +0.000 C 
BRANCH  13  14
ATOM     14  N   UNL     1      44.657   5.225  10.056  0.00  0.00    +0.000 N 
ATOM     15  C   UNL     1      45.194   4.219   9.258  0.00  0.00    +0.000 A 
ATOM     16  N   UNL     1      45.001   2.932   9.587  0.00  0.00    +0.000 NA
ATOM     17  C   UNL     1      45.553   2.003   8.788  0.00  0.00    +0.000 A 
ATOM     18  C   UNL     1      46.293   2.307   7.676  0.00  0.00    +0.000 A 
ATOM     19  C   UNL     1      46.435   3.649   7.422  0.00  0.00    +0.000 A 
ATOM     20  N   UNL     1      45.906   4.617   8.197  0.00  0.00    +0.000 NA
ATOM     21  H   UNL     1      45.159   6.074   9.830  0.00  0.00    +0.000 HD
ENDBRANCH  13  14
ENDBRANCH   5  13
TORSDOF 3
ENDMDL
MODEL 7
REMARK VINA RESULT:    -6.972      2.423      6.328
REMARK INTER + INTRA:          -8.759
REMARK INTER:                  -8.101
REMARK INTRA:                  -0.658
REMARK UNBOUND:                -0.565
REMARK  Name = 
REMARK  3 active torsions:
REMARK  status: ('A' for Active; 'I' for Inactive)
REMARK    1  A    between atoms: C_4  and  C_5
REMARK    2  A    between atoms: C_9  and  C_10
REMARK    3  A    between atoms: C_10  and  N_11
REMARK                            x       y       z     vdW  Elec       q    Type
REMARK                         _______ _______ _______ _____ _____    ______ ____
ROOT
ATOM      1  C   UNL     1      44.788   3.529  10.277  0.00  0.00    +0.000 A 
ATOM      2  C   UNL     1      43.898   2.634  10.897  0.00  0.00    +0.000 A 
ATOM      3  C   UNL     1      43.242   2.959  12.090  0.00  0.00    +0.000 A 
ATOM      4  C   UNL     1      43.488   4.178  12.715  0.00  0.00    +0.000 A 
ATOM      5  C   UNL     1      44.389   5.083  12.149  0.00  0.00    +0.000 A 
ATOM      6  C   UNL     1      44.995   4.765  10.919  0.00  0.00    +0.000 A 
ENDROOT
BRANCH   1  10
ATOM      7  C   UNL     1      46.843   2.498   6.616  0.00  0.00    +0.000 A 
ATOM      8  C   UNL     1      46.526   3.824   6.891  0.00  0.00    +0.000 A 
ATOM      9  C   UNL     1      45.870   4.158   8.081  0.00  0.00    +0.000 A 
ATOM     10  C   UNL     1      45.501   3.179   9.022  0.00  0.00    +0.000 A 
ATOM     11  C   UNL     1      45.829   1.844   8.709  0.00  0.00    +0.000 A 
ATOM     12  C   UNL     1      46.497   1.507   7.528  0.00  0.00    +0.000 A 
ENDBRANCH   1  10
BRANCH   5  13
ATOM     13  C   UNL     1      44.755   6.365  12.857  0.00  0.00    +0.000 C 
BRANCH  13  14
ATOM     14  N   UNL     1      44.481   7.511  12.019  0.00  0.00    +0.000 N 
ATOM     15  C   UNL     1      45.540   8.414  11.999  0.00  0.00    +0.000 A 
ATOM     16  N   UNL     1      46.802   7.964  12.073  0.00  0.00    +0.000 NA
ATOM     17  C   UNL     1      47.785   8.881  12.061  0.00  0.00    +0.000 A 
ATOM     18  C   UNL     1      47.557  10.230  11.983  0.00  0.00    +0.000 A 
ATOM     19  C   UNL     1      46.235  10.592  11.912  0.00  0.00    +0.000 A 
ATOM     20  N   UNL     1      45.215   9.710  11.926  0.00  0.00    +0.000 NA
ATOM     21  H   UNL     1      43.653   8.040  12.266  0.00  0.00    +0.000 HD
ENDBRANCH  13  14
ENDBRANCH   5  13
TORSDOF 3
ENDMDL
MODEL 8
REMARK VINA RESULT:    -6.687      3.966      7.017
REMARK INTER + INTRA:          -8.424
REMARK INTER:                  -7.892
REMARK INTRA:                  -0.532
REMARK UNBOUND:                -0.565
REMARK  Name = 
REMARK  3 active torsions:
REMARK  status: ('A' for Active; 'I' for Inactive)
REMARK    1  A    between atoms: C_4  and  C_5
REMARK    2  A    between atoms: C_9  and  C_10
REMARK    3  A    between atoms: C_10  and  N_11
REMARK                            x       y       z     vdW  Elec       q    Type
REMARK                         _______ _______ _______ _____ _____    ______ ____
ROOT
ATOM      1  C   UNL     1      45.769   5.987  11.364  0.00  0.00    +0.000 A 
ATOM      2  C   UNL     1      45.149   7.248  11.356  0.00  0.00    +0.000 A 
ATOM      3  C   UNL     1      45.481   8.237  12.290  0.00  0.00    +0.000 A 
ATOM      4  C   UNL     1      46.421   7.975  13.282  0.00  0.00    +0.000 A 
ATOM      5  C   UNL     1      47.039   6.723  13.345  0.00  0.00    +0.000 A 
ATOM      6  C   UNL     1      46.736   5.762  12.364  0.00  0.00    +0.000 A 
ENDROOT
BRANCH   1  10
ATOM      7  C   UNL     1      44.731   2.905   8.517  0.00  0.00    +0.000 A 
ATOM      8  C   UNL     1      44.365   2.776   9.852  0.00  0.00    +0.000 A 
ATOM      9  C   UNL     1      44.691   3.779  10.771  0.00  0.00    +0.000 A 
ATOM     10  C   UNL     1      45.405   4.929  10.387  0.00  0.00    +0.000 A 
ATOM     11  C   UNL     1      45.769   5.025   9.029  0.00  0.00    +0.000 A 
ATOM     12  C   UNL     1      45.431   4.032   8.104  0.00  0.00    +0.000 A 
ENDBRANCH   1  10
BRANCH   5  13
ATOM     13  C   UNL     1      47.983   6.376  14.472  0.00  0.00    +0.000 C 
BRANCH  13  14
ATOM     14  N   UNL     1      47.393   5.394  15.353  0.00  0.00    +0.000 N 
ATOM     15  C   UNL     1      48.343   4.762  16.149  0.00  0.00    +0.000 A 
ATOM     16  N   UNL     1      49.413   5.446  16.581  0.00  0.00    +0.000 NA
ATOM     17  C   UNL     1      50.306   4.782  17.336  0.00  0.00    +0.000 A 
ATOM     18  C   UNL     1      50.173   3.461  17.674  0.00  0.00    +0.000 A 
ATOM     19  C   UNL     1      49.046   2.847  17.185  0.00  0.00    +0.000 A 
ATOM     20  N   UNL     1      48.128   3.469  16.419  0.00  0.00    +0.000 NA
ATOM     21  H   UNL     1      46.865   4.662  14.893  0.00  0.00    +0.000 HD
ENDBRANCH  13  14
ENDBRANCH   5  13
TORSDOF 3
ENDMDL
MODEL 9
REMARK VINA RESULT:    -6.541      4.375      7.185
REMARK INTER + INTRA:          -8.252
REMARK INTER:                  -7.582
REMARK INTRA:                  -0.670
REMARK UNBOUND:                -0.565
REMARK  Name = 
REMARK  3 active torsions:
REMARK  status: ('A' for Active; 'I' for Inactive)
REMARK    1  A    between atoms: C_4  and  C_5
REMARK    2  A    between atoms: C_9  and  C_10
REMARK    3  A    between atoms: C_10  and  N_11
REMARK                            x       y       z     vdW  Elec       q    Type
REMARK                         _______ _______ _______ _____ _____    ______ ____
ROOT
ATOM      1  C   UNL     1      46.759   6.090  12.420  0.00  0.00    +0.000 A 
ATOM      2  C   UNL     1      47.423   6.937  11.514  0.00  0.00    +0.000 A 
ATOM      3  C   UNL     1      48.562   7.660  11.885  0.00  0.00    +0.000 A 
ATOM      4  C   UNL     1      49.048   7.583  13.187  0.00  0.00    +0.000 A 
ATOM      5  C   UNL     1      48.399   6.777  14.126  0.00  0.00    +0.000 A 
ATOM      6  C   UNL     1      47.291   6.012  13.721  0.00  0.00    +0.000 A 
ENDROOT
BRANCH   1  10
ATOM      7  C   UNL     1      43.220   3.881  11.286  0.00  0.00    +0.000 A 
ATOM      8  C   UNL     1      43.620   3.927  12.617  0.00  0.00    +0.000 A 
ATOM      9  C   UNL     1      44.760   4.651  12.985  0.00  0.00    +0.000 A 
ATOM     10  C   UNL     1      45.539   5.336  12.034  0.00  0.00    +0.000 A 
ATOM     11  C   UNL     1      45.112   5.263  10.693  0.00  0.00    +0.000 A 
ATOM     12  C   UNL     1      43.965   4.553  10.323  0.00  0.00    +0.000 A 
ENDBRANCH   1  10
BRANCH   5  13
ATOM     13  C   UNL     1      48.841   6.755  15.571  0.00  0.00    +0.000 C 
BRANCH  13  14
ATOM     14  N   UNL     1      48.146   5.721  16.305  0.00  0.00    +0.000 N 
ATOM     15  C   UNL     1      48.998   4.699  16.710  0.00  0.00    +0.000 A 
ATOM     16  N   UNL     1      50.265   4.981  17.050  0.00  0.00    +0.000 NA
ATOM     17  C   UNL     1      51.048   3.953  17.421  0.00  0.00    +0.000 A 
ATOM     18  C   UNL     1      50.615   2.653  17.463  0.00  0.00    +0.000 A 
ATOM     19  C   UNL     1      49.305   2.465  17.097  0.00  0.00    +0.000 A 
ATOM     20  N   UNL     1      48.485   3.463  16.712  0.00  0.00    +0.000 NA
ATOM     21  H   UNL     1      47.378   5.282  15.812  0.00  0.00    +0.000 HD
ENDBRANCH  13  14
ENDBRANCH   5  13
TORSDOF 3
ENDMDL
