MODEL 1
REMARK VINA RESULT:    -8.099      0.000      0.000
REMARK INTER + INTRA:         -12.622
REMARK INTER:                 -11.413
REMARK INTRA:                  -1.209
REMARK UNBOUND:                -1.209
REMARK  Name = 
REMARK  8 active torsions:
REMARK  status: ('A' for Active; 'I' for Inactive)
REMARK    1  A    between atoms: C_1  and  C_2
REMARK    2  A    between atoms: C_2  and  N_3
REMARK    3  A    between atoms: C_2  and  C_11
REMARK    4  A    between atoms: N_3  and  C_4
REMARK    5  A    between atoms: C_4  and  C_5
REMARK    6  A    between atoms: C_14  and  C_15
REMARK    7  A    between atoms: C_15  and  N_16
REMARK    8  A    between atoms: C_17  and  C_19
REMARK                            x       y       z     vdW  Elec       q    Type
REMARK                         _______ _______ _______ _____ _____    ______ ____
ROOT
ATOM      1  C   UNL     1      44.961   4.919  12.074  0.00  0.00    +0.000 A 
ATOM      2  C   UNL     1      45.507   6.114  11.572  0.00  0.00    +0.000 A 
ATOM      3  C   UNL     1      46.633   6.695  12.162  0.00  0.00    +0.000 A 
ATOM      4  C   UNL     1      47.270   6.066  13.237  0.00  0.00    +0.000 A 
ATOM      5  C   UNL     1      46.747   4.862  13.723  0.00  0.00    +0.000 A 
ATOM      6  C   UNL     1      45.605   4.299  13.153  0.00  0.00    +0.000 A 
ENDROOT
BRANCH   1   8
ATOM      7  C   UNL     1      42.495   5.401  11.680  0.00  0.00    +0.000 C 
ATOM      8  C   UNL     1      43.645   4.397  11.506  0.00  0.00    +0.000 C 
BRANCH   8   9
ATOM      9  N   UNL     1      43.753   4.053  10.074  0.00  0.00    +0.000 NA
ATOM     10  H   UNL     1      44.357   4.735   9.618  0.00  0.00    +0.000 HD
BRANCH   9  11
ATOM     11  C   UNL     1      44.309   2.715   9.860  0.00  0.00    +0.000 C 
BRANCH  11  12
ATOM     12  C   UNL     1      45.351   2.688   8.771  0.00  0.00    +0.000 A 
ATOM     13  C   UNL     1      45.754   3.876   8.148  0.00  0.00    +0.000 A 
ATOM     14  C   UNL     1      46.760   3.821   7.197  0.00  0.00    +0.000 A 
ATOM     15  N   UNL     1      47.378   2.682   6.825  0.00  0.00    +0.000 NA
ATOM     16  C   UNL     1      46.970   1.545   7.433  0.00  0.00    +0.000 A 
ATOM     17  C   UNL     1      45.974   1.498   8.395  0.00  0.00    +0.000 A 
ENDBRANCH  11  12
ENDBRANCH   9  11
ENDBRANCH   8   9
ENDBRANCH   1   8
BRANCH   4  18
ATOM     18  C   UNL     1      48.448   6.701  13.922  0.00  0.00    +0.000 C 
BRANCH  18  19
ATOM     19  N   UNL     1      48.178   6.888  15.327  0.00  0.00    +0.000 N 
ATOM     20  C   UNL     1      49.101   6.533  16.275  0.00  0.00    +0.000 C 
ATOM     21  O   UNL     1      50.199   6.077  15.971  0.00  0.00    +0.000 OA
ATOM     22  H   UNL     1      47.213   7.043  15.598  0.00  0.00    +0.000 HD
BRANCH  20  23
ATOM     23  C   UNL     1      48.735   6.789  17.674  0.00  0.00    +0.000 A 
ATOM     24  C   UNL     1      48.430   8.085  18.070  0.00  0.00    +0.000 A 
ATOM     25  S   UNL     1      47.973   8.210  19.707  0.00  0.00    +0.000 S 
ATOM     26  C   UNL     1      48.215   6.546  19.959  0.00  0.00    +0.000 A 
ATOM     27  N   UNL     1      48.019   5.989  21.182  0.00  0.00    +0.000 NA
ATOM     28  C   UNL     1      48.275   4.724  21.244  0.00  0.00    +0.000 A 
ATOM     29  N   UNL     1      48.703   3.965  20.189  0.00  0.00    +0.000 N 
ATOM     30  C   UNL     1      48.881   4.475  18.920  0.00  0.00    +0.000 A 
ATOM     31  O   UNL     1      49.212   3.755  17.985  0.00  0.00    +0.000 OA
ATOM     32  C   UNL     1      48.625   5.899  18.806  0.00  0.00    +0.000 A 
ATOM     33  H   UNL     1      48.885   2.977  20.301  0.00  0.00    +0.000 HD
ENDBRANCH  20  23
ENDBRANCH  18  19
ENDBRANCH   4  18
TORSDOF 7
ENDMDL
MODEL 2
REMARK VINA RESULT:    -7.756      1.469      2.288
REMARK INTER + INTRA:         -12.138
REMARK INTER:                 -10.937
REMARK INTRA:                  -1.201
REMARK UNBOUND:                -1.209
REMARK  Name = 
REMARK  8 active torsions:
REMARK  status: ('A' for Active; 'I' for Inactive)
REMARK    1  A    between atoms: C_1  and  C_2
REMARK    2  A    between atoms: C_2  and  N_3
REMARK    3  A    between atoms: C_2  and  C_11
REMARK    4  A    between atoms: N_3  and  C_4
REMARK    5  A    between atoms: C_4  and  C_5
REMARK    6  A    between atoms: C_14  and  C_15
REMARK    7  A    between atoms: C_15  and  N_16
REMARK    8  A    between atoms: C_17  and  C_19
REMARK                            x       y       z     vdW  Elec       q    Type
REMARK                         _______ _______ _______ _____ _____    ______ ____
ROOT
ATOM      1  C   UNL     1      45.324   4.607  12.069  0.00  0.00    +0.000 A 
ATOM      2  C   UNL     1      45.726   4.082  13.311  0.00  0.00    +0.000 A 
ATOM      3  C   UNL     1      46.721   4.706  14.068  0.00  0.00    +0.000 A 
ATOM      4  C   UNL     1      47.302   5.898  13.623  0.00  0.00    +0.000 A 
ATOM      5  C   UNL     1      46.887   6.440  12.402  0.00  0.00    +0.000 A 
ATOM      6  C   UNL     1      45.915   5.800  11.632  0.00  0.00    +0.000 A 
ENDROOT
BRANCH   1   8
ATOM      7  C   UNL     1      43.580   4.720  10.222  0.00  0.00    +0.000 C 
ATOM      8  C   UNL     1      44.348   3.819  11.200  0.00  0.00    +0.000 C 
BRANCH   8   9
ATOM      9  N   UNL     1      45.023   2.758  10.426  0.00  0.00    +0.000 NA
ATOM     10  H   UNL     1      44.740   1.851  10.796  0.00  0.00    +0.000 HD
BRANCH   9  11
ATOM     11  C   UNL     1      44.693   2.808   9.000  0.00  0.00    +0.000 C 
BRANCH  11  12
ATOM     12  C   UNL     1      45.846   2.389   8.124  0.00  0.00    +0.000 A 
ATOM     13  C   UNL     1      46.577   3.345   7.409  0.00  0.00    +0.000 A 
ATOM     14  C   UNL     1      47.670   2.930   6.666  0.00  0.00    +0.000 A 
ATOM     15  N   UNL     1      48.075   1.647   6.582  0.00  0.00    +0.000 NA
ATOM     16  C   UNL     1      47.352   0.738   7.274  0.00  0.00    +0.000 A 
ATOM     17  C   UNL     1      46.246   1.054   8.046  0.00  0.00    +0.000 A 
ENDBRANCH  11  12
ENDBRANCH   9  11
ENDBRANCH   8   9
ENDBRANCH   1   8
BRANCH   4  18
ATOM     18  C   UNL     1      48.414   6.555  14.393  0.00  0.00    +0.000 C 
BRANCH  18  19
ATOM     19  N   UNL     1      48.174   6.458  15.812  0.00  0.00    +0.000 N 
ATOM     20  C   UNL     1      49.172   6.081  16.672  0.00  0.00    +0.000 C 
ATOM     21  O   UNL     1      50.311   5.845  16.278  0.00  0.00    +0.000 OA
ATOM     22  H   UNL     1      47.207   6.426  16.120  0.00  0.00    +0.000 HD
BRANCH  20  23
ATOM     23  C   UNL     1      48.828   6.039  18.098  0.00  0.00    +0.000 A 
ATOM     24  C   UNL     1      49.022   4.862  18.809  0.00  0.00    +0.000 A 
ATOM     25  S   UNL     1      48.627   4.988  20.463  0.00  0.00    +0.000 S 
ATOM     26  C   UNL     1      48.136   6.605  20.279  0.00  0.00    +0.000 A 
ATOM     27  N   UNL     1      47.654   7.313  21.333  0.00  0.00    +0.000 NA
ATOM     28  C   UNL     1      47.281   8.516  21.047  0.00  0.00    +0.000 A 
ATOM     29  N   UNL     1      47.356   9.078  19.802  0.00  0.00    +0.000 N 
ATOM     30  C   UNL     1      47.872   8.414  18.709  0.00  0.00    +0.000 A 
ATOM     31  O   UNL     1      47.974   8.966  17.619  0.00  0.00    +0.000 OA
ATOM     32  C   UNL     1      48.285   7.049  18.976  0.00  0.00    +0.000 A 
ATOM     33  H   UNL     1      47.049  10.027  19.642  0.00  0.00    +0.000 HD
ENDBRANCH  20  23
ENDBRANCH  18  19
ENDBRANCH   4  18
TORSDOF 7
ENDMDL
MODEL 3
REMARK VINA RESULT:    -7.477      3.342      8.792
REMARK INTER + INTRA:         -11.746
REMARK INTER:                  -9.974
REMARK INTRA:                  -1.772
REMARK UNBOUND:                -1.209
REMARK  Name = 
REMARK  8 active torsions:
REMARK  status: ('A' for Active; 'I' for Inactive)
REMARK    1  A    between atoms: C_1  and  C_2
REMARK    2  A    between atoms: C_2  and  N_3
REMARK    3  A    between atoms: C_2  and  C_11
REMARK    4  A    between atoms: N_3  and  C_4
REMARK    5  A    between atoms: C_4  and  C_5
REMARK    6  A    between atoms: C_14  and  C_15
REMARK    7  A    between atoms: C_15  and  N_16
REMARK    8  A    between atoms: C_17  and  C_19
REMARK                            x       y       z     vdW  Elec       q    Type
REMARK                         _______ _______ _______ _____ _____    ______ ____
ROOT
ATOM      1  C   UNL     1      49.246   7.890  16.050  0.00  0.00    +0.000 A 
ATOM      2  C   UNL     1      49.736   7.011  15.067  0.00  0.00    +0.000 A 
ATOM      3  C   UNL     1      49.202   7.005  13.776  0.00  0.00    +0.000 A 
ATOM      4  C   UNL     1      48.200   7.914  13.423  0.00  0.00    +0.000 A 
ATOM      5  C   UNL     1      47.728   8.811  14.388  0.00  0.00    +0.000 A 
ATOM      6  C   UNL     1      48.240   8.795  15.686  0.00  0.00    +0.000 A 
ENDROOT
BRANCH   1   8
ATOM      7  C   UNL     1      48.592   7.782  18.505  0.00  0.00    +0.000 C 
ATOM      8  C   UNL     1      49.743   7.765  17.487  0.00  0.00    +0.000 C 
BRANCH   8   9
ATOM      9  N   UNL     1      50.535   6.537  17.697  0.00  0.00    +0.000 NA
ATOM     10  H   UNL     1      51.399   6.782  18.179  0.00  0.00    +0.000 HD
BRANCH   9  11
ATOM     11  C   UNL     1      49.819   5.538  18.494  0.00  0.00    +0.000 C 
BRANCH  11  12
ATOM     12  C   UNL     1      49.605   4.247  17.746  0.00  0.00    +0.000 A 
ATOM     13  C   UNL     1      48.422   4.032  17.029  0.00  0.00    +0.000 A 
ATOM     14  C   UNL     1      48.287   2.861  16.301  0.00  0.00    +0.000 A 
ATOM     15  N   UNL     1      49.233   1.901  16.244  0.00  0.00    +0.000 NA
ATOM     16  C   UNL     1      50.365   2.125  16.948  0.00  0.00    +0.000 A 
ATOM     17  C   UNL     1      50.593   3.263  17.705  0.00  0.00    +0.000 A 
ENDBRANCH  11  12
ENDBRANCH   9  11
ENDBRANCH   8   9
ENDBRANCH   1   8
BRANCH   4  18
ATOM     18  C   UNL     1      47.573   7.888  12.057  0.00  0.00    +0.000 C 
BRANCH  18  19
ATOM     19  N   UNL     1      46.896   6.634  11.834  0.00  0.00    +0.000 N 
ATOM     20  C   UNL     1      45.533   6.539  11.942  0.00  0.00    +0.000 C 
ATOM     21  O   UNL     1      44.835   7.515  12.200  0.00  0.00    +0.000 OA
ATOM     22  H   UNL     1      47.461   5.791  11.847  0.00  0.00    +0.000 HD
BRANCH  20  23
ATOM     23  C   UNL     1      44.944   5.222  11.670  0.00  0.00    +0.000 A 
ATOM     24  C   UNL     1      44.252   4.565  12.680  0.00  0.00    +0.000 A 
ATOM     25  S   UNL     1      43.582   3.076  12.192  0.00  0.00    +0.000 S 
ATOM     26  C   UNL     1      44.233   3.231  10.630  0.00  0.00    +0.000 A 
ATOM     27  N   UNL     1      44.048   2.261   9.697  0.00  0.00    +0.000 NA
ATOM     28  C   UNL     1      44.628   2.487   8.565  0.00  0.00    +0.000 A 
ATOM     29  N   UNL     1      45.371   3.600   8.280  0.00  0.00    +0.000 N 
ATOM     30  C   UNL     1      45.558   4.628   9.180  0.00  0.00    +0.000 A 
ATOM     31  O   UNL     1      46.184   5.637   8.874  0.00  0.00    +0.000 OA
ATOM     32  C   UNL     1      44.941   4.410  10.475  0.00  0.00    +0.000 A 
ATOM     33  H   UNL     1      45.799   3.719   7.373  0.00  0.00    +0.000 HD
ENDBRANCH  20  23
ENDBRANCH  18  19
ENDBRANCH   4  18
TORSDOF 7
ENDMDL
MODEL 4
REMARK VINA RESULT:    -7.068      3.704      8.549
REMARK INTER + INTRA:         -11.170
REMARK INTER:                  -9.713
REMARK INTRA:                  -1.457
REMARK UNBOUND:                -1.209
REMARK  Name = 
REMARK  8 active torsions:
REMARK  status: ('A' for Active; 'I' for Inactive)
REMARK    1  A    between atoms: C_1  and  C_2
REMARK    2  A    between atoms: C_2  and  N_3
REMARK    3  A    between atoms: C_2  and  C_11
REMARK    4  A    between atoms: N_3  and  C_4
REMARK    5  A    between atoms: C_4  and  C_5
REMARK    6  A    between atoms: C_14  and  C_15
REMARK    7  A    between atoms: C_15  and  N_16
REMARK    8  A    between atoms: C_17  and  C_19
REMARK                            x       y       z     vdW  Elec       q    Type
REMARK                         _______ _______ _______ _____ _____    ______ ____
ROOT
ATOM      1  C   UNL     1      50.314   7.088  15.536  0.00  0.00    +0.000 A 
ATOM      2  C   UNL     1      50.950   7.901  14.582  0.00  0.00    +0.000 A 
ATOM      3  C   UNL     1      50.311   8.245  13.388  0.00  0.00    +0.000 A 
ATOM      4  C   UNL     1      48.999   7.824  13.143  0.00  0.00    +0.000 A 
ATOM      5  C   UNL     1      48.351   7.038  14.102  0.00  0.00    +0.000 A 
ATOM      6  C   UNL     1      49.001   6.669  15.280  0.00  0.00    +0.000 A 
ENDROOT
BRANCH   1   8
ATOM      7  C   UNL     1      52.177   7.606  17.187  0.00  0.00    +0.000 C 
ATOM      8  C   UNL     1      51.095   6.605  16.755  0.00  0.00    +0.000 C 
BRANCH   8   9
ATOM      9  N   UNL     1      50.216   6.338  17.911  0.00  0.00    +0.000 NA
ATOM     10  H   UNL     1      49.256   6.257  17.581  0.00  0.00    +0.000 HD
BRANCH   9  11
ATOM     11  C   UNL     1      50.578   5.107  18.616  0.00  0.00    +0.000 C 
BRANCH  11  12
ATOM     12  C   UNL     1      50.164   3.867  17.864  0.00  0.00    +0.000 A 
ATOM     13  C   UNL     1      48.865   3.747  17.357  0.00  0.00    +0.000 A 
ATOM     14  C   UNL     1      48.540   2.622  16.616  0.00  0.00    +0.000 A 
ATOM     15  N   UNL     1      49.405   1.622  16.355  0.00  0.00    +0.000 NA
ATOM     16  C   UNL     1      50.653   1.753  16.859  0.00  0.00    +0.000 A 
ATOM     17  C   UNL     1      51.073   2.839  17.610  0.00  0.00    +0.000 A 
ENDBRANCH  11  12
ENDBRANCH   9  11
ENDBRANCH   8   9
ENDBRANCH   1   8
BRANCH   4  18
ATOM     18  C   UNL     1      48.313   8.135  11.842  0.00  0.00    +0.000 C 
BRANCH  18  19
ATOM     19  N   UNL     1      47.601   6.980  11.355  0.00  0.00    +0.000 N 
ATOM     20  C   UNL     1      46.232   6.965  11.305  0.00  0.00    +0.000 C 
ATOM     21  O   UNL     1      45.561   7.937  11.638  0.00  0.00    +0.000 OA
ATOM     22  H   UNL     1      48.116   6.107  11.295  0.00  0.00    +0.000 HD
BRANCH  20  23
ATOM     23  C   UNL     1      45.609   5.748  10.769  0.00  0.00    +0.000 A 
ATOM     24  C   UNL     1      45.750   5.450   9.419  0.00  0.00    +0.000 A 
ATOM     25  S   UNL     1      45.018   3.980   8.963  0.00  0.00    +0.000 S 
ATOM     26  C   UNL     1      44.443   3.713  10.541  0.00  0.00    +0.000 A 
ATOM     27  N   UNL     1      43.699   2.615  10.836  0.00  0.00    +0.000 NA
ATOM     28  C   UNL     1      43.295   2.555  12.062  0.00  0.00    +0.000 A 
ATOM     29  N   UNL     1      43.576   3.490  13.020  0.00  0.00    +0.000 N 
ATOM     30  C   UNL     1      44.356   4.601  12.780  0.00  0.00    +0.000 A 
ATOM     31  O   UNL     1      44.634   5.391  13.675  0.00  0.00    +0.000 OA
ATOM     32  C   UNL     1      44.817   4.724  11.409  0.00  0.00    +0.000 A 
ATOM     33  H   UNL     1      43.231   3.384  13.964  0.00  0.00    +0.000 HD
ENDBRANCH  20  23
ENDBRANCH  18  19
ENDBRANCH   4  18
TORSDOF 7
ENDMDL
MODEL 5
REMARK VINA RESULT:    -7.022      2.266      2.959
REMARK INTER + INTRA:         -11.105
REMARK INTER:                  -9.959
REMARK INTRA:                  -1.146
REMARK UNBOUND:                -1.209
REMARK  Name = 
REMARK  8 active torsions:
REMARK  status: ('A' for Active; 'I' for Inactive)
REMARK    1  A    between atoms: C_1  and  C_2
REMARK    2  A    between atoms: C_2  and  N_3
REMARK    3  A    between atoms: C_2  and  C_11
REMARK    4  A    between atoms: N_3  and  C_4
REMARK    5  A    between atoms: C_4  and  C_5
REMARK    6  A    between atoms: C_14  and  C_15
REMARK    7  A    between atoms: C_15  and  N_16
REMARK    8  A    between atoms: C_17  and  C_19
REMARK                            x       y       z     vdW  Elec       q    Type
REMARK                         _______ _______ _______ _____ _____    ______ ____
ROOT
ATOM      1  C   UNL     1      45.362   4.423  11.953  0.00  0.00    +0.000 A 
ATOM      2  C   UNL     1      45.891   3.321  12.648  0.00  0.00    +0.000 A 
ATOM      3  C   UNL     1      46.746   3.499  13.738  0.00  0.00    +0.000 A 
ATOM      4  C   UNL     1      47.052   4.787  14.191  0.00  0.00    +0.000 A 
ATOM      5  C   UNL     1      46.507   5.888  13.521  0.00  0.00    +0.000 A 
ATOM      6  C   UNL     1      45.677   5.709  12.413  0.00  0.00    +0.000 A 
ENDROOT
BRANCH   1   8
ATOM      7  C   UNL     1      43.222   4.952  10.684  0.00  0.00    +0.000 C 
ATOM      8  C   UNL     1      44.558   4.194  10.676  0.00  0.00    +0.000 C 
BRANCH   8   9
ATOM      9  N   UNL     1      45.311   4.583   9.467  0.00  0.00    +0.000 NA
ATOM     10  H   UNL     1      46.292   4.347   9.601  0.00  0.00    +0.000 HD
BRANCH   9  11
ATOM     11  C   UNL     1      44.824   3.906   8.263  0.00  0.00    +0.000 C 
BRANCH  11  12
ATOM     12  C   UNL     1      45.847   2.970   7.672  0.00  0.00    +0.000 A 
ATOM     13  C   UNL     1      46.658   3.387   6.609  0.00  0.00    +0.000 A 
ATOM     14  C   UNL     1      47.631   2.523   6.134  0.00  0.00    +0.000 A 
ATOM     15  N   UNL     1      47.845   1.289   6.633  0.00  0.00    +0.000 NA
ATOM     16  C   UNL     1      47.048   0.903   7.654  0.00  0.00    +0.000 A 
ATOM     17  C   UNL     1      46.049   1.694   8.198  0.00  0.00    +0.000 A 
ENDBRANCH  11  12
ENDBRANCH   9  11
ENDBRANCH   8   9
ENDBRANCH   1   8
BRANCH   4  18
ATOM     18  C   UNL     1      48.014   5.003  15.326  0.00  0.00    +0.000 C 
BRANCH  18  19
ATOM     19  N   UNL     1      47.969   6.373  15.775  0.00  0.00    +0.000 N 
ATOM     20  C   UNL     1      49.120   7.094  15.955  0.00  0.00    +0.000 C 
ATOM     21  O   UNL     1      50.226   6.620  15.713  0.00  0.00    +0.000 OA
ATOM     22  H   UNL     1      47.102   6.699  16.190  0.00  0.00    +0.000 HD
BRANCH  20  23
ATOM     23  C   UNL     1      48.959   8.487  16.390  0.00  0.00    +0.000 A 
ATOM     24  C   UNL     1      49.508   9.507  15.622  0.00  0.00    +0.000 A 
ATOM     25  S   UNL     1      49.189  11.067  16.229  0.00  0.00    +0.000 S 
ATOM     26  C   UNL     1      48.350  10.436  17.566  0.00  0.00    +0.000 A 
ATOM     27  N   UNL     1      47.827  11.258  18.513  0.00  0.00    +0.000 NA
ATOM     28  C   UNL     1      47.248  10.647  19.493  0.00  0.00    +0.000 A 
ATOM     29  N   UNL     1      47.141   9.288  19.608  0.00  0.00    +0.000 N 
ATOM     30  C   UNL     1      47.622   8.414  18.656  0.00  0.00    +0.000 A 
ATOM     31  O   UNL     1      47.460   7.204  18.763  0.00  0.00    +0.000 OA
ATOM     32  C   UNL     1      48.300   9.053  17.544  0.00  0.00    +0.000 A 
ATOM     33  H   UNL     1      46.673   8.870  20.400  0.00  0.00    +0.000 HD
ENDBRANCH  20  23
ENDBRANCH  18  19
ENDBRANCH   4  18
TORSDOF 7
ENDMDL
MODEL 6
REMARK VINA RESULT:    -6.992      3.202      8.143
REMARK INTER + INTRA:         -11.062
REMARK INTER:                  -9.552
REMARK INTRA:                  -1.509
REMARK UNBOUND:                -1.209
REMARK  Name = 
REMARK  8 active torsions:
REMARK  status: ('A' for Active; 'I' for Inactive)
REMARK    1  A    between atoms: C_1  and  C_2
REMARK    2  A    between atoms: C_2  and  N_3
REMARK    3  A    between atoms: C_2  and  C_11
REMARK    4  A    between atoms: N_3  and  C_4
REMARK    5  A    between atoms: C_4  and  C_5
REMARK    6  A    between atoms: C_14  and  C_15
REMARK    7  A    between atoms: C_15  and  N_16
REMARK    8  A    between atoms: C_17  and  C_19
REMARK                            x       y       z     vdW  Elec       q    Type
REMARK                         _______ _______ _______ _____ _____    ______ ____
ROOT
ATOM      1  C   UNL     1      49.135   7.303  18.479  0.00  0.00    +0.000 A 
ATOM      2  C   UNL     1      49.986   6.707  17.530  0.00  0.00    +0.000 A 
ATOM      3  C   UNL     1      49.954   7.096  16.189  0.00  0.00    +0.000 A 
ATOM      4  C   UNL     1      49.106   8.128  15.774  0.00  0.00    +0.000 A 
ATOM      5  C   UNL     1      48.278   8.745  16.718  0.00  0.00    +0.000 A 
ATOM      6  C   UNL     1      48.287   8.334  18.052  0.00  0.00    +0.000 A 
ENDROOT
BRANCH   1   8
ATOM      7  C   UNL     1      47.654   6.697  20.455  0.00  0.00    +0.000 C 
ATOM      8  C   UNL     1      49.086   6.749  19.899  0.00  0.00    +0.000 C 
BRANCH   8   9
ATOM      9  N   UNL     1      49.672   5.397  19.991  0.00  0.00    +0.000 NA
ATOM     10  H   UNL     1      50.091   5.282  20.912  0.00  0.00    +0.000 HD
BRANCH   9  11
ATOM     11  C   UNL     1      48.677   4.340  19.792  0.00  0.00    +0.000 C 
BRANCH  11  12
ATOM     12  C   UNL     1      48.918   3.549  18.531  0.00  0.00    +0.000 A 
ATOM     13  C   UNL     1      50.201   3.081  18.223  0.00  0.00    +0.000 A 
ATOM     14  C   UNL     1      50.372   2.302  17.090  0.00  0.00    +0.000 A 
ATOM     15  N   UNL     1      49.370   1.968  16.252  0.00  0.00    +0.000 NA
ATOM     16  C   UNL     1      48.140   2.435  16.564  0.00  0.00    +0.000 A 
ATOM     17  C   UNL     1      47.868   3.219  17.673  0.00  0.00    +0.000 A 
ENDBRANCH  11  12
ENDBRANCH   9  11
ENDBRANCH   8   9
ENDBRANCH   1   8
BRANCH   4  18
ATOM     18  C   UNL     1      49.016   8.525  14.327  0.00  0.00    +0.000 C 
BRANCH  18  19
ATOM     19  N   UNL     1      47.800   8.020  13.737  0.00  0.00    +0.000 N 
ATOM     20  C   UNL     1      47.788   6.836  13.049  0.00  0.00    +0.000 C 
ATOM     21  O   UNL     1      48.796   6.144  12.933  0.00  0.00    +0.000 OA
ATOM     22  H   UNL     1      47.030   8.673  13.628  0.00  0.00    +0.000 HD
BRANCH  20  23
ATOM     23  C   UNL     1      46.493   6.402  12.512  0.00  0.00    +0.000 A 
ATOM     24  C   UNL     1      45.656   7.338  11.917  0.00  0.00    +0.000 A 
ATOM     25  S   UNL     1      44.217   6.670  11.294  0.00  0.00    +0.000 S 
ATOM     26  C   UNL     1      44.636   5.116  11.841  0.00  0.00    +0.000 A 
ATOM     27  N   UNL     1      43.803   4.060  11.648  0.00  0.00    +0.000 NA
ATOM     28  C   UNL     1      44.226   2.945  12.145  0.00  0.00    +0.000 A 
ATOM     29  N   UNL     1      45.411   2.791  12.812  0.00  0.00    +0.000 N 
ATOM     30  C   UNL     1      46.306   3.822  13.001  0.00  0.00    +0.000 A 
ATOM     31  O   UNL     1      47.384   3.637  13.555  0.00  0.00    +0.000 OA
ATOM     32  C   UNL     1      45.865   5.102  12.477  0.00  0.00    +0.000 A 
ATOM     33  H   UNL     1      45.686   1.890  13.177  0.00  0.00    +0.000 HD
ENDBRANCH  20  23
ENDBRANCH  18  19
ENDBRANCH   4  18
TORSDOF 7
ENDMDL
MODEL 7
REMARK VINA RESULT:    -6.889      3.842      8.731
REMARK INTER + INTRA:         -10.917
REMARK INTER:                  -9.280
REMARK INTRA:                  -1.637
REMARK UNBOUND:                -1.209
REMARK  Name = 
REMARK  8 active torsions:
REMARK  status: ('A' for Active; 'I' for Inactive)
REMARK    1  A    between atoms: C_1  and  C_2
REMARK    2  A    between atoms: C_2  and  N_3
REMARK    3  A    between atoms: C_2  and  C_11
REMARK    4  A    between atoms: N_3  and  C_4
REMARK    5  A    between atoms: C_4  and  C_5
REMARK    6  A    between atoms: C_14  and  C_15
REMARK    7  A    between atoms: C_15  and  N_16
REMARK    8  A    between atoms: C_17  and  C_19
REMARK                            x       y       z     vdW  Elec       q    Type
REMARK                         _______ _______ _______ _____ _____    ______ ____
ROOT
ATOM      1  C   UNL     1      51.172   4.299  18.113  0.00  0.00    +0.000 A 
ATOM      2  C   UNL     1      50.130   5.216  18.339  0.00  0.00    +0.000 A 
ATOM      3  C   UNL     1      48.823   4.934  17.936  0.00  0.00    +0.000 A 
ATOM      4  C   UNL     1      48.518   3.705  17.341  0.00  0.00    +0.000 A 
ATOM      5  C   UNL     1      49.545   2.777  17.139  0.00  0.00    +0.000 A 
ATOM      6  C   UNL     1      50.857   3.072  17.514  0.00  0.00    +0.000 A 
ENDROOT
BRANCH   1   8
ATOM      7  C   UNL     1      53.634   3.729  17.819  0.00  0.00    +0.000 C 
ATOM      8  C   UNL     1      52.611   4.702  18.425  0.00  0.00    +0.000 C 
BRANCH   8   9
ATOM      9  N   UNL     1      52.923   6.065  17.950  0.00  0.00    +0.000 NA
ATOM     10  H   UNL     1      53.654   6.458  18.541  0.00  0.00    +0.000 HD
BRANCH   9  11
ATOM     11  C   UNL     1      53.381   6.082  16.559  0.00  0.00    +0.000 C 
BRANCH  11  12
ATOM     12  C   UNL     1      52.664   7.113  15.727  0.00  0.00    +0.000 A 
ATOM     13  C   UNL     1      53.388   8.013  14.935  0.00  0.00    +0.000 A 
ATOM     14  C   UNL     1      52.693   8.904  14.134  0.00  0.00    +0.000 A 
ATOM     15  N   UNL     1      51.348   8.965  14.072  0.00  0.00    +0.000 NA
ATOM     16  C   UNL     1      50.667   8.093  14.849  0.00  0.00    +0.000 A 
ATOM     17  C   UNL     1      51.270   7.164  15.682  0.00  0.00    +0.000 A 
ENDBRANCH  11  12
ENDBRANCH   9  11
ENDBRANCH   8   9
ENDBRANCH   1   8
BRANCH   4  18
ATOM     18  C   UNL     1      47.130   3.403  16.849  0.00  0.00    +0.000 C 
BRANCH  18  19
ATOM     19  N   UNL     1      46.708   4.389  15.884  0.00  0.00    +0.000 N 
ATOM     20  C   UNL     1      46.845   4.164  14.540  0.00  0.00    +0.000 C 
ATOM     21  O   UNL     1      47.298   3.110  14.102  0.00  0.00    +0.000 OA
ATOM     22  H   UNL     1      46.550   5.333  16.222  0.00  0.00    +0.000 HD
BRANCH  20  23
ATOM     23  C   UNL     1      46.361   5.223  13.645  0.00  0.00    +0.000 A 
ATOM     24  C   UNL     1      47.175   6.318  13.385  0.00  0.00    +0.000 A 
ATOM     25  S   UNL     1      46.495   7.430  12.286  0.00  0.00    +0.000 S 
ATOM     26  C   UNL     1      45.069   6.514  12.157  0.00  0.00    +0.000 A 
ATOM     27  N   UNL     1      44.040   6.931  11.373  0.00  0.00    +0.000 NA
ATOM     28  C   UNL     1      43.003   6.161  11.395  0.00  0.00    +0.000 A 
ATOM     29  N   UNL     1      42.905   5.009  12.125  0.00  0.00    +0.000 N 
ATOM     30  C   UNL     1      43.933   4.525  12.905  0.00  0.00    +0.000 A 
ATOM     31  O   UNL     1      43.832   3.459  13.503  0.00  0.00    +0.000 OA
ATOM     32  C   UNL     1      45.115   5.366  12.929  0.00  0.00    +0.000 A 
ATOM     33  H   UNL     1      42.064   4.448  12.098  0.00  0.00    +0.000 HD
ENDBRANCH  20  23
ENDBRANCH  18  19
ENDBRANCH   4  18
TORSDOF 7
ENDMDL
MODEL 8
REMARK VINA RESULT:    -6.829      4.685      9.585
REMARK INTER + INTRA:         -10.832
REMARK INTER:                  -9.669
REMARK INTRA:                  -1.164
REMARK UNBOUND:                -1.209
REMARK  Name = 
REMARK  8 active torsions:
REMARK  status: ('A' for Active; 'I' for Inactive)
REMARK    1  A    between atoms: C_1  and  C_2
REMARK    2  A    between atoms: C_2  and  N_3
REMARK    3  A    between atoms: C_2  and  C_11
REMARK    4  A    between atoms: N_3  and  C_4
REMARK    5  A    between atoms: C_4  and  C_5
REMARK    6  A    between atoms: C_14  and  C_15
REMARK    7  A    between atoms: C_15  and  N_16
REMARK    8  A    between atoms: C_17  and  C_19
REMARK                            x       y       z     vdW  Elec       q    Type
REMARK                         _______ _______ _______ _____ _____    ______ ____
ROOT
ATOM      1  C   UNL     1      51.344   3.539  18.150  0.00  0.00    +0.000 A 
ATOM      2  C   UNL     1      50.440   4.546  18.533  0.00  0.00    +0.000 A 
ATOM      3  C   UNL     1      49.094   4.482  18.167  0.00  0.00    +0.000 A 
ATOM      4  C   UNL     1      48.609   3.382  17.451  0.00  0.00    +0.000 A 
ATOM      5  C   UNL     1      49.498   2.364  17.091  0.00  0.00    +0.000 A 
ATOM      6  C   UNL     1      50.849   2.444  17.431  0.00  0.00    +0.000 A 
ENDROOT
BRANCH   1   8
ATOM      7  C   UNL     1      53.154   5.102  19.015  0.00  0.00    +0.000 C 
ATOM      8  C   UNL     1      52.833   3.717  18.433  0.00  0.00    +0.000 C 
BRANCH   8   9
ATOM      9  N   UNL     1      53.351   2.690  19.359  0.00  0.00    +0.000 NA
ATOM     10  H   UNL     1      52.745   1.872  19.314  0.00  0.00    +0.000 HD
BRANCH   9  11
ATOM     11  C   UNL     1      54.719   2.280  19.031  0.00  0.00    +0.000 C 
BRANCH  11  12
ATOM     12  C   UNL     1      54.767   0.974  18.280  0.00  0.00    +0.000 A 
ATOM     13  C   UNL     1      54.795  -0.242  18.974  0.00  0.00    +0.000 A 
ATOM     14  C   UNL     1      54.774  -1.423  18.251  0.00  0.00    +0.000 A 
ATOM     15  N   UNL     1      54.734  -1.476  16.904  0.00  0.00    +0.000 NA
ATOM     16  C   UNL     1      54.714  -0.292  16.252  0.00  0.00    +0.000 A 
ATOM     17  C   UNL     1      54.732   0.940  16.885  0.00  0.00    +0.000 A 
ENDBRANCH  11  12
ENDBRANCH   9  11
ENDBRANCH   8   9
ENDBRANCH   1   8
BRANCH   4  18
ATOM     18  C   UNL     1      47.176   3.320  16.998  0.00  0.00    +0.000 C 
BRANCH  18  19
ATOM     19  N   UNL     1      46.903   4.359  16.036  0.00  0.00    +0.000 N 
ATOM     20  C   UNL     1      47.010   4.121  14.691  0.00  0.00    +0.000 C 
ATOM     21  O   UNL     1      47.308   3.015  14.251  0.00  0.00    +0.000 OA
ATOM     22  H   UNL     1      46.881   5.315  16.377  0.00  0.00    +0.000 HD
BRANCH  20  23
ATOM     23  C   UNL     1      46.684   5.241  13.799  0.00  0.00    +0.000 A 
ATOM     24  C   UNL     1      47.610   6.260  13.622  0.00  0.00    +0.000 A 
ATOM     25  S   UNL     1      47.109   7.456  12.517  0.00  0.00    +0.000 S 
ATOM     26  C   UNL     1      45.615   6.682  12.272  0.00  0.00    +0.000 A 
ATOM     27  N   UNL     1      44.682   7.211  11.439  0.00  0.00    +0.000 NA
ATOM     28  C   UNL     1      43.578   6.543  11.374  0.00  0.00    +0.000 A 
ATOM     29  N   UNL     1      43.328   5.387  12.062  0.00  0.00    +0.000 N 
ATOM     30  C   UNL     1      44.255   4.791  12.890  0.00  0.00    +0.000 A 
ATOM     31  O   UNL     1      44.017   3.726  13.450  0.00  0.00    +0.000 OA
ATOM     32  C   UNL     1      45.505   5.517  13.012  0.00  0.00    +0.000 A 
ATOM     33  H   UNL     1      42.443   4.909  11.967  0.00  0.00    +0.000 HD
ENDBRANCH  20  23
ENDBRANCH  18  19
ENDBRANCH   4  18
TORSDOF 7
ENDMDL
MODEL 9
REMARK VINA RESULT:    -6.660      4.028      8.744
REMARK INTER + INTRA:         -10.594
REMARK INTER:                  -8.107
REMARK INTRA:                  -2.487
REMARK UNBOUND:                -1.209
REMARK  Name = 
REMARK  8 active torsions:
REMARK  status: ('A' for Active; 'I' for Inactive)
REMARK    1  A    between atoms: C_1  and  C_2
REMARK    2  A    between atoms: C_2  and  N_3
REMARK    3  A    between atoms: C_2  and  C_11
REMARK    4  A    between atoms: N_3  and  C_4
REMARK    5  A    between atoms: C_4  and  C_5
REMARK    6  A    between atoms: C_14  and  C_15
REMARK    7  A    between atoms: C_15  and  N_16
REMARK    8  A    between atoms: C_17  and  C_19
REMARK                            x       y       z     vdW  Elec       q    Type
REMARK                         _______ _______ _______ _____ _____    ______ ____
ROOT
ATOM      1  C   UNL     1      51.367   3.800  18.351  0.00  0.00    +0.000 A 
ATOM      2  C   UNL     1      50.384   4.688  18.823  0.00  0.00    +0.000 A 
ATOM      3  C   UNL     1      49.050   4.561  18.430  0.00  0.00    +0.000 A 
ATOM      4  C   UNL     1      48.658   3.510  17.593  0.00  0.00    +0.000 A 
ATOM      5  C   UNL     1      49.627   2.607  17.142  0.00  0.00    +0.000 A 
ATOM      6  C   UNL     1      50.965   2.753  17.511  0.00  0.00    +0.000 A 
ENDROOT
BRANCH   1   8
ATOM      7  C   UNL     1      53.779   3.141  17.886  0.00  0.00    +0.000 C 
ATOM      8  C   UNL     1      52.835   4.060  18.676  0.00  0.00    +0.000 C 
BRANCH   8   9
ATOM      9  N   UNL     1      53.223   5.461  18.420  0.00  0.00    +0.000 NA
ATOM     10  H   UNL     1      54.054   5.677  18.969  0.00  0.00    +0.000 HD
BRANCH   9  11
ATOM     11  C   UNL     1      53.514   5.712  17.006  0.00  0.00    +0.000 C 
BRANCH  11  12
ATOM     12  C   UNL     1      52.816   6.940  16.481  0.00  0.00    +0.000 A 
ATOM     13  C   UNL     1      53.068   7.397  15.182  0.00  0.00    +0.000 A 
ATOM     14  C   UNL     1      52.360   8.491  14.711  0.00  0.00    +0.000 A 
ATOM     15  N   UNL     1      51.438   9.156  15.436  0.00  0.00    +0.000 NA
ATOM     16  C   UNL     1      51.215   8.703  16.691  0.00  0.00    +0.000 A 
ATOM     17  C   UNL     1      51.870   7.619  17.250  0.00  0.00    +0.000 A 
ENDBRANCH  11  12
ENDBRANCH   9  11
ENDBRANCH   8   9
ENDBRANCH   1   8
BRANCH   4  18
ATOM     18  C   UNL     1      47.239   3.388  17.112  0.00  0.00    +0.000 C 
BRANCH  18  19
ATOM     19  N   UNL     1      46.954   4.387  16.112  0.00  0.00    +0.000 N 
ATOM     20  C   UNL     1      47.064   4.100  14.777  0.00  0.00    +0.000 C 
ATOM     21  O   UNL     1      47.376   2.982  14.378  0.00  0.00    +0.000 OA
ATOM     22  H   UNL     1      46.921   5.355  16.417  0.00  0.00    +0.000 HD
BRANCH  20  23
ATOM     23  C   UNL     1      46.726   5.182  13.843  0.00  0.00    +0.000 A 
ATOM     24  C   UNL     1      45.577   5.078  13.070  0.00  0.00    +0.000 A 
ATOM     25  S   UNL     1      45.294   6.436  12.080  0.00  0.00    +0.000 S 
ATOM     26  C   UNL     1      46.722   7.190  12.610  0.00  0.00    +0.000 A 
ATOM     27  N   UNL     1      47.096   8.402  12.121  0.00  0.00    +0.000 NA
ATOM     28  C   UNL     1      48.220   8.842  12.581  0.00  0.00    +0.000 A 
ATOM     29  N   UNL     1      49.001   8.183  13.490  0.00  0.00    +0.000 N 
ATOM     30  C   UNL     1      48.647   6.971  14.044  0.00  0.00    +0.000 A 
ATOM     31  O   UNL     1      49.344   6.433  14.898  0.00  0.00    +0.000 OA
ATOM     32  C   UNL     1      47.400   6.424  13.543  0.00  0.00    +0.000 A 
ATOM     33  H   UNL     1      49.871   8.583  13.813  0.00  0.00    +0.000 HD
ENDBRANCH  20  23
ENDBRANCH  18  19
ENDBRANCH   4  18
TORSDOF 7
ENDMDL
