MODEL 1
REMARK VINA RESULT:    -8.498      0.000      0.000
REMARK INTER + INTRA:         -11.706
REMARK INTER:                 -10.982
REMARK INTRA:                  -0.724
REMARK UNBOUND:                -0.724
REMARK  Name = 
REMARK  5 active torsions:
REMARK  status: ('A' for Active; 'I' for Inactive)
REMARK    1  A    between atoms: C_2  and  C_4
REMARK    2  A    between atoms: N_8  and  C_9
REMARK    3  A    between atoms: C_9  and  C_10
REMARK    4  A    between atoms: C_10  and  C_11
REMARK    5  A    between atoms: C_15  and  C_16
REMARK                            x       y       z     vdW  Elec       q    Type
REMARK                         _______ _______ _______ _____ _____    ______ ____
ROOT
ATOM      1  C   UNL     1      43.154   4.443  11.031  0.00  0.00    +0.000 C 
ENDROOT
BRANCH   1   6
ATOM      2  C   UNL     1      46.464   2.478   7.676  0.00  0.00    +0.000 A 
ATOM      3  C   UNL     1      45.753   1.906   8.722  0.00  0.00    +0.000 A 
ATOM      4  C   UNL     1      44.916   2.709   9.492  0.00  0.00    +0.000 A 
ATOM      5  C   UNL     1      44.798   4.070   9.214  0.00  0.00    +0.000 A 
ATOM      6  N   UNL     1      43.978   4.905   9.935  0.00  0.00    +0.000 N 
ATOM      7  N   UNL     1      45.497   4.638   8.213  0.00  0.00    +0.000 NA
ATOM      8  C   UNL     1      46.323   3.844   7.474  0.00  0.00    +0.000 A 
ATOM      9  H   UNL     1      43.974   5.868   9.621  0.00  0.00    +0.000 HD
BRANCH   2  11
ATOM     10  N   UNL     1      48.475   2.320   6.334  0.00  0.00    +0.000 N 
ATOM     11  C   UNL     1      47.359   1.690   6.809  0.00  0.00    +0.000 C 
ATOM     12  O   UNL     1      47.131   0.516   6.548  0.00  0.00    +0.000 OA
ATOM     13  H   UNL     1      49.131   1.754   5.811  0.00  0.00    +0.000 HD
ATOM     14  H   UNL     1      48.816   3.194   6.711  0.00  0.00    +0.000 HD
ENDBRANCH   2  11
ENDBRANCH   1   6
BRANCH   1  15
ATOM     15  C   UNL     1      43.250   5.347  12.260  0.00  0.00    +0.000 C 
BRANCH  15  16
ATOM     16  C   UNL     1      44.692   5.525  12.667  0.00  0.00    +0.000 A 
ATOM     17  C   UNL     1      45.351   4.553  13.409  0.00  0.00    +0.000 A 
ATOM     18  N   UNL     1      46.651   4.626  13.756  0.00  0.00    +0.000 NA
ATOM     19  C   UNL     1      47.330   5.728  13.350  0.00  0.00    +0.000 A 
ATOM     20  C   UNL     1      46.791   6.782  12.607  0.00  0.00    +0.000 A 
ATOM     21  C   UNL     1      45.436   6.643  12.262  0.00  0.00    +0.000 A 
BRANCH  20  22
ATOM     22  C   UNL     1      47.587   7.973  12.232  0.00  0.00    +0.000 A 
ATOM     23  C   UNL     1      48.946   7.873  11.878  0.00  0.00    +0.000 A 
ATOM     24  C   UNL     1      49.682   8.993  11.472  0.00  0.00    +0.000 A 
ATOM     25  C   UNL     1      49.080  10.245  11.427  0.00  0.00    +0.000 A 
ATOM     26  C   UNL     1      47.745  10.379  11.792  0.00  0.00    +0.000 A 
ATOM     27  C   UNL     1      47.009   9.256  12.187  0.00  0.00    +0.000 A 
ENDBRANCH  20  22
ENDBRANCH  15  16
ENDBRANCH   1  15
TORSDOF 5
ENDMDL
MODEL 2
REMARK VINA RESULT:    -8.112      3.312      7.185
REMARK INTER + INTRA:         -11.207
REMARK INTER:                 -10.541
REMARK INTRA:                  -0.666
REMARK UNBOUND:                -0.724
REMARK  Name = 
REMARK  5 active torsions:
REMARK  status: ('A' for Active; 'I' for Inactive)
REMARK    1  A    between atoms: C_2  and  C_4
REMARK    2  A    between atoms: N_8  and  C_9
REMARK    3  A    between atoms: C_9  and  C_10
REMARK    4  A    between atoms: C_10  and  C_11
REMARK    5  A    between atoms: C_15  and  C_16
REMARK                            x       y       z     vdW  Elec       q    Type
REMARK                         _______ _______ _______ _____ _____    ______ ____
ROOT
ATOM      1  C   UNL     1      47.332   7.227  11.812  0.00  0.00    +0.000 C 
ENDROOT
BRANCH   1   6
ATOM      2  C   UNL     1      47.635   4.282  15.973  0.00  0.00    +0.000 A 
ATOM      3  C   UNL     1      46.961   4.123  14.770  0.00  0.00    +0.000 A 
ATOM      4  C   UNL     1      47.055   5.120  13.803  0.00  0.00    +0.000 A 
ATOM      5  C   UNL     1      47.814   6.263  14.045  0.00  0.00    +0.000 A 
ATOM      6  N   UNL     1      47.950   7.271  13.120  0.00  0.00    +0.000 N 
ATOM      7  N   UNL     1      48.457   6.436  15.215  0.00  0.00    +0.000 NA
ATOM      8  C   UNL     1      48.348   5.458  16.159  0.00  0.00    +0.000 A 
ATOM      9  H   UNL     1      48.540   8.039  13.416  0.00  0.00    +0.000 HD
BRANCH   2  11
ATOM     10  N   UNL     1      48.795   2.823  17.521  0.00  0.00    +0.000 N 
ATOM     11  C   UNL     1      47.594   3.265  17.039  0.00  0.00    +0.000 C 
ATOM     12  O   UNL     1      46.535   2.854  17.495  0.00  0.00    +0.000 OA
ATOM     13  H   UNL     1      48.765   2.190  18.310  0.00  0.00    +0.000 HD
ATOM     14  H   UNL     1      49.668   3.300  17.343  0.00  0.00    +0.000 HD
ENDBRANCH   2  11
ENDBRANCH   1   6
BRANCH   1  15
ATOM     15  C   UNL     1      45.827   7.491  11.864  0.00  0.00    +0.000 C 
BRANCH  15  16
ATOM     16  C   UNL     1      45.074   6.364  11.202  0.00  0.00    +0.000 A 
ATOM     17  C   UNL     1      43.715   6.184  11.426  0.00  0.00    +0.000 A 
ATOM     18  N   UNL     1      42.975   5.232  10.823  0.00  0.00    +0.000 NA
ATOM     19  C   UNL     1      43.622   4.413   9.957  0.00  0.00    +0.000 A 
ATOM     20  C   UNL     1      44.982   4.479   9.644  0.00  0.00    +0.000 A 
ATOM     21  C   UNL     1      45.699   5.499  10.291  0.00  0.00    +0.000 A 
BRANCH  20  22
ATOM     22  C   UNL     1      45.627   3.523   8.714  0.00  0.00    +0.000 A 
ATOM     23  C   UNL     1      46.380   3.962   7.609  0.00  0.00    +0.000 A 
ATOM     24  C   UNL     1      47.032   3.058   6.762  0.00  0.00    +0.000 A 
ATOM     25  C   UNL     1      46.933   1.691   6.990  0.00  0.00    +0.000 A 
ATOM     26  C   UNL     1      46.178   1.226   8.061  0.00  0.00    +0.000 A 
ATOM     27  C   UNL     1      45.536   2.132   8.912  0.00  0.00    +0.000 A 
ENDBRANCH  20  22
ENDBRANCH  15  16
ENDBRANCH   1  15
TORSDOF 5
ENDMDL
MODEL 3
REMARK VINA RESULT:    -7.902      4.195      8.220
REMARK INTER + INTRA:         -10.936
REMARK INTER:                 -10.348
REMARK INTRA:                  -0.588
REMARK UNBOUND:                -0.724
REMARK  Name = 
REMARK  5 active torsions:
REMARK  status: ('A' for Active; 'I' for Inactive)
REMARK    1  A    between atoms: C_2  and  C_4
REMARK    2  A    between atoms: N_8  and  C_9
REMARK    3  A    between atoms: C_9  and  C_10
REMARK    4  A    between atoms: C_10  and  C_11
REMARK    5  A    between atoms: C_15  and  C_16
REMARK                            x       y       z     vdW  Elec       q    Type
REMARK                         _______ _______ _______ _____ _____    ______ ____
ROOT
ATOM      1  C   UNL     1      46.580   5.424  13.438  0.00  0.00    +0.000 C 
ENDROOT
BRANCH   1   6
ATOM      2  C   UNL     1      48.497   4.426  18.065  0.00  0.00    +0.000 A 
ATOM      3  C   UNL     1      48.719   5.466  17.173  0.00  0.00    +0.000 A 
ATOM      4  C   UNL     1      48.049   5.468  15.952  0.00  0.00    +0.000 A 
ATOM      5  C   UNL     1      47.169   4.434  15.633  0.00  0.00    +0.000 A 
ATOM      6  N   UNL     1      46.474   4.394  14.448  0.00  0.00    +0.000 N 
ATOM      7  N   UNL     1      46.961   3.411  16.483  0.00  0.00    +0.000 NA
ATOM      8  C   UNL     1      47.631   3.415  17.670  0.00  0.00    +0.000 A 
ATOM      9  H   UNL     1      45.858   3.596  14.347  0.00  0.00    +0.000 HD
BRANCH   2  11
ATOM     10  N   UNL     1      48.506   3.682  20.371  0.00  0.00    +0.000 N 
ATOM     11  C   UNL     1      49.159   4.361  19.380  0.00  0.00    +0.000 C 
ATOM     12  O   UNL     1      50.257   4.868  19.572  0.00  0.00    +0.000 OA
ATOM     13  H   UNL     1      49.001   3.565  21.246  0.00  0.00    +0.000 HD
ATOM     14  H   UNL     1      47.729   3.060  20.191  0.00  0.00    +0.000 HD
ENDBRANCH   2  11
ENDBRANCH   1   6
BRANCH   1  15
ATOM     15  C   UNL     1      45.235   5.755  12.792  0.00  0.00    +0.000 C 
BRANCH  15  16
ATOM     16  C   UNL     1      44.780   4.614  11.915  0.00  0.00    +0.000 A 
ATOM     17  C   UNL     1      43.652   3.871  12.237  0.00  0.00    +0.000 A 
ATOM     18  N   UNL     1      43.163   2.878  11.468  0.00  0.00    +0.000 NA
ATOM     19  C   UNL     1      43.836   2.605  10.322  0.00  0.00    +0.000 A 
ATOM     20  C   UNL     1      44.984   3.268   9.882  0.00  0.00    +0.000 A 
ATOM     21  C   UNL     1      45.439   4.303  10.716  0.00  0.00    +0.000 A 
BRANCH  20  22
ATOM     22  C   UNL     1      45.687   2.888   8.634  0.00  0.00    +0.000 A 
ATOM     23  C   UNL     1      45.968   3.831   7.628  0.00  0.00    +0.000 A 
ATOM     24  C   UNL     1      46.679   3.482   6.473  0.00  0.00    +0.000 A 
ATOM     25  C   UNL     1      47.112   2.174   6.290  0.00  0.00    +0.000 A 
ATOM     26  C   UNL     1      46.831   1.215   7.256  0.00  0.00    +0.000 A 
ATOM     27  C   UNL     1      46.129   1.570   8.414  0.00  0.00    +0.000 A 
ENDBRANCH  20  22
ENDBRANCH  15  16
ENDBRANCH   1  15
TORSDOF 5
ENDMDL
MODEL 4
REMARK VINA RESULT:    -7.762      2.350      4.048
REMARK INTER + INTRA:         -10.755
REMARK INTER:                  -9.982
REMARK INTRA:                  -0.773
REMARK UNBOUND:                -0.724
REMARK  Name = 
REMARK  5 active torsions:
REMARK  status: ('A' for Active; 'I' for Inactive)
REMARK    1  A    between atoms: C_2  and  C_4
REMARK    2  A    between atoms: N_8  and  C_9
REMARK    3  A    between atoms: C_9  and  C_10
REMARK    4  A    between atoms: C_10  and  C_11
REMARK    5  A    between atoms: C_15  and  C_16
REMARK                            x       y       z     vdW  Elec       q    Type
REMARK                         _______ _______ _______ _____ _____    ______ ____
ROOT
ATOM      1  C   UNL     1      43.247   4.805  11.007  0.00  0.00    +0.000 C 
ENDROOT
BRANCH   1   6
ATOM      2  C   UNL     1      46.419   2.733   7.583  0.00  0.00    +0.000 A 
ATOM      3  C   UNL     1      46.014   4.043   7.799  0.00  0.00    +0.000 A 
ATOM      4  C   UNL     1      45.109   4.313   8.822  0.00  0.00    +0.000 A 
ATOM      5  C   UNL     1      44.617   3.277   9.615  0.00  0.00    +0.000 A 
ATOM      6  N   UNL     1      43.731   3.490  10.646  0.00  0.00    +0.000 N 
ATOM      7  N   UNL     1      44.989   2.001   9.403  0.00  0.00    +0.000 NA
ATOM      8  C   UNL     1      45.867   1.748   8.391  0.00  0.00    +0.000 A 
ATOM      9  H   UNL     1      43.463   2.655  11.152  0.00  0.00    +0.000 HD
BRANCH   2  11
ATOM     10  N   UNL     1      47.355   3.112   5.381  0.00  0.00    +0.000 N 
ATOM     11  C   UNL     1      47.383   2.371   6.529  0.00  0.00    +0.000 C 
ATOM     12  O   UNL     1      48.193   1.466   6.683  0.00  0.00    +0.000 OA
ATOM     13  H   UNL     1      48.073   2.919   4.695  0.00  0.00    +0.000 HD
ATOM     14  H   UNL     1      46.875   3.999   5.311  0.00  0.00    +0.000 HD
ENDBRANCH   2  11
ENDBRANCH   1   6
BRANCH   1  15
ATOM     15  C   UNL     1      43.411   5.103  12.497  0.00  0.00    +0.000 C 
BRANCH  15  16
ATOM     16  C   UNL     1      44.871   5.259  12.843  0.00  0.00    +0.000 A 
ATOM     17  C   UNL     1      45.716   6.020  12.046  0.00  0.00    +0.000 A 
ATOM     18  N   UNL     1      47.015   6.244  12.330  0.00  0.00    +0.000 NA
ATOM     19  C   UNL     1      47.500   5.674  13.461  0.00  0.00    +0.000 A 
ATOM     20  C   UNL     1      46.764   4.883  14.347  0.00  0.00    +0.000 A 
ATOM     21  C   UNL     1      45.413   4.697  14.008  0.00  0.00    +0.000 A 
BRANCH  20  22
ATOM     22  C   UNL     1      47.373   4.263  15.547  0.00  0.00    +0.000 A 
ATOM     23  C   UNL     1      47.950   2.981  15.504  0.00  0.00    +0.000 A 
ATOM     24  C   UNL     1      48.572   2.419  16.626  0.00  0.00    +0.000 A 
ATOM     25  C   UNL     1      48.616   3.121  17.825  0.00  0.00    +0.000 A 
ATOM     26  C   UNL     1      48.035   4.382  17.904  0.00  0.00    +0.000 A 
ATOM     27  C   UNL     1      47.423   4.945  16.778  0.00  0.00    +0.000 A 
ENDBRANCH  20  22
ENDBRANCH  15  16
ENDBRANCH   1  15
TORSDOF 5
ENDMDL
MODEL 5
REMARK VINA RESULT:    -7.663      3.184      6.789
REMARK INTER + INTRA:         -10.626
REMARK INTER:                  -9.828
REMARK INTRA:                  -0.798
REMARK UNBOUND:                -0.724
REMARK  Name = 
REMARK  5 active torsions:
REMARK  status: ('A' for Active; 'I' for Inactive)
REMARK    1  A    between atoms: C_2  and  C_4
REMARK    2  A    between atoms: N_8  and  C_9
REMARK    3  A    between atoms: C_9  and  C_10
REMARK    4  A    between atoms: C_10  and  C_11
REMARK    5  A    between atoms: C_15  and  C_16
REMARK                            x       y       z     vdW  Elec       q    Type
REMARK                         _______ _______ _______ _____ _____    ______ ____
ROOT
ATOM      1  C   UNL     1      44.451   6.417  12.695  0.00  0.00    +0.000 C 
ENDROOT
BRANCH   1   6
ATOM      2  C   UNL     1      49.192   8.217  12.097  0.00  0.00    +0.000 A 
ATOM      3  C   UNL     1      48.679   6.928  12.071  0.00  0.00    +0.000 A 
ATOM      4  C   UNL     1      47.316   6.736  12.284  0.00  0.00    +0.000 A 
ATOM      5  C   UNL     1      46.482   7.827  12.522  0.00  0.00    +0.000 A 
ATOM      6  N   UNL     1      45.129   7.695  12.725  0.00  0.00    +0.000 N 
ATOM      7  N   UNL     1      46.973   9.080  12.567  0.00  0.00    +0.000 NA
ATOM      8  C   UNL     1      48.310   9.255  12.369  0.00  0.00    +0.000 A 
ATOM      9  H   UNL     1      44.637   8.568  12.873  0.00  0.00    +0.000 HD
BRANCH   2  11
ATOM     10  N   UNL     1      51.339   7.557  11.190  0.00  0.00    +0.000 N 
ATOM     11  C   UNL     1      50.620   8.501  11.869  0.00  0.00    +0.000 C 
ATOM     12  O   UNL     1      51.136   9.546  12.243  0.00  0.00    +0.000 OA
ATOM     13  H   UNL     1      52.296   7.791  10.958  0.00  0.00    +0.000 HD
ATOM     14  H   UNL     1      50.907   6.807  10.668  0.00  0.00    +0.000 HD
ENDBRANCH   2  11
ENDBRANCH   1   6
BRANCH   1  15
ATOM     15  C   UNL     1      43.713   6.175  11.378  0.00  0.00    +0.000 C 
BRANCH  15  16
ATOM     16  C   UNL     1      43.898   4.746  10.929  0.00  0.00    +0.000 A 
ATOM     17  C   UNL     1      43.214   3.708  11.548  0.00  0.00    +0.000 A 
ATOM     18  N   UNL     1      43.294   2.420  11.158  0.00  0.00    +0.000 NA
ATOM     19  C   UNL     1      44.101   2.150  10.102  0.00  0.00    +0.000 A 
ATOM     20  C   UNL     1      44.848   3.094   9.394  0.00  0.00    +0.000 A 
ATOM     21  C   UNL     1      44.714   4.421   9.835  0.00  0.00    +0.000 A 
BRANCH  20  22
ATOM     22  C   UNL     1      45.739   2.717   8.271  0.00  0.00    +0.000 A 
ATOM     23  C   UNL     1      46.294   1.428   8.168  0.00  0.00    +0.000 A 
ATOM     24  C   UNL     1      47.092   1.059   7.079  0.00  0.00    +0.000 A 
ATOM     25  C   UNL     1      47.369   1.978   6.073  0.00  0.00    +0.000 A 
ATOM     26  C   UNL     1      46.853   3.265   6.158  0.00  0.00    +0.000 A 
ATOM     27  C   UNL     1      46.047   3.628   7.243  0.00  0.00    +0.000 A 
ENDBRANCH  20  22
ENDBRANCH  15  16
ENDBRANCH   1  15
TORSDOF 5
ENDMDL
MODEL 6
REMARK VINA RESULT:    -7.454      2.698      6.861
REMARK INTER + INTRA:         -10.357
REMARK INTER:                  -9.416
REMARK INTRA:                  -0.941
REMARK UNBOUND:                -0.724
REMARK  Name = 
REMARK  5 active torsions:
REMARK  status: ('A' for Active; 'I' for Inactive)
REMARK    1  A    between atoms: C_2  and  C_4
REMARK    2  A    between atoms: N_8  and  C_9
REMARK    3  A    between atoms: C_9  and  C_10
REMARK    4  A    between atoms: C_10  and  C_11
REMARK    5  A    between atoms: C_15  and  C_16
REMARK                            x       y       z     vdW  Elec       q    Type
REMARK                         _______ _______ _______ _____ _____    ______ ____
ROOT
ATOM      1  C   UNL     1      44.347   4.056  13.367  0.00  0.00    +0.000 C 
ENDROOT
BRANCH   1   6
ATOM      2  C   UNL     1      48.166   7.292  12.361  0.00  0.00    +0.000 A 
ATOM      3  C   UNL     1      46.879   7.189  11.851  0.00  0.00    +0.000 A 
ATOM      4  C   UNL     1      46.046   6.175  12.316  0.00  0.00    +0.000 A 
ATOM      5  C   UNL     1      46.503   5.277  13.279  0.00  0.00    +0.000 A 
ATOM      6  N   UNL     1      45.718   4.265  13.780  0.00  0.00    +0.000 N 
ATOM      7  N   UNL     1      47.755   5.357  13.766  0.00  0.00    +0.000 NA
ATOM      8  C   UNL     1      48.566   6.347  13.295  0.00  0.00    +0.000 A 
ATOM      9  H   UNL     1      46.166   3.692  14.485  0.00  0.00    +0.000 HD
BRANCH   2  11
ATOM     10  N   UNL     1      48.559   9.549  11.570  0.00  0.00    +0.000 N 
ATOM     11  C   UNL     1      49.101   8.346  11.928  0.00  0.00    +0.000 C 
ATOM     12  O   UNL     1      50.312   8.165  11.915  0.00  0.00    +0.000 OA
ATOM     13  H   UNL     1      49.207  10.297  11.357  0.00  0.00    +0.000 HD
ATOM     14  H   UNL     1      47.607   9.810  11.790  0.00  0.00    +0.000 HD
ENDBRANCH   2  11
ENDBRANCH   1   6
BRANCH   1  15
ATOM     15  C   UNL     1      44.197   2.875  12.408  0.00  0.00    +0.000 C 
BRANCH  15  16
ATOM     16  C   UNL     1      44.279   3.347  10.978  0.00  0.00    +0.000 A 
ATOM     17  C   UNL     1      43.566   4.460  10.551  0.00  0.00    +0.000 A 
ATOM     18  N   UNL     1      43.640   4.966   9.303  0.00  0.00    +0.000 NA
ATOM     19  C   UNL     1      44.460   4.326   8.433  0.00  0.00    +0.000 A 
ATOM     20  C   UNL     1      45.227   3.196   8.727  0.00  0.00    +0.000 A 
ATOM     21  C   UNL     1      45.122   2.724  10.046  0.00  0.00    +0.000 A 
BRANCH  20  22
ATOM     22  C   UNL     1      46.074   2.528   7.711  0.00  0.00    +0.000 A 
ATOM     23  C   UNL     1      46.493   1.193   7.860  0.00  0.00    +0.000 A 
ATOM     24  C   UNL     1      47.249   0.548   6.873  0.00  0.00    +0.000 A 
ATOM     25  C   UNL     1      47.618   1.230   5.719  0.00  0.00    +0.000 A 
ATOM     26  C   UNL     1      47.237   2.556   5.554  0.00  0.00    +0.000 A 
ATOM     27  C   UNL     1      46.473   3.195   6.537  0.00  0.00    +0.000 A 
ENDBRANCH  20  22
ENDBRANCH  15  16
ENDBRANCH   1  15
TORSDOF 5
ENDMDL
MODEL 7
REMARK VINA RESULT:    -7.406      1.575      2.178
REMARK INTER + INTRA:         -10.295
REMARK INTER:                  -9.710
REMARK INTRA:                  -0.586
REMARK UNBOUND:                -0.724
REMARK  Name = 
REMARK  5 active torsions:
REMARK  status: ('A' for Active; 'I' for Inactive)
REMARK    1  A    between atoms: C_2  and  C_4
REMARK    2  A    between atoms: N_8  and  C_9
REMARK    3  A    between atoms: C_9  and  C_10
REMARK    4  A    between atoms: C_10  and  C_11
REMARK    5  A    between atoms: C_15  and  C_16
REMARK                            x       y       z     vdW  Elec       q    Type
REMARK                         _______ _______ _______ _____ _____    ______ ____
ROOT
ATOM      1  C   UNL     1      43.671   3.241  10.961  0.00  0.00    +0.000 C 
ENDROOT
BRANCH   1   6
ATOM      2  C   UNL     1      46.715   2.218   6.991  0.00  0.00    +0.000 A 
ATOM      3  C   UNL     1      46.283   1.438   8.054  0.00  0.00    +0.000 A 
ATOM      4  C   UNL     1      45.448   2.002   9.015  0.00  0.00    +0.000 A 
ATOM      5  C   UNL     1      45.056   3.336   8.908  0.00  0.00    +0.000 A 
ATOM      6  N   UNL     1      44.224   3.939   9.821  0.00  0.00    +0.000 N 
ATOM      7  N   UNL     1      45.485   4.107   7.891  0.00  0.00    +0.000 NA
ATOM      8  C   UNL     1      46.311   3.546   6.962  0.00  0.00    +0.000 A 
ATOM      9  H   UNL     1      44.007   4.907   9.620  0.00  0.00    +0.000 HD
BRANCH   2  11
ATOM     10  N   UNL     1      47.008   0.873   4.998  0.00  0.00    +0.000 N 
ATOM     11  C   UNL     1      47.589   1.688   5.929  0.00  0.00    +0.000 C 
ATOM     12  O   UNL     1      48.775   1.985   5.865  0.00  0.00    +0.000 OA
ATOM     13  H   UNL     1      47.589   0.580   4.222  0.00  0.00    +0.000 HD
ATOM     14  H   UNL     1      46.007   0.798   4.880  0.00  0.00    +0.000 HD
ENDBRANCH   2  11
ENDBRANCH   1   6
BRANCH   1  15
ATOM     15  C   UNL     1      43.227   4.190  12.074  0.00  0.00    +0.000 C 
BRANCH  15  16
ATOM     16  C   UNL     1      44.329   5.167  12.400  0.00  0.00    +0.000 A 
ATOM     17  C   UNL     1      45.460   4.761  13.096  0.00  0.00    +0.000 A 
ATOM     18  N   UNL     1      46.504   5.570  13.370  0.00  0.00    +0.000 NA
ATOM     19  C   UNL     1      46.414   6.851  12.935  0.00  0.00    +0.000 A 
ATOM     20  C   UNL     1      45.335   7.392  12.230  0.00  0.00    +0.000 A 
ATOM     21  C   UNL     1      44.284   6.498  11.961  0.00  0.00    +0.000 A 
BRANCH  20  22
ATOM     22  C   UNL     1      45.292   8.814  11.819  0.00  0.00    +0.000 A 
ATOM     23  C   UNL     1      44.217   9.336  11.075  0.00  0.00    +0.000 A 
ATOM     24  C   UNL     1      44.154  10.692  10.733  0.00  0.00    +0.000 A 
ATOM     25  C   UNL     1      45.174  11.557  11.112  0.00  0.00    +0.000 A 
ATOM     26  C   UNL     1      46.260  11.066  11.827  0.00  0.00    +0.000 A 
ATOM     27  C   UNL     1      46.316   9.712  12.177  0.00  0.00    +0.000 A 
ENDBRANCH  20  22
ENDBRANCH  15  16
ENDBRANCH   1  15
TORSDOF 5
ENDMDL
MODEL 8
REMARK VINA RESULT:    -7.129      3.579      7.568
REMARK INTER + INTRA:          -9.936
REMARK INTER:                  -9.368
REMARK INTRA:                  -0.568
REMARK UNBOUND:                -0.724
REMARK  Name = 
REMARK  5 active torsions:
REMARK  status: ('A' for Active; 'I' for Inactive)
REMARK    1  A    between atoms: C_2  and  C_4
REMARK    2  A    between atoms: N_8  and  C_9
REMARK    3  A    between atoms: C_9  and  C_10
REMARK    4  A    between atoms: C_10  and  C_11
REMARK    5  A    between atoms: C_15  and  C_16
REMARK                            x       y       z     vdW  Elec       q    Type
REMARK                         _______ _______ _______ _____ _____    ______ ____
ROOT
ATOM      1  C   UNL     1      45.732   6.695  12.248  0.00  0.00    +0.000 C 
ENDROOT
BRANCH   1   6
ATOM      2  C   UNL     1      50.291   7.693  14.321  0.00  0.00    +0.000 A 
ATOM      3  C   UNL     1      49.138   7.124  14.844  0.00  0.00    +0.000 A 
ATOM      4  C   UNL     1      48.019   6.987  14.028  0.00  0.00    +0.000 A 
ATOM      5  C   UNL     1      48.059   7.419  12.703  0.00  0.00    +0.000 A 
ATOM      6  N   UNL     1      46.987   7.297  11.851  0.00  0.00    +0.000 N 
ATOM      7  N   UNL     1      49.166   7.989  12.191  0.00  0.00    +0.000 NA
ATOM      8  C   UNL     1      50.252   8.128  13.003  0.00  0.00    +0.000 A 
ATOM      9  H   UNL     1      47.153   7.637  10.912  0.00  0.00    +0.000 HD
BRANCH   2  11
ATOM     10  N   UNL     1      52.689   7.435  14.554  0.00  0.00    +0.000 N 
ATOM     11  C   UNL     1      51.519   7.860  15.119  0.00  0.00    +0.000 C 
ATOM     12  O   UNL     1      51.499   8.381  16.227  0.00  0.00    +0.000 OA
ATOM     13  H   UNL     1      53.540   7.628  15.066  0.00  0.00    +0.000 HD
ATOM     14  H   UNL     1      52.779   7.224  13.569  0.00  0.00    +0.000 HD
ENDBRANCH   2  11
ENDBRANCH   1   6
BRANCH   1  15
ATOM     15  C   UNL     1      44.744   6.576  11.087  0.00  0.00    +0.000 C 
BRANCH  15  16
ATOM     16  C   UNL     1      44.607   5.135  10.662  0.00  0.00    +0.000 A 
ATOM     17  C   UNL     1      43.721   4.281  11.306  0.00  0.00    +0.000 A 
ATOM     18  N   UNL     1      43.511   3.001  10.939  0.00  0.00    +0.000 NA
ATOM     19  C   UNL     1      44.226   2.544   9.881  0.00  0.00    +0.000 A 
ATOM     20  C   UNL     1      45.152   3.291   9.149  0.00  0.00    +0.000 A 
ATOM     21  C   UNL     1      45.318   4.622   9.567  0.00  0.00    +0.000 A 
BRANCH  20  22
ATOM     22  C   UNL     1      45.924   2.711   8.025  0.00  0.00    +0.000 A 
ATOM     23  C   UNL     1      46.236   3.463   6.877  0.00  0.00    +0.000 A 
ATOM     24  C   UNL     1      47.010   2.929   5.840  0.00  0.00    +0.000 A 
ATOM     25  C   UNL     1      47.478   1.623   5.919  0.00  0.00    +0.000 A 
ATOM     26  C   UNL     1      47.168   0.848   7.031  0.00  0.00    +0.000 A 
ATOM     27  C   UNL     1      46.403   1.388   8.070  0.00  0.00    +0.000 A 
ENDBRANCH  20  22
ENDBRANCH  15  16
ENDBRANCH   1  15
TORSDOF 5
ENDMDL
MODEL 9
REMARK VINA RESULT:    -6.755      5.005      7.330
REMARK INTER + INTRA:          -9.454
REMARK INTER:                  -8.593
REMARK INTRA:                  -0.861
REMARK UNBOUND:                -0.724
REMARK  Name = 
REMARK  5 active torsions:
REMARK  status: ('A' for Active; 'I' for Inactive)
REMARK    1  A    between atoms: C_2  and  C_4
REMARK    2  A    between atoms: N_8  and  C_9
REMARK    3  A    between atoms: C_9  and  C_10
REMARK    4  A    between atoms: C_10  and  C_11
REMARK    5  A    between atoms: C_15  and  C_16
REMARK                            x       y       z     vdW  Elec       q    Type
REMARK                         _______ _______ _______ _____ _____    ______ ____
ROOT
ATOM      1  C   UNL     1      48.740   6.874  14.711  0.00  0.00    +0.000 C 
ENDROOT
BRANCH   1   6
ATOM      2  C   UNL     1      44.766   4.502  12.554  0.00  0.00    +0.000 A 
ATOM      3  C   UNL     1      45.935   4.020  13.127  0.00  0.00    +0.000 A 
ATOM      4  C   UNL     1      46.864   4.924  13.634  0.00  0.00    +0.000 A 
ATOM      5  C   UNL     1      46.620   6.295  13.563  0.00  0.00    +0.000 A 
ATOM      6  N   UNL     1      47.498   7.230  14.059  0.00  0.00    +0.000 N 
ATOM      7  N   UNL     1      45.498   6.773  12.994  0.00  0.00    +0.000 NA
ATOM      8  C   UNL     1      44.601   5.878  12.490  0.00  0.00    +0.000 A 
ATOM      9  H   UNL     1      47.194   8.191  13.956  0.00  0.00    +0.000 HD
BRANCH   2  11
ATOM     10  N   UNL     1      43.700   2.327  12.488  0.00  0.00    +0.000 N 
ATOM     11  C   UNL     1      43.730   3.607  12.008  0.00  0.00    +0.000 C 
ATOM     12  O   UNL     1      42.913   3.996  11.183  0.00  0.00    +0.000 OA
ATOM     13  H   UNL     1      42.936   1.740  12.177  0.00  0.00    +0.000 HD
ATOM     14  H   UNL     1      44.192   2.041  13.324  0.00  0.00    +0.000 HD
ENDBRANCH   2  11
ENDBRANCH   1   6
BRANCH   1  15
ATOM     15  C   UNL     1      48.656   6.979  16.234  0.00  0.00    +0.000 C 
BRANCH  15  16
ATOM     16  C   UNL     1      48.721   5.607  16.858  0.00  0.00    +0.000 A 
ATOM     17  C   UNL     1      47.567   4.955  17.272  0.00  0.00    +0.000 A 
ATOM     18  N   UNL     1      47.552   3.708  17.784  0.00  0.00    +0.000 NA
ATOM     19  C   UNL     1      48.748   3.080  17.898  0.00  0.00    +0.000 A 
ATOM     20  C   UNL     1      49.983   3.620  17.527  0.00  0.00    +0.000 A 
ATOM     21  C   UNL     1      49.935   4.915  16.985  0.00  0.00    +0.000 A 
BRANCH  20  22
ATOM     22  C   UNL     1      51.256   2.886  17.715  0.00  0.00    +0.000 A 
ATOM     23  C   UNL     1      52.393   3.507  18.264  0.00  0.00    +0.000 A 
ATOM     24  C   UNL     1      53.578   2.797  18.490  0.00  0.00    +0.000 A 
ATOM     25  C   UNL     1      53.660   1.450  18.156  0.00  0.00    +0.000 A 
ATOM     26  C   UNL     1      52.560   0.814  17.592  0.00  0.00    +0.000 A 
ATOM     27  C   UNL     1      51.373   1.524  17.377  0.00  0.00    +0.000 A 
ENDBRANCH  20  22
ENDBRANCH  15  16
ENDBRANCH   1  15
TORSDOF 5
ENDMDL
