MODEL 1
REMARK VINA RESULT:    -7.902      0.000      0.000
REMARK INTER + INTRA:         -10.786
REMARK INTER:                 -10.211
REMARK INTRA:                  -0.575
REMARK UNBOUND:                -0.575
REMARK  Name = 
REMARK  5 active torsions:
REMARK  status: ('A' for Active; 'I' for Inactive)
REMARK    1  A    between atoms: C_2  and  C_4
REMARK    2  A    between atoms: C_7  and  N_8
REMARK    3  A    between atoms: N_8  and  C_9
REMARK    4  A    between atoms: C_9  and  C_10
REMARK    5  A    between atoms: C_14  and  N_15
REMARK                            x       y       z     vdW  Elec       q    Type
REMARK                         _______ _______ _______ _____ _____    ______ ____
ROOT
ATOM      1  N   UNL     1      43.937   4.704   9.646  0.00  0.00    +0.000 N 
ATOM      2  H   UNL     1      43.120   4.871   9.066  0.00  0.00    +0.000 HD
ENDROOT
BRANCH   1   6
ATOM      3  C   UNL     1      46.609   2.474   7.462  0.00  0.00    +0.000 A 
ATOM      4  C   UNL     1      46.613   3.857   7.382  0.00  0.00    +0.000 A 
ATOM      5  N   UNL     1      45.774   4.639   8.116  0.00  0.00    +0.000 NA
ATOM      6  C   UNL     1      44.922   4.002   8.945  0.00  0.00    +0.000 A 
ATOM      7  C   UNL     1      44.949   2.600   9.023  0.00  0.00    +0.000 A 
ATOM      8  N   UNL     1      45.777   1.799   8.299  0.00  0.00    +0.000 NA
BRANCH   3  10
ATOM      9  N   UNL     1      48.660   2.292   6.175  0.00  0.00    +0.000 N 
ATOM     10  C   UNL     1      47.511   1.675   6.586  0.00  0.00    +0.000 C 
ATOM     11  O   UNL     1      47.251   0.520   6.267  0.00  0.00    +0.000 OA
ATOM     12  H   UNL     1      49.331   1.764   5.635  0.00  0.00    +0.000 HD
ATOM     13  H   UNL     1      48.902   3.211   6.527  0.00  0.00    +0.000 HD
ENDBRANCH   3  10
ENDBRANCH   1   6
BRANCH   1  14
ATOM     14  C   UNL     1      43.579   4.203  10.968  0.00  0.00    +0.000 C 
BRANCH  14  15
ATOM     15  C   UNL     1      44.733   4.428  11.911  0.00  0.00    +0.000 A 
ATOM     16  C   UNL     1      45.295   3.386  12.634  0.00  0.00    +0.000 A 
ATOM     17  N   UNL     1      46.360   3.525  13.448  0.00  0.00    +0.000 NA
ATOM     18  C   UNL     1      46.893   4.771  13.538  0.00  0.00    +0.000 A 
ATOM     19  C   UNL     1      46.435   5.911  12.870  0.00  0.00    +0.000 A 
ATOM     20  C   UNL     1      45.324   5.697  12.046  0.00  0.00    +0.000 A 
BRANCH  19  21
ATOM     21  N   UNL     1      47.032   7.143  13.003  0.00  0.00    +0.000 N 
ATOM     22  C   UNL     1      46.282   8.391  13.209  0.00  0.00    +0.000 C 
ATOM     23  C   UNL     1      46.634   9.404  12.111  0.00  0.00    +0.000 C 
ATOM     24  O   UNL     1      48.055   9.618  12.023  0.00  0.00    +0.000 OA
ATOM     25  C   UNL     1      48.728   8.382  11.732  0.00  0.00    +0.000 C 
ATOM     26  C   UNL     1      48.482   7.329  12.828  0.00  0.00    +0.000 C 
ENDBRANCH  19  21
ENDBRANCH  14  15
ENDBRANCH   1  14
TORSDOF 5
ENDMDL
MODEL 2
REMARK VINA RESULT:    -7.466      1.866      2.715
REMARK INTER + INTRA:         -10.223
REMARK INTER:                  -9.580
REMARK INTRA:                  -0.643
REMARK UNBOUND:                -0.575
REMARK  Name = 
REMARK  5 active torsions:
REMARK  status: ('A' for Active; 'I' for Inactive)
REMARK    1  A    between atoms: C_2  and  C_4
REMARK    2  A    between atoms: C_7  and  N_8
REMARK    3  A    between atoms: N_8  and  C_9
REMARK    4  A    between atoms: C_9  and  C_10
REMARK    5  A    between atoms: C_14  and  N_15
REMARK                            x       y       z     vdW  Elec       q    Type
REMARK                         _______ _______ _______ _____ _____    ______ ____
ROOT
ATOM      1  N   UNL     1      43.619   4.008   9.716  0.00  0.00    +0.000 N 
ATOM      2  H   UNL     1      42.732   3.695   9.333  0.00  0.00    +0.000 HD
ENDROOT
BRANCH   1   6
ATOM      3  C   UNL     1      46.600   2.339   7.433  0.00  0.00    +0.000 A 
ATOM      4  C   UNL     1      46.237   3.665   7.259  0.00  0.00    +0.000 A 
ATOM      5  N   UNL     1      45.283   4.272   8.018  0.00  0.00    +0.000 NA
ATOM      6  C   UNL     1      44.695   3.517   8.970  0.00  0.00    +0.000 A 
ATOM      7  C   UNL     1      45.093   2.181   9.140  0.00  0.00    +0.000 A 
ATOM      8  N   UNL     1      46.042   1.555   8.392  0.00  0.00    +0.000 NA
BRANCH   3  10
ATOM      9  N   UNL     1      48.789   2.393   6.383  0.00  0.00    +0.000 N 
ATOM     10  C   UNL     1      47.608   1.720   6.528  0.00  0.00    +0.000 C 
ATOM     11  O   UNL     1      47.402   0.652   5.960  0.00  0.00    +0.000 OA
ATOM     12  H   UNL     1      49.525   1.975   5.831  0.00  0.00    +0.000 HD
ATOM     13  H   UNL     1      48.977   3.223   6.934  0.00  0.00    +0.000 HD
ENDBRANCH   3  10
ENDBRANCH   1   6
BRANCH   1  14
ATOM     14  C   UNL     1      43.684   3.838  11.163  0.00  0.00    +0.000 C 
BRANCH  14  15
ATOM     15  C   UNL     1      44.526   4.940  11.754  0.00  0.00    +0.000 A 
ATOM     16  C   UNL     1      44.262   6.276  11.492  0.00  0.00    +0.000 A 
ATOM     17  N   UNL     1      44.950   7.299  12.038  0.00  0.00    +0.000 NA
ATOM     18  C   UNL     1      45.950   6.965  12.894  0.00  0.00    +0.000 A 
ATOM     19  C   UNL     1      46.327   5.666  13.251  0.00  0.00    +0.000 A 
ATOM     20  C   UNL     1      45.575   4.653  12.645  0.00  0.00    +0.000 A 
BRANCH  19  21
ATOM     21  N   UNL     1      47.348   5.403  14.135  0.00  0.00    +0.000 N 
ATOM     22  C   UNL     1      47.375   4.227  15.018  0.00  0.00    +0.000 C 
ATOM     23  C   UNL     1      47.509   4.671  16.481  0.00  0.00    +0.000 C 
ATOM     24  O   UNL     1      48.645   5.536  16.671  0.00  0.00    +0.000 OA
ATOM     25  C   UNL     1      48.521   6.709  15.851  0.00  0.00    +0.000 C 
ATOM     26  C   UNL     1      48.452   6.353  14.355  0.00  0.00    +0.000 C 
ENDBRANCH  19  21
ENDBRANCH  14  15
ENDBRANCH   1  14
TORSDOF 5
ENDMDL
MODEL 3
REMARK VINA RESULT:    -7.442      1.237      1.777
REMARK INTER + INTRA:         -10.191
REMARK INTER:                  -9.574
REMARK INTRA:                  -0.618
REMARK UNBOUND:                -0.575
REMARK  Name = 
REMARK  5 active torsions:
REMARK  status: ('A' for Active; 'I' for Inactive)
REMARK    1  A    between atoms: C_2  and  C_4
REMARK    2  A    between atoms: C_7  and  N_8
REMARK    3  A    between atoms: N_8  and  C_9
REMARK    4  A    between atoms: C_9  and  C_10
REMARK    5  A    between atoms: C_14  and  N_15
REMARK                            x       y       z     vdW  Elec       q    Type
REMARK                         _______ _______ _______ _____ _____    ______ ____
ROOT
ATOM      1  N   UNL     1      43.969   3.351  10.114  0.00  0.00    +0.000 N 
ATOM      2  H   UNL     1      43.991   2.700  10.894  0.00  0.00    +0.000 HD
ENDROOT
BRANCH   1   6
ATOM      3  C   UNL     1      46.727   2.381   7.226  0.00  0.00    +0.000 A 
ATOM      4  C   UNL     1      46.195   1.403   8.050  0.00  0.00    +0.000 A 
ATOM      5  N   UNL     1      45.250   1.670   8.994  0.00  0.00    +0.000 NA
ATOM      6  C   UNL     1      44.840   2.951   9.096  0.00  0.00    +0.000 A 
ATOM      7  C   UNL     1      45.380   3.922   8.237  0.00  0.00    +0.000 A 
ATOM      8  N   UNL     1      46.326   3.678   7.289  0.00  0.00    +0.000 NA
BRANCH   3  10
ATOM      9  N   UNL     1      48.909   2.837   6.262  0.00  0.00    +0.000 N 
ATOM     10  C   UNL     1      47.803   2.033   6.257  0.00  0.00    +0.000 C 
ATOM     11  O   UNL     1      47.714   1.065   5.509  0.00  0.00    +0.000 OA
ATOM     12  H   UNL     1      49.690   2.597   5.667  0.00  0.00    +0.000 HD
ATOM     13  H   UNL     1      49.003   3.573   6.952  0.00  0.00    +0.000 HD
ENDBRANCH   3  10
ENDBRANCH   1   6
BRANCH   1  14
ATOM     14  C   UNL     1      44.056   4.738  10.554  0.00  0.00    +0.000 C 
BRANCH  14  15
ATOM     15  C   UNL     1      45.053   4.839  11.680  0.00  0.00    +0.000 A 
ATOM     16  C   UNL     1      45.175   3.840  12.634  0.00  0.00    +0.000 A 
ATOM     17  N   UNL     1      46.086   3.857  13.628  0.00  0.00    +0.000 NA
ATOM     18  C   UNL     1      46.921   4.928  13.663  0.00  0.00    +0.000 A 
ATOM     19  C   UNL     1      46.915   6.005  12.771  0.00  0.00    +0.000 A 
ATOM     20  C   UNL     1      45.942   5.925  11.768  0.00  0.00    +0.000 A 
BRANCH  19  21
ATOM     21  N   UNL     1      47.799   7.054  12.864  0.00  0.00    +0.000 N 
ATOM     22  C   UNL     1      48.468   7.658  11.702  0.00  0.00    +0.000 C 
ATOM     23  C   UNL     1      49.990   7.609  11.886  0.00  0.00    +0.000 C 
ATOM     24  O   UNL     1      50.394   8.207  13.131  0.00  0.00    +0.000 OA
ATOM     25  C   UNL     1      49.781   7.521  14.235  0.00  0.00    +0.000 C 
ATOM     26  C   UNL     1      48.245   7.585  14.163  0.00  0.00    +0.000 C 
ENDBRANCH  19  21
ENDBRANCH  14  15
ENDBRANCH   1  14
TORSDOF 5
ENDMDL
MODEL 4
REMARK VINA RESULT:    -6.969      2.718      3.778
REMARK INTER + INTRA:          -9.581
REMARK INTER:                  -9.126
REMARK INTRA:                  -0.455
REMARK UNBOUND:                -0.575
REMARK  Name = 
REMARK  5 active torsions:
REMARK  status: ('A' for Active; 'I' for Inactive)
REMARK    1  A    between atoms: C_2  and  C_4
REMARK    2  A    between atoms: C_7  and  N_8
REMARK    3  A    between atoms: N_8  and  C_9
REMARK    4  A    between atoms: C_9  and  C_10
REMARK    5  A    between atoms: C_14  and  N_15
REMARK                            x       y       z     vdW  Elec       q    Type
REMARK                         _______ _______ _______ _____ _____    ______ ____
ROOT
ATOM      1  N   UNL     1      44.397   3.890  10.850  0.00  0.00    +0.000 N 
ATOM      2  H   UNL     1      43.384   3.850  10.787  0.00  0.00    +0.000 HD
ENDROOT
BRANCH   1   6
ATOM      3  C   UNL     1      46.388   2.895   7.396  0.00  0.00    +0.000 A 
ATOM      4  C   UNL     1      45.984   1.913   8.286  0.00  0.00    +0.000 A 
ATOM      5  N   UNL     1      45.288   2.191   9.423  0.00  0.00    +0.000 NA
ATOM      6  C   UNL     1      44.996   3.488   9.653  0.00  0.00    +0.000 A 
ATOM      7  C   UNL     1      45.399   4.464   8.727  0.00  0.00    +0.000 A 
ATOM      8  N   UNL     1      46.096   4.209   7.587  0.00  0.00    +0.000 NA
BRANCH   3  10
ATOM      9  N   UNL     1      48.472   2.089   6.446  0.00  0.00    +0.000 N 
ATOM     10  C   UNL     1      47.200   2.529   6.203  0.00  0.00    +0.000 C 
ATOM     11  O   UNL     1      46.749   2.596   5.064  0.00  0.00    +0.000 OA
ATOM     12  H   UNL     1      49.034   1.767   5.670  0.00  0.00    +0.000 HD
ATOM     13  H   UNL     1      48.792   1.950   7.398  0.00  0.00    +0.000 HD
ENDBRANCH   3  10
ENDBRANCH   1   6
BRANCH   1  14
ATOM     14  C   UNL     1      44.895   3.281  12.078  0.00  0.00    +0.000 C 
BRANCH  14  15
ATOM     15  C   UNL     1      45.812   4.253  12.776  0.00  0.00    +0.000 A 
ATOM     16  C   UNL     1      46.122   5.485  12.222  0.00  0.00    +0.000 A 
ATOM     17  N   UNL     1      46.892   6.410  12.831  0.00  0.00    +0.000 NA
ATOM     18  C   UNL     1      47.370   6.084  14.059  0.00  0.00    +0.000 A 
ATOM     19  C   UNL     1      47.140   4.884  14.739  0.00  0.00    +0.000 A 
ATOM     20  C   UNL     1      46.338   3.968  14.049  0.00  0.00    +0.000 A 
BRANCH  19  21
ATOM     21  N   UNL     1      47.652   4.626  15.990  0.00  0.00    +0.000 N 
ATOM     22  C   UNL     1      48.515   5.563  16.723  0.00  0.00    +0.000 C 
ATOM     23  C   UNL     1      49.841   4.881  17.089  0.00  0.00    +0.000 C 
ATOM     24  O   UNL     1      49.624   3.650  17.804  0.00  0.00    +0.000 OA
ATOM     25  C   UNL     1      48.852   2.740  17.004  0.00  0.00    +0.000 C 
ATOM     26  C   UNL     1      47.471   3.322  16.651  0.00  0.00    +0.000 C 
ENDBRANCH  19  21
ENDBRANCH  14  15
ENDBRANCH   1  14
TORSDOF 5
ENDMDL
MODEL 5
REMARK VINA RESULT:    -6.897      3.604      8.296
REMARK INTER + INTRA:          -9.488
REMARK INTER:                  -9.040
REMARK INTRA:                  -0.448
REMARK UNBOUND:                -0.575
REMARK  Name = 
REMARK  5 active torsions:
REMARK  status: ('A' for Active; 'I' for Inactive)
REMARK    1  A    between atoms: C_2  and  C_4
REMARK    2  A    between atoms: C_7  and  N_8
REMARK    3  A    between atoms: N_8  and  C_9
REMARK    4  A    between atoms: C_9  and  C_10
REMARK    5  A    between atoms: C_14  and  N_15
REMARK                            x       y       z     vdW  Elec       q    Type
REMARK                         _______ _______ _______ _____ _____    ______ ____
ROOT
ATOM      1  N   UNL     1      46.838   3.690  14.504  0.00  0.00    +0.000 N 
ATOM      2  H   UNL     1      46.087   3.008  14.562  0.00  0.00    +0.000 HD
ENDROOT
BRANCH   1   6
ATOM      3  C   UNL     1      48.458   4.454  18.201  0.00  0.00    +0.000 A 
ATOM      4  C   UNL     1      48.020   3.182  17.873  0.00  0.00    +0.000 A 
ATOM      5  N   UNL     1      47.512   2.872  16.648  0.00  0.00    +0.000 NA
ATOM      6  C   UNL     1      47.456   3.873  15.744  0.00  0.00    +0.000 A 
ATOM      7  C   UNL     1      47.923   5.150  16.094  0.00  0.00    +0.000 A 
ATOM      8  N   UNL     1      48.432   5.482  17.312  0.00  0.00    +0.000 NA
BRANCH   3  10
ATOM      9  N   UNL     1      48.545   3.871  20.557  0.00  0.00    +0.000 N 
ATOM     10  C   UNL     1      48.945   4.740  19.580  0.00  0.00    +0.000 C 
ATOM     11  O   UNL     1      49.682   5.689  19.825  0.00  0.00    +0.000 OA
ATOM     12  H   UNL     1      48.906   3.990  21.494  0.00  0.00    +0.000 HD
ATOM     13  H   UNL     1      48.015   3.040  20.318  0.00  0.00    +0.000 HD
ENDBRANCH   3  10
ENDBRANCH   1   6
BRANCH   1  14
ATOM     14  C   UNL     1      46.433   4.890  13.782  0.00  0.00    +0.000 C 
BRANCH  14  15
ATOM     15  C   UNL     1      45.273   4.557  12.878  0.00  0.00    +0.000 A 
ATOM     16  C   UNL     1      43.962   4.795  13.260  0.00  0.00    +0.000 A 
ATOM     17  N   UNL     1      42.894   4.566  12.469  0.00  0.00    +0.000 NA
ATOM     18  C   UNL     1      43.156   4.077  11.230  0.00  0.00    +0.000 A 
ATOM     19  C   UNL     1      44.422   3.790  10.710  0.00  0.00    +0.000 A 
ATOM     20  C   UNL     1      45.484   4.047  11.584  0.00  0.00    +0.000 A 
BRANCH  19  21
ATOM     21  N   UNL     1      44.612   3.303   9.437  0.00  0.00    +0.000 N 
ATOM     22  C   UNL     1      44.655   1.869   9.114  0.00  0.00    +0.000 C 
ATOM     23  C   UNL     1      45.975   1.526   8.411  0.00  0.00    +0.000 C 
ATOM     24  O   UNL     1      46.196   2.362   7.259  0.00  0.00    +0.000 OA
ATOM     25  C   UNL     1      46.233   3.745   7.647  0.00  0.00    +0.000 C 
ATOM     26  C   UNL     1      44.912   4.189   8.300  0.00  0.00    +0.000 C 
ENDBRANCH  19  21
ENDBRANCH  14  15
ENDBRANCH   1  14
TORSDOF 5
ENDMDL
MODEL 6
REMARK VINA RESULT:    -6.666      4.469      7.820
REMARK INTER + INTRA:          -9.189
REMARK INTER:                  -8.621
REMARK INTRA:                  -0.568
REMARK UNBOUND:                -0.575
REMARK  Name = 
REMARK  5 active torsions:
REMARK  status: ('A' for Active; 'I' for Inactive)
REMARK    1  A    between atoms: C_2  and  C_4
REMARK    2  A    between atoms: C_7  and  N_8
REMARK    3  A    between atoms: N_8  and  C_9
REMARK    4  A    between atoms: C_9  and  C_10
REMARK    5  A    between atoms: C_14  and  N_15
REMARK                            x       y       z     vdW  Elec       q    Type
REMARK                         _______ _______ _______ _____ _____    ______ ____
ROOT
ATOM      1  N   UNL     1      47.795   4.955  15.987  0.00  0.00    +0.000 N 
ATOM      2  H   UNL     1      47.048   5.115  16.657  0.00  0.00    +0.000 HD
ENDROOT
BRANCH   1   6
ATOM      3  C   UNL     1      50.715   2.355  17.250  0.00  0.00    +0.000 A 
ATOM      4  C   UNL     1      50.812   3.710  17.522  0.00  0.00    +0.000 A 
ATOM      5  N   UNL     1      49.850   4.603  17.158  0.00  0.00    +0.000 NA
ATOM      6  C   UNL     1      48.775   4.107  16.512  0.00  0.00    +0.000 A 
ATOM      7  C   UNL     1      48.691   2.727  16.264  0.00  0.00    +0.000 A 
ATOM      8  N   UNL     1      49.640   1.817  16.617  0.00  0.00    +0.000 NA
BRANCH   3  10
ATOM      9  N   UNL     1      51.475   0.221  18.127  0.00  0.00    +0.000 N 
ATOM     10  C   UNL     1      51.831   1.441  17.621  0.00  0.00    +0.000 C 
ATOM     11  O   UNL     1      53.007   1.753  17.462  0.00  0.00    +0.000 OA
ATOM     12  H   UNL     1      52.199  -0.455  18.329  0.00  0.00    +0.000 HD
ATOM     13  H   UNL     1      50.500  -0.054  18.160  0.00  0.00    +0.000 HD
ENDBRANCH   3  10
ENDBRANCH   1   6
BRANCH   1  14
ATOM     14  C   UNL     1      48.253   6.193  15.369  0.00  0.00    +0.000 C 
BRANCH  14  15
ATOM     15  C   UNL     1      47.652   6.311  13.991  0.00  0.00    +0.000 A 
ATOM     16  C   UNL     1      48.305   6.982  12.969  0.00  0.00    +0.000 A 
ATOM     17  N   UNL     1      47.837   7.069  11.708  0.00  0.00    +0.000 NA
ATOM     18  C   UNL     1      46.656   6.447  11.458  0.00  0.00    +0.000 A 
ATOM     19  C   UNL     1      45.890   5.735  12.387  0.00  0.00    +0.000 A 
ATOM     20  C   UNL     1      46.431   5.688  13.676  0.00  0.00    +0.000 A 
BRANCH  19  21
ATOM     21  N   UNL     1      44.703   5.120  12.059  0.00  0.00    +0.000 N 
ATOM     22  C   UNL     1      43.903   4.339  13.014  0.00  0.00    +0.000 C 
ATOM     23  C   UNL     1      43.680   2.919  12.476  0.00  0.00    +0.000 C 
ATOM     24  O   UNL     1      43.109   2.935  11.155  0.00  0.00    +0.000 OA
ATOM     25  C   UNL     1      43.976   3.634  10.246  0.00  0.00    +0.000 C 
ATOM     26  C   UNL     1      44.195   5.095  10.678  0.00  0.00    +0.000 C 
ENDBRANCH  19  21
ENDBRANCH  14  15
ENDBRANCH   1  14
TORSDOF 5
ENDMDL
MODEL 7
REMARK VINA RESULT:    -6.321      3.457      7.584
REMARK INTER + INTRA:          -8.744
REMARK INTER:                  -8.328
REMARK INTRA:                  -0.416
REMARK UNBOUND:                -0.575
REMARK  Name = 
REMARK  5 active torsions:
REMARK  status: ('A' for Active; 'I' for Inactive)
REMARK    1  A    between atoms: C_2  and  C_4
REMARK    2  A    between atoms: C_7  and  N_8
REMARK    3  A    between atoms: N_8  and  C_9
REMARK    4  A    between atoms: C_9  and  C_10
REMARK    5  A    between atoms: C_14  and  N_15
REMARK                            x       y       z     vdW  Elec       q    Type
REMARK                         _______ _______ _______ _____ _____    ______ ____
ROOT
ATOM      1  N   UNL     1      48.554   7.456  13.978  0.00  0.00    +0.000 N 
ATOM      2  H   UNL     1      49.385   8.015  14.144  0.00  0.00    +0.000 HD
ENDROOT
BRANCH   1   6
ATOM      3  C   UNL     1      48.125   4.572  16.874  0.00  0.00    +0.000 A 
ATOM      4  C   UNL     1      47.649   4.359  15.590  0.00  0.00    +0.000 A 
ATOM      5  N   UNL     1      47.802   5.269  14.589  0.00  0.00    +0.000 NA
ATOM      6  C   UNL     1      48.455   6.409  14.899  0.00  0.00    +0.000 A 
ATOM      7  C   UNL     1      48.945   6.593  16.202  0.00  0.00    +0.000 A 
ATOM      8  N   UNL     1      48.802   5.699  17.218  0.00  0.00    +0.000 NA
BRANCH   3  10
ATOM      9  N   UNL     1      46.831   2.700  17.720  0.00  0.00    +0.000 N 
ATOM     10  C   UNL     1      47.869   3.563  17.939  0.00  0.00    +0.000 C 
ATOM     11  O   UNL     1      48.564   3.492  18.947  0.00  0.00    +0.000 OA
ATOM     12  H   UNL     1      46.665   1.958  18.385  0.00  0.00    +0.000 HD
ATOM     13  H   UNL     1      46.331   2.714  16.839  0.00  0.00    +0.000 HD
ENDBRANCH   3  10
ENDBRANCH   1   6
BRANCH   1  14
ATOM     14  C   UNL     1      48.393   7.117  12.569  0.00  0.00    +0.000 C 
BRANCH  14  15
ATOM     15  C   UNL     1      46.941   7.259  12.188  0.00  0.00    +0.000 A 
ATOM     16  C   UNL     1      46.317   8.497  12.152  0.00  0.00    +0.000 A 
ATOM     17  N   UNL     1      45.039   8.684  11.767  0.00  0.00    +0.000 NA
ATOM     18  C   UNL     1      44.353   7.573  11.394  0.00  0.00    +0.000 A 
ATOM     19  C   UNL     1      44.851   6.266  11.378  0.00  0.00    +0.000 A 
ATOM     20  C   UNL     1      46.181   6.144  11.794  0.00  0.00    +0.000 A 
BRANCH  19  21
ATOM     21  N   UNL     1      44.097   5.186  10.978  0.00  0.00    +0.000 N 
ATOM     22  C   UNL     1      43.048   4.576  11.807  0.00  0.00    +0.000 C 
ATOM     23  C   UNL     1      43.338   3.083  12.010  0.00  0.00    +0.000 C 
ATOM     24  O   UNL     1      43.519   2.403  10.754  0.00  0.00    +0.000 OA
ATOM     25  C   UNL     1      44.614   2.983  10.026  0.00  0.00    +0.000 C 
ATOM     26  C   UNL     1      44.368   4.471   9.720  0.00  0.00    +0.000 C 
ENDBRANCH  19  21
ENDBRANCH  14  15
ENDBRANCH   1  14
TORSDOF 5
ENDMDL
MODEL 8
REMARK VINA RESULT:    -6.227      3.782      5.922
REMARK INTER + INTRA:          -8.622
REMARK INTER:                  -8.094
REMARK INTRA:                  -0.528
REMARK UNBOUND:                -0.575
REMARK  Name = 
REMARK  5 active torsions:
REMARK  status: ('A' for Active; 'I' for Inactive)
REMARK    1  A    between atoms: C_2  and  C_4
REMARK    2  A    between atoms: C_7  and  N_8
REMARK    3  A    between atoms: N_8  and  C_9
REMARK    4  A    between atoms: C_9  and  C_10
REMARK    5  A    between atoms: C_14  and  N_15
REMARK                            x       y       z     vdW  Elec       q    Type
REMARK                         _______ _______ _______ _____ _____    ______ ____
ROOT
ATOM      1  N   UNL     1      46.453   7.179  13.390  0.00  0.00    +0.000 N 
ATOM      2  H   UNL     1      46.424   7.056  14.398  0.00  0.00    +0.000 HD
ENDROOT
BRANCH   1   6
ATOM      3  C   UNL     1      44.666   3.906  11.665  0.00  0.00    +0.000 A 
ATOM      4  C   UNL     1      44.843   5.075  10.943  0.00  0.00    +0.000 A 
ATOM      5  N   UNL     1      45.464   6.172  11.460  0.00  0.00    +0.000 NA
ATOM      6  C   UNL     1      45.915   6.072  12.727  0.00  0.00    +0.000 A 
ATOM      7  C   UNL     1      45.741   4.870  13.432  0.00  0.00    +0.000 A 
ATOM      8  N   UNL     1      45.122   3.764  12.937  0.00  0.00    +0.000 NA
BRANCH   3  10
ATOM      9  N   UNL     1      44.446   2.239   9.913  0.00  0.00    +0.000 N 
ATOM     10  C   UNL     1      43.922   2.765  11.061  0.00  0.00    +0.000 C 
ATOM     11  O   UNL     1      42.909   2.306  11.576  0.00  0.00    +0.000 OA
ATOM     12  H   UNL     1      44.011   1.422   9.507  0.00  0.00    +0.000 HD
ATOM     13  H   UNL     1      45.336   2.570   9.557  0.00  0.00    +0.000 HD
ENDBRANCH   3  10
ENDBRANCH   1   6
BRANCH   1  14
ATOM     14  C   UNL     1      47.753   7.658  12.933  0.00  0.00    +0.000 C 
BRANCH  14  15
ATOM     15  C   UNL     1      48.791   7.348  13.982  0.00  0.00    +0.000 A 
ATOM     16  C   UNL     1      50.043   7.944  13.963  0.00  0.00    +0.000 A 
ATOM     17  N   UNL     1      50.985   7.742  14.906  0.00  0.00    +0.000 NA
ATOM     18  C   UNL     1      50.653   6.905  15.922  0.00  0.00    +0.000 A 
ATOM     19  C   UNL     1      49.433   6.237  16.071  0.00  0.00    +0.000 A 
ATOM     20  C   UNL     1      48.503   6.487  15.056  0.00  0.00    +0.000 A 
BRANCH  19  21
ATOM     21  N   UNL     1      49.163   5.408  17.135  0.00  0.00    +0.000 N 
ATOM     22  C   UNL     1      50.163   4.523  17.750  0.00  0.00    +0.000 C 
ATOM     23  C   UNL     1      49.668   3.071  17.725  0.00  0.00    +0.000 C 
ATOM     24  O   UNL     1      48.368   2.943  18.331  0.00  0.00    +0.000 OA
ATOM     25  C   UNL     1      47.412   3.761  17.635  0.00  0.00    +0.000 C 
ATOM     26  C   UNL     1      47.801   5.249  17.674  0.00  0.00    +0.000 C 
ENDBRANCH  19  21
ENDBRANCH  14  15
ENDBRANCH   1  14
TORSDOF 5
ENDMDL
MODEL 9
REMARK VINA RESULT:    -6.222      5.267      6.958
REMARK INTER + INTRA:          -8.616
REMARK INTER:                  -8.093
REMARK INTRA:                  -0.523
REMARK UNBOUND:                -0.575
REMARK  Name = 
REMARK  5 active torsions:
REMARK  status: ('A' for Active; 'I' for Inactive)
REMARK    1  A    between atoms: C_2  and  C_4
REMARK    2  A    between atoms: C_7  and  N_8
REMARK    3  A    between atoms: N_8  and  C_9
REMARK    4  A    between atoms: C_9  and  C_10
REMARK    5  A    between atoms: C_14  and  N_15
REMARK                            x       y       z     vdW  Elec       q    Type
REMARK                         _______ _______ _______ _____ _____    ______ ____
ROOT
ATOM      1  N   UNL     1      47.330   5.039  15.133  0.00  0.00    +0.000 N 
ATOM      2  H   UNL     1      47.348   6.032  15.346  0.00  0.00    +0.000 HD
ENDROOT
BRANCH   1   6
ATOM      3  C   UNL     1      45.117   4.410  11.729  0.00  0.00    +0.000 A 
ATOM      4  C   UNL     1      45.542   3.341  12.501  0.00  0.00    +0.000 A 
ATOM      5  N   UNL     1      46.244   3.503  13.658  0.00  0.00    +0.000 NA
ATOM      6  C   UNL     1      46.511   4.771  14.033  0.00  0.00    +0.000 A 
ATOM      7  C   UNL     1      46.053   5.838  13.244  0.00  0.00    +0.000 A 
ATOM      8  N   UNL     1      45.352   5.700  12.085  0.00  0.00    +0.000 NA
BRANCH   3  10
ATOM      9  N   UNL     1      44.719   4.998   9.407  0.00  0.00    +0.000 N 
ATOM     10  C   UNL     1      44.407   4.162  10.444  0.00  0.00    +0.000 C 
ATOM     11  O   UNL     1      43.603   3.245  10.312  0.00  0.00    +0.000 OA
ATOM     12  H   UNL     1      44.310   4.823   8.499  0.00  0.00    +0.000 HD
ATOM     13  H   UNL     1      45.455   5.687   9.509  0.00  0.00    +0.000 HD
ENDBRANCH   3  10
ENDBRANCH   1   6
BRANCH   1  14
ATOM     14  C   UNL     1      47.126   4.225  16.326  0.00  0.00    +0.000 C 
BRANCH  14  15
ATOM     15  C   UNL     1      48.436   3.598  16.728  0.00  0.00    +0.000 A 
ATOM     16  C   UNL     1      48.765   2.303  16.361  0.00  0.00    +0.000 A 
ATOM     17  N   UNL     1      49.945   1.716  16.649  0.00  0.00    +0.000 NA
ATOM     18  C   UNL     1      50.841   2.470  17.336  0.00  0.00    +0.000 A 
ATOM     19  C   UNL     1      50.648   3.785  17.770  0.00  0.00    +0.000 A 
ATOM     20  C   UNL     1      49.402   4.330  17.442  0.00  0.00    +0.000 A 
BRANCH  19  21
ATOM     21  N   UNL     1      51.609   4.492  18.456  0.00  0.00    +0.000 N 
ATOM     22  C   UNL     1      52.769   3.865  19.107  0.00  0.00    +0.000 C 
ATOM     23  C   UNL     1      52.800   4.232  20.596  0.00  0.00    +0.000 C 
ATOM     24  O   UNL     1      52.757   5.658  20.792  0.00  0.00    +0.000 OA
ATOM     25  C   UNL     1      51.560   6.204  20.215  0.00  0.00    +0.000 C 
ATOM     26  C   UNL     1      51.485   5.939  18.701  0.00  0.00    +0.000 C 
ENDBRANCH  19  21
ENDBRANCH  14  15
ENDBRANCH   1  14
TORSDOF 5
ENDMDL
