MODEL 1
REMARK VINA RESULT:    -8.237      0.000      0.000
REMARK INTER + INTRA:         -12.957
REMARK INTER:                 -11.849
REMARK INTRA:                  -1.108
REMARK UNBOUND:                -1.108
REMARK  Name = 
REMARK  9 active torsions:
REMARK  status: ('A' for Active; 'I' for Inactive)
REMARK    1  A    between atoms: C_1  and  C_2
REMARK    2  A    between atoms: C_9  and  C_10
REMARK    3  A    between atoms: N_12  and  C_13
REMARK    4  A    between atoms: C_13  and  C_14
REMARK    5  A    between atoms: C_17  and  O_18
REMARK    6  A    between atoms: O_18  and  C_19
REMARK    7  A    between atoms: C_19  and  C_20
REMARK    8  A    between atoms: C_20  and  O_21
REMARK    9  A    between atoms: C_20  and  C_22
REMARK                            x       y       z     vdW  Elec       q    Type
REMARK                         _______ _______ _______ _____ _____    ______ ____
ROOT
ATOM      1  C   UNL     1      46.133   7.065  12.358  0.00  0.00    +0.000 A 
ATOM      2  C   UNL     1      44.913   6.611  12.872  0.00  0.00    +0.000 A 
ATOM      3  C   UNL     1      44.144   5.679  12.169  0.00  0.00    +0.000 A 
ATOM      4  C   UNL     1      44.590   5.181  10.944  0.00  0.00    +0.000 A 
ATOM      5  C   UNL     1      45.819   5.610  10.441  0.00  0.00    +0.000 A 
ATOM      6  C   UNL     1      46.591   6.539  11.143  0.00  0.00    +0.000 A 
ENDROOT
BRANCH   1   7
ATOM      7  C   UNL     1      46.930   8.095  13.108  0.00  0.00    +0.000 C 
BRANCH   7  10
ATOM      8  C   UNL     1      48.560   6.961  14.525  0.00  0.00    +0.000 C 
ATOM      9  O   UNL     1      49.308   6.808  13.567  0.00  0.00    +0.000 OA
ATOM     10  N   UNL     1      47.353   7.614  14.401  0.00  0.00    +0.000 N 
ATOM     11  H   UNL     1      46.681   7.599  15.155  0.00  0.00    +0.000 HD
BRANCH   8  20
ATOM     12  C   UNL     1      46.826   4.080  14.768  0.00  0.00    +0.000 C 
ATOM     13  C   UNL     1      47.557   4.173  16.073  0.00  0.00    +0.000 A 
ATOM     14  N   UNL     1      47.336   3.138  16.931  0.00  0.00    +0.000 NA
ATOM     15  C   UNL     1      47.936   3.136  18.125  0.00  0.00    +0.000 A 
ATOM     16  N   UNL     1      48.757   4.062  18.611  0.00  0.00    +0.000 NA
ATOM     17  C   UNL     1      48.963   5.073  17.752  0.00  0.00    +0.000 A 
ATOM     18  S   UNL     1      49.984   6.353  18.203  0.00  0.00    +0.000 S 
ATOM     19  C   UNL     1      49.740   7.146  16.719  0.00  0.00    +0.000 A 
ATOM     20  C   UNL     1      48.882   6.468  15.867  0.00  0.00    +0.000 A 
ATOM     21  C   UNL     1      48.420   5.221  16.478  0.00  0.00    +0.000 A 
ENDBRANCH   8  20
ENDBRANCH   7  10
ENDBRANCH   1   7
BRANCH   4  22
ATOM     22  O   UNL     1      43.920   4.292  10.147  0.00  0.00    +0.000 OA
BRANCH  22  23
ATOM     23  C   UNL     1      44.529   3.990   8.884  0.00  0.00    +0.000 C 
BRANCH  23  24
ATOM     24  C   UNL     1      45.335   2.685   8.994  0.00  0.00    +0.000 C 
BRANCH  24  25
ATOM     25  C   UNL     1      46.137   2.380   7.753  0.00  0.00    +0.000 A 
ATOM     26  C   UNL     1      46.211   3.246   6.658  0.00  0.00    +0.000 A 
ATOM     27  C   UNL     1      46.983   2.908   5.550  0.00  0.00    +0.000 A 
ATOM     28  C   UNL     1      47.675   1.708   5.582  0.00  0.00    +0.000 A 
ATOM     29  N   UNL     1      47.651   0.851   6.622  0.00  0.00    +0.000 NA
ATOM     30  C   UNL     1      46.885   1.206   7.679  0.00  0.00    +0.000 A 
ENDBRANCH  24  25
BRANCH  24  31
ATOM     31  O   UNL     1      44.475   1.590   9.319  0.00  0.00    +0.000 OA
ATOM     32  H   UNL     1      45.045   0.804   9.383  0.00  0.00    +0.000 HD
ENDBRANCH  24  31
ENDBRANCH  23  24
ENDBRANCH  22  23
ENDBRANCH   4  22
TORSDOF 8
ENDMDL
MODEL 2
REMARK VINA RESULT:    -7.827      1.706      2.331
REMARK INTER + INTRA:         -12.367
REMARK INTER:                 -11.441
REMARK INTRA:                  -0.926
REMARK UNBOUND:                -1.108
REMARK  Name = 
REMARK  9 active torsions:
REMARK  status: ('A' for Active; 'I' for Inactive)
REMARK    1  A    between atoms: C_1  and  C_2
REMARK    2  A    between atoms: C_9  and  C_10
REMARK    3  A    between atoms: N_12  and  C_13
REMARK    4  A    between atoms: C_13  and  C_14
REMARK    5  A    between atoms: C_17  and  O_18
REMARK    6  A    between atoms: O_18  and  C_19
REMARK    7  A    between atoms: C_19  and  C_20
REMARK    8  A    between atoms: C_20  and  O_21
REMARK    9  A    between atoms: C_20  and  C_22
REMARK                            x       y       z     vdW  Elec       q    Type
REMARK                         _______ _______ _______ _____ _____    ______ ____
ROOT
ATOM      1  C   UNL     1      46.758   6.161  12.774  0.00  0.00    +0.000 A 
ATOM      2  C   UNL     1      46.030   5.061  13.240  0.00  0.00    +0.000 A 
ATOM      3  C   UNL     1      45.062   4.451  12.436  0.00  0.00    +0.000 A 
ATOM      4  C   UNL     1      44.815   4.930  11.149  0.00  0.00    +0.000 A 
ATOM      5  C   UNL     1      45.558   6.009  10.670  0.00  0.00    +0.000 A 
ATOM      6  C   UNL     1      46.528   6.619  11.470  0.00  0.00    +0.000 A 
ENDROOT
BRANCH   1   7
ATOM      7  C   UNL     1      47.769   6.828  13.665  0.00  0.00    +0.000 C 
BRANCH   7  10
ATOM      8  C   UNL     1      48.870   6.233  15.759  0.00  0.00    +0.000 C 
ATOM      9  O   UNL     1      49.949   6.604  15.315  0.00  0.00    +0.000 OA
ATOM     10  N   UNL     1      47.713   6.325  15.016  0.00  0.00    +0.000 N 
ATOM     11  H   UNL     1      46.863   5.878  15.331  0.00  0.00    +0.000 HD
BRANCH   8  20
ATOM     12  C   UNL     1      48.001   8.877  17.663  0.00  0.00    +0.000 C 
ATOM     13  C   UNL     1      47.996   7.724  18.621  0.00  0.00    +0.000 A 
ATOM     14  N   UNL     1      47.661   8.043  19.903  0.00  0.00    +0.000 NA
ATOM     15  C   UNL     1      47.638   7.084  20.832  0.00  0.00    +0.000 A 
ATOM     16  N   UNL     1      47.919   5.796  20.663  0.00  0.00    +0.000 NA
ATOM     17  C   UNL     1      48.247   5.501  19.395  0.00  0.00    +0.000 A 
ATOM     18  S   UNL     1      48.642   3.899  18.989  0.00  0.00    +0.000 S 
ATOM     19  C   UNL     1      48.913   4.318  17.363  0.00  0.00    +0.000 A 
ATOM     20  C   UNL     1      48.720   5.666  17.102  0.00  0.00    +0.000 A 
ATOM     21  C   UNL     1      48.312   6.378  18.314  0.00  0.00    +0.000 A 
ENDBRANCH   8  20
ENDBRANCH   7  10
ENDBRANCH   1   7
BRANCH   4  22
ATOM     22  O   UNL     1      43.878   4.443  10.278  0.00  0.00    +0.000 OA
BRANCH  22  23
ATOM     23  C   UNL     1      44.364   4.020   8.997  0.00  0.00    +0.000 C 
BRANCH  23  24
ATOM     24  C   UNL     1      45.224   2.755   9.159  0.00  0.00    +0.000 C 
BRANCH  24  25
ATOM     25  C   UNL     1      46.013   2.414   7.920  0.00  0.00    +0.000 A 
ATOM     26  C   UNL     1      46.218   3.316   6.871  0.00  0.00    +0.000 A 
ATOM     27  C   UNL     1      46.970   2.939   5.762  0.00  0.00    +0.000 A 
ATOM     28  C   UNL     1      47.511   1.664   5.746  0.00  0.00    +0.000 A 
ATOM     29  N   UNL     1      47.358   0.768   6.741  0.00  0.00    +0.000 NA
ATOM     30  C   UNL     1      46.615   1.162   7.800  0.00  0.00    +0.000 A 
ENDBRANCH  24  25
BRANCH  24  31
ATOM     31  O   UNL     1      44.415   1.646   9.561  0.00  0.00    +0.000 OA
ATOM     32  H   UNL     1      45.001   0.869   9.571  0.00  0.00    +0.000 HD
ENDBRANCH  24  31
ENDBRANCH  23  24
ENDBRANCH  22  23
ENDBRANCH   4  22
TORSDOF 8
ENDMDL
MODEL 3
REMARK VINA RESULT:    -7.601      1.724      2.310
REMARK INTER + INTRA:         -12.043
REMARK INTER:                 -11.186
REMARK INTRA:                  -0.857
REMARK UNBOUND:                -1.108
REMARK  Name = 
REMARK  9 active torsions:
REMARK  status: ('A' for Active; 'I' for Inactive)
REMARK    1  A    between atoms: C_1  and  C_2
REMARK    2  A    between atoms: C_9  and  C_10
REMARK    3  A    between atoms: N_12  and  C_13
REMARK    4  A    between atoms: C_13  and  C_14
REMARK    5  A    between atoms: C_17  and  O_18
REMARK    6  A    between atoms: O_18  and  C_19
REMARK    7  A    between atoms: C_19  and  C_20
REMARK    8  A    between atoms: C_20  and  O_21
REMARK    9  A    between atoms: C_20  and  C_22
REMARK                            x       y       z     vdW  Elec       q    Type
REMARK                         _______ _______ _______ _____ _____    ______ ____
ROOT
ATOM      1  C   UNL     1      47.482   6.300  13.161  0.00  0.00    +0.000 A 
ATOM      2  C   UNL     1      46.995   6.875  11.982  0.00  0.00    +0.000 A 
ATOM      3  C   UNL     1      45.926   6.294  11.291  0.00  0.00    +0.000 A 
ATOM      4  C   UNL     1      45.325   5.132  11.776  0.00  0.00    +0.000 A 
ATOM      5  C   UNL     1      45.789   4.571  12.967  0.00  0.00    +0.000 A 
ATOM      6  C   UNL     1      46.855   5.151  13.660  0.00  0.00    +0.000 A 
ENDROOT
BRANCH   1   7
ATOM      7  C   UNL     1      48.655   6.917  13.870  0.00  0.00    +0.000 C 
BRANCH   7  10
ATOM      8  C   UNL     1      49.324   6.875  16.216  0.00  0.00    +0.000 C 
ATOM      9  O   UNL     1      50.426   6.438  15.910  0.00  0.00    +0.000 OA
ATOM     10  N   UNL     1      48.373   7.168  15.263  0.00  0.00    +0.000 N 
ATOM     11  H   UNL     1      47.423   7.379  15.533  0.00  0.00    +0.000 HD
BRANCH   8  20
ATOM     12  C   UNL     1      49.358   3.810  17.622  0.00  0.00    +0.000 C 
ATOM     13  C   UNL     1      48.984   4.722  18.751  0.00  0.00    +0.000 A 
ATOM     14  N   UNL     1      48.781   4.102  19.947  0.00  0.00    +0.000 NA
ATOM     15  C   UNL     1      48.434   4.830  21.012  0.00  0.00    +0.000 A 
ATOM     16  N   UNL     1      48.246   6.145  21.058  0.00  0.00    +0.000 NA
ATOM     17  C   UNL     1      48.450   6.738  19.871  0.00  0.00    +0.000 A 
ATOM     18  S   UNL     1      48.252   8.420  19.737  0.00  0.00    +0.000 S 
ATOM     19  C   UNL     1      48.650   8.391  18.083  0.00  0.00    +0.000 A 
ATOM     20  C   UNL     1      48.928   7.119  17.606  0.00  0.00    +0.000 A 
ATOM     21  C   UNL     1      48.818   6.127  18.675  0.00  0.00    +0.000 A 
ENDBRANCH   8  20
ENDBRANCH   7  10
ENDBRANCH   1   7
BRANCH   4  22
ATOM     22  O   UNL     1      44.297   4.452  11.181  0.00  0.00    +0.000 OA
BRANCH  22  23
ATOM     23  C   UNL     1      44.617   3.158  10.653  0.00  0.00    +0.000 C 
BRANCH  23  24
ATOM     24  C   UNL     1      44.353   3.135   9.138  0.00  0.00    +0.000 C 
BRANCH  24  25
ATOM     25  C   UNL     1      45.525   2.618   8.342  0.00  0.00    +0.000 A 
ATOM     26  C   UNL     1      46.344   3.441   7.564  0.00  0.00    +0.000 A 
ATOM     27  C   UNL     1      47.419   2.898   6.865  0.00  0.00    +0.000 A 
ATOM     28  C   UNL     1      47.650   1.538   6.983  0.00  0.00    +0.000 A 
ATOM     29  N   UNL     1      46.901   0.708   7.735  0.00  0.00    +0.000 NA
ATOM     30  C   UNL     1      45.859   1.266   8.395  0.00  0.00    +0.000 A 
ENDBRANCH  24  25
BRANCH  24  31
ATOM     31  O   UNL     1      43.964   4.432   8.677  0.00  0.00    +0.000 OA
ATOM     32  H   UNL     1      43.011   4.378   8.482  0.00  0.00    +0.000 HD
ENDBRANCH  24  31
ENDBRANCH  23  24
ENDBRANCH  22  23
ENDBRANCH   4  22
TORSDOF 8
ENDMDL
MODEL 4
REMARK VINA RESULT:    -7.445      2.593      3.391
REMARK INTER + INTRA:         -11.817
REMARK INTER:                 -10.818
REMARK INTRA:                  -0.999
REMARK UNBOUND:                -1.108
REMARK  Name = 
REMARK  9 active torsions:
REMARK  status: ('A' for Active; 'I' for Inactive)
REMARK    1  A    between atoms: C_1  and  C_2
REMARK    2  A    between atoms: C_9  and  C_10
REMARK    3  A    between atoms: N_12  and  C_13
REMARK    4  A    between atoms: C_13  and  C_14
REMARK    5  A    between atoms: C_17  and  O_18
REMARK    6  A    between atoms: O_18  and  C_19
REMARK    7  A    between atoms: C_19  and  C_20
REMARK    8  A    between atoms: C_20  and  O_21
REMARK    9  A    between atoms: C_20  and  C_22
REMARK                            x       y       z     vdW  Elec       q    Type
REMARK                         _______ _______ _______ _____ _____    ______ ____
ROOT
ATOM      1  C   UNL     1      48.108   6.676  14.662  0.00  0.00    +0.000 A 
ATOM      2  C   UNL     1      47.405   5.475  14.807  0.00  0.00    +0.000 A 
ATOM      3  C   UNL     1      46.640   4.963  13.755  0.00  0.00    +0.000 A 
ATOM      4  C   UNL     1      46.575   5.642  12.538  0.00  0.00    +0.000 A 
ATOM      5  C   UNL     1      47.297   6.826  12.379  0.00  0.00    +0.000 A 
ATOM      6  C   UNL     1      48.065   7.339  13.428  0.00  0.00    +0.000 A 
ENDROOT
BRANCH   1   7
ATOM      7  C   UNL     1      48.896   7.232  15.815  0.00  0.00    +0.000 C 
BRANCH   7  10
ATOM      8  C   UNL     1      49.973   5.739  17.416  0.00  0.00    +0.000 C 
ATOM      9  O   UNL     1      49.032   5.864  18.189  0.00  0.00    +0.000 OA
ATOM     10  N   UNL     1      49.989   6.368  16.190  0.00  0.00    +0.000 N 
ATOM     11  H   UNL     1      50.830   6.383  15.630  0.00  0.00    +0.000 HD
BRANCH   8  20
ATOM     12  C   UNL     1      48.938   2.583  16.838  0.00  0.00    +0.000 C 
ATOM     13  C   UNL     1      50.373   2.425  17.241  0.00  0.00    +0.000 A 
ATOM     14  N   UNL     1      50.828   1.141  17.257  0.00  0.00    +0.000 NA
ATOM     15  C   UNL     1      52.093   0.897  17.613  0.00  0.00    +0.000 A 
ATOM     16  N   UNL     1      53.009   1.788  17.978  0.00  0.00    +0.000 NA
ATOM     17  C   UNL     1      52.543   3.047  17.957  0.00  0.00    +0.000 A 
ATOM     18  S   UNL     1      53.573   4.324  18.398  0.00  0.00    +0.000 S 
ATOM     19  C   UNL     1      52.350   5.476  18.138  0.00  0.00    +0.000 A 
ATOM     20  C   UNL     1      51.148   4.920  17.726  0.00  0.00    +0.000 A 
ATOM     21  C   UNL     1      51.261   3.466  17.607  0.00  0.00    +0.000 A 
ENDBRANCH   8  20
ENDBRANCH   7  10
ENDBRANCH   1   7
BRANCH   4  22
ATOM     22  O   UNL     1      45.842   5.264  11.445  0.00  0.00    +0.000 OA
BRANCH  22  23
ATOM     23  C   UNL     1      44.940   4.166  11.637  0.00  0.00    +0.000 C 
BRANCH  23  24
ATOM     24  C   UNL     1      44.165   3.895  10.337  0.00  0.00    +0.000 C 
BRANCH  24  25
ATOM     25  C   UNL     1      45.046   3.396   9.218  0.00  0.00    +0.000 A 
ATOM     26  C   UNL     1      45.421   2.056   9.079  0.00  0.00    +0.000 A 
ATOM     27  C   UNL     1      46.226   1.662   8.013  0.00  0.00    +0.000 A 
ATOM     28  C   UNL     1      46.618   2.630   7.103  0.00  0.00    +0.000 A 
ATOM     29  N   UNL     1      46.265   3.928   7.184  0.00  0.00    +0.000 NA
ATOM     30  C   UNL     1      45.490   4.279   8.236  0.00  0.00    +0.000 A 
ENDBRANCH  24  25
BRANCH  24  31
ATOM     31  O   UNL     1      43.446   5.061   9.929  0.00  0.00    +0.000 OA
ATOM     32  H   UNL     1      43.695   5.767  10.551  0.00  0.00    +0.000 HD
ENDBRANCH  24  31
ENDBRANCH  23  24
ENDBRANCH  22  23
ENDBRANCH   4  22
TORSDOF 8
ENDMDL
MODEL 5
REMARK VINA RESULT:    -7.425      2.181      2.926
REMARK INTER + INTRA:         -11.788
REMARK INTER:                 -10.688
REMARK INTRA:                  -1.100
REMARK UNBOUND:                -1.108
REMARK  Name = 
REMARK  9 active torsions:
REMARK  status: ('A' for Active; 'I' for Inactive)
REMARK    1  A    between atoms: C_1  and  C_2
REMARK    2  A    between atoms: C_9  and  C_10
REMARK    3  A    between atoms: N_12  and  C_13
REMARK    4  A    between atoms: C_13  and  C_14
REMARK    5  A    between atoms: C_17  and  O_18
REMARK    6  A    between atoms: O_18  and  C_19
REMARK    7  A    between atoms: C_19  and  C_20
REMARK    8  A    between atoms: C_20  and  O_21
REMARK    9  A    between atoms: C_20  and  C_22
REMARK                            x       y       z     vdW  Elec       q    Type
REMARK                         _______ _______ _______ _____ _____    ______ ____
ROOT
ATOM      1  C   UNL     1      47.093   6.427  13.525  0.00  0.00    +0.000 A 
ATOM      2  C   UNL     1      46.769   5.131  13.942  0.00  0.00    +0.000 A 
ATOM      3  C   UNL     1      45.517   4.579  13.652  0.00  0.00    +0.000 A 
ATOM      4  C   UNL     1      44.574   5.315  12.933  0.00  0.00    +0.000 A 
ATOM      5  C   UNL     1      44.904   6.597  12.491  0.00  0.00    +0.000 A 
ATOM      6  C   UNL     1      46.155   7.150  12.777  0.00  0.00    +0.000 A 
ENDROOT
BRANCH   1   7
ATOM      7  C   UNL     1      48.429   7.019  13.876  0.00  0.00    +0.000 C 
BRANCH   7  10
ATOM      8  C   UNL     1      49.304   7.083  16.153  0.00  0.00    +0.000 C 
ATOM      9  O   UNL     1      50.100   6.191  15.888  0.00  0.00    +0.000 OA
ATOM     10  N   UNL     1      48.438   7.582  15.205  0.00  0.00    +0.000 N 
ATOM     11  H   UNL     1      47.687   8.203  15.471  0.00  0.00    +0.000 HD
BRANCH   8  20
ATOM     12  C   UNL     1      47.348   4.942  17.873  0.00  0.00    +0.000 C 
ATOM     13  C   UNL     1      47.699   5.997  18.877  0.00  0.00    +0.000 A 
ATOM     14  N   UNL     1      47.169   5.808  20.119  0.00  0.00    +0.000 NA
ATOM     15  C   UNL     1      47.418   6.702  21.080  0.00  0.00    +0.000 A 
ATOM     16  N   UNL     1      48.145   7.810  20.977  0.00  0.00    +0.000 NA
ATOM     17  C   UNL     1      48.657   7.979  19.748  0.00  0.00    +0.000 A 
ATOM     18  S   UNL     1      49.614   9.346  19.426  0.00  0.00    +0.000 S 
ATOM     19  C   UNL     1      49.849   8.871  17.809  0.00  0.00    +0.000 A 
ATOM     20  C   UNL     1      49.206   7.686  17.485  0.00  0.00    +0.000 A 
ATOM     21  C   UNL     1      48.498   7.143  18.645  0.00  0.00    +0.000 A 
ENDBRANCH   8  20
ENDBRANCH   7  10
ENDBRANCH   1   7
BRANCH   4  22
ATOM     22  O   UNL     1      43.309   4.903  12.612  0.00  0.00    +0.000 OA
BRANCH  22  23
ATOM     23  C   UNL     1      43.130   4.379  11.290  0.00  0.00    +0.000 C 
BRANCH  23  24
ATOM     24  C   UNL     1      44.051   3.165  11.082  0.00  0.00    +0.000 C 
BRANCH  24  25
ATOM     25  C   UNL     1      44.856   3.245   9.808  0.00  0.00    +0.000 A 
ATOM     26  C   UNL     1      45.280   2.118   9.099  0.00  0.00    +0.000 A 
ATOM     27  C   UNL     1      46.008   2.266   7.922  0.00  0.00    +0.000 A 
ATOM     28  C   UNL     1      46.276   3.551   7.481  0.00  0.00    +0.000 A 
ATOM     29  N   UNL     1      45.872   4.667   8.119  0.00  0.00    +0.000 NA
ATOM     30  C   UNL     1      45.174   4.488   9.264  0.00  0.00    +0.000 A 
ENDBRANCH  24  25
BRANCH  24  31
ATOM     31  O   UNL     1      43.298   1.950  11.126  0.00  0.00    +0.000 OA
ATOM     32  H   UNL     1      43.584   1.423  10.359  0.00  0.00    +0.000 HD
ENDBRANCH  24  31
ENDBRANCH  23  24
ENDBRANCH  22  23
ENDBRANCH   4  22
TORSDOF 8
ENDMDL
MODEL 6
REMARK VINA RESULT:    -7.265      1.998      2.533
REMARK INTER + INTRA:         -11.559
REMARK INTER:                 -10.362
REMARK INTRA:                  -1.196
REMARK UNBOUND:                -1.108
REMARK  Name = 
REMARK  9 active torsions:
REMARK  status: ('A' for Active; 'I' for Inactive)
REMARK    1  A    between atoms: C_1  and  C_2
REMARK    2  A    between atoms: C_9  and  C_10
REMARK    3  A    between atoms: N_12  and  C_13
REMARK    4  A    between atoms: C_13  and  C_14
REMARK    5  A    between atoms: C_17  and  O_18
REMARK    6  A    between atoms: O_18  and  C_19
REMARK    7  A    between atoms: C_19  and  C_20
REMARK    8  A    between atoms: C_20  and  O_21
REMARK    9  A    between atoms: C_20  and  C_22
REMARK                            x       y       z     vdW  Elec       q    Type
REMARK                         _______ _______ _______ _____ _____    ______ ____
ROOT
ATOM      1  C   UNL     1      47.791   7.078  12.662  0.00  0.00    +0.000 A 
ATOM      2  C   UNL     1      47.646   5.857  13.330  0.00  0.00    +0.000 A 
ATOM      3  C   UNL     1      46.540   5.036  13.087  0.00  0.00    +0.000 A 
ATOM      4  C   UNL     1      45.568   5.423  12.164  0.00  0.00    +0.000 A 
ATOM      5  C   UNL     1      45.723   6.626  11.475  0.00  0.00    +0.000 A 
ATOM      6  C   UNL     1      46.828   7.447  11.714  0.00  0.00    +0.000 A 
ENDROOT
BRANCH   1   7
ATOM      7  C   UNL     1      48.967   7.965  12.963  0.00  0.00    +0.000 C 
BRANCH   7  10
ATOM      8  C   UNL     1      50.187   7.733  15.062  0.00  0.00    +0.000 C 
ATOM      9  O   UNL     1      49.549   8.656  15.553  0.00  0.00    +0.000 OA
ATOM     10  N   UNL     1      49.954   7.297  13.776  0.00  0.00    +0.000 N 
ATOM     11  H   UNL     1      50.585   6.644  13.332  0.00  0.00    +0.000 HD
BRANCH   8  20
ATOM     12  C   UNL     1      48.502   5.531  16.980  0.00  0.00    +0.000 C 
ATOM     13  C   UNL     1      49.942   5.250  17.287  0.00  0.00    +0.000 A 
ATOM     14  N   UNL     1      50.153   4.251  18.189  0.00  0.00    +0.000 NA
ATOM     15  C   UNL     1      51.404   3.933  18.535  0.00  0.00    +0.000 A 
ATOM     16  N   UNL     1      52.525   4.497  18.097  0.00  0.00    +0.000 NA
ATOM     17  C   UNL     1      52.297   5.479  17.210  0.00  0.00    +0.000 A 
ATOM     18  S   UNL     1      53.614   6.319  16.542  0.00  0.00    +0.000 S 
ATOM     19  C   UNL     1      52.586   7.303  15.610  0.00  0.00    +0.000 A 
ATOM     20  C   UNL     1      51.241   7.023  15.793  0.00  0.00    +0.000 A 
ATOM     21  C   UNL     1      51.063   5.925  16.744  0.00  0.00    +0.000 A 
ENDBRANCH   8  20
ENDBRANCH   7  10
ENDBRANCH   1   7
BRANCH   4  22
ATOM     22  O   UNL     1      44.428   4.728  11.859  0.00  0.00    +0.000 OA
BRANCH  22  23
ATOM     23  C   UNL     1      44.615   3.427  11.285  0.00  0.00    +0.000 C 
BRANCH  23  24
ATOM     24  C   UNL     1      44.107   3.422   9.833  0.00  0.00    +0.000 C 
BRANCH  24  25
ATOM     25  C   UNL     1      45.170   3.033   8.836  0.00  0.00    +0.000 A 
ATOM     26  C   UNL     1      45.815   3.955   8.007  0.00  0.00    +0.000 A 
ATOM     27  C   UNL     1      46.799   3.528   7.118  0.00  0.00    +0.000 A 
ATOM     28  C   UNL     1      47.118   2.180   7.102  0.00  0.00    +0.000 A 
ATOM     29  N   UNL     1      46.539   1.258   7.896  0.00  0.00    +0.000 NA
ATOM     30  C   UNL     1      45.582   1.704   8.741  0.00  0.00    +0.000 A 
ENDBRANCH  24  25
BRANCH  24  31
ATOM     31  O   UNL     1      43.540   4.690   9.495  0.00  0.00    +0.000 OA
ATOM     32  H   UNL     1      42.885   4.519   8.795  0.00  0.00    +0.000 HD
ENDBRANCH  24  31
ENDBRANCH  23  24
ENDBRANCH  22  23
ENDBRANCH   4  22
TORSDOF 8
ENDMDL
MODEL 7
REMARK VINA RESULT:    -7.058      2.586      4.450
REMARK INTER + INTRA:         -11.261
REMARK INTER:                 -10.286
REMARK INTRA:                  -0.975
REMARK UNBOUND:                -1.108
REMARK  Name = 
REMARK  9 active torsions:
REMARK  status: ('A' for Active; 'I' for Inactive)
REMARK    1  A    between atoms: C_1  and  C_2
REMARK    2  A    between atoms: C_9  and  C_10
REMARK    3  A    between atoms: N_12  and  C_13
REMARK    4  A    between atoms: C_13  and  C_14
REMARK    5  A    between atoms: C_17  and  O_18
REMARK    6  A    between atoms: O_18  and  C_19
REMARK    7  A    between atoms: C_19  and  C_20
REMARK    8  A    between atoms: C_20  and  O_21
REMARK    9  A    between atoms: C_20  and  C_22
REMARK                            x       y       z     vdW  Elec       q    Type
REMARK                         _______ _______ _______ _____ _____    ______ ____
ROOT
ATOM      1  C   UNL     1      46.891   5.302  13.722  0.00  0.00    +0.000 A 
ATOM      2  C   UNL     1      46.506   3.958  13.659  0.00  0.00    +0.000 A 
ATOM      3  C   UNL     1      45.631   3.511  12.664  0.00  0.00    +0.000 A 
ATOM      4  C   UNL     1      45.137   4.402  11.711  0.00  0.00    +0.000 A 
ATOM      5  C   UNL     1      45.541   5.737  11.753  0.00  0.00    +0.000 A 
ATOM      6  C   UNL     1      46.417   6.186  12.744  0.00  0.00    +0.000 A 
ENDROOT
BRANCH   1   7
ATOM      7  C   UNL     1      47.803   5.773  14.820  0.00  0.00    +0.000 C 
BRANCH   7  10
ATOM      8  C   UNL     1      49.338   7.669  14.883  0.00  0.00    +0.000 C 
ATOM      9  O   UNL     1      50.289   6.913  15.033  0.00  0.00    +0.000 OA
ATOM     10  N   UNL     1      48.052   7.193  14.744  0.00  0.00    +0.000 N 
ATOM     11  H   UNL     1      47.264   7.824  14.775  0.00  0.00    +0.000 HD
BRANCH   8  20
ATOM     12  C   UNL     1      49.215   8.397  11.593  0.00  0.00    +0.000 C 
ATOM     13  C   UNL     1      49.352   9.734  12.254  0.00  0.00    +0.000 A 
ATOM     14  N   UNL     1      49.383  10.797  11.402  0.00  0.00    +0.000 NA
ATOM     15  C   UNL     1      49.513  12.031  11.896  0.00  0.00    +0.000 A 
ATOM     16  N   UNL     1      49.628  12.374  13.176  0.00  0.00    +0.000 NA
ATOM     17  C   UNL     1      49.596  11.315  14.000  0.00  0.00    +0.000 A 
ATOM     18  S   UNL     1      49.734  11.560  15.675  0.00  0.00    +0.000 S 
ATOM     19  C   UNL     1      49.619   9.892  15.986  0.00  0.00    +0.000 A 
ATOM     20  C   UNL     1      49.485   9.126  14.838  0.00  0.00    +0.000 A 
ATOM     21  C   UNL     1      49.462   9.974  13.646  0.00  0.00    +0.000 A 
ENDBRANCH   8  20
ENDBRANCH   7  10
ENDBRANCH   1   7
BRANCH   4  22
ATOM     22  O   UNL     1      44.256   4.098  10.708  0.00  0.00    +0.000 OA
BRANCH  22  23
ATOM     23  C   UNL     1      44.650   3.048   9.815  0.00  0.00    +0.000 C 
BRANCH  23  24
ATOM     24  C   UNL     1      44.868   3.619   8.404  0.00  0.00    +0.000 C 
BRANCH  24  25
ATOM     25  C   UNL     1      45.867   2.830   7.595  0.00  0.00    +0.000 A 
ATOM     26  C   UNL     1      46.438   3.305   6.411  0.00  0.00    +0.000 A 
ATOM     27  C   UNL     1      47.366   2.529   5.721  0.00  0.00    +0.000 A 
ATOM     28  C   UNL     1      47.705   1.296   6.255  0.00  0.00    +0.000 A 
ATOM     29  N   UNL     1      47.197   0.805   7.402  0.00  0.00    +0.000 NA
ATOM     30  C   UNL     1      46.292   1.581   8.043  0.00  0.00    +0.000 A 
ENDBRANCH  24  25
BRANCH  24  31
ATOM     31  O   UNL     1      45.251   4.995   8.474  0.00  0.00    +0.000 OA
ATOM     32  H   UNL     1      44.530   5.456   8.939  0.00  0.00    +0.000 HD
ENDBRANCH  24  31
ENDBRANCH  23  24
ENDBRANCH  22  23
ENDBRANCH   4  22
TORSDOF 8
ENDMDL
MODEL 8
REMARK VINA RESULT:    -7.037      2.188      3.074
REMARK INTER + INTRA:         -11.231
REMARK INTER:                 -10.753
REMARK INTRA:                  -0.478
REMARK UNBOUND:                -1.108
REMARK  Name = 
REMARK  9 active torsions:
REMARK  status: ('A' for Active; 'I' for Inactive)
REMARK    1  A    between atoms: C_1  and  C_2
REMARK    2  A    between atoms: C_9  and  C_10
REMARK    3  A    between atoms: N_12  and  C_13
REMARK    4  A    between atoms: C_13  and  C_14
REMARK    5  A    between atoms: C_17  and  O_18
REMARK    6  A    between atoms: O_18  and  C_19
REMARK    7  A    between atoms: C_19  and  C_20
REMARK    8  A    between atoms: C_20  and  O_21
REMARK    9  A    between atoms: C_20  and  C_22
REMARK                            x       y       z     vdW  Elec       q    Type
REMARK                         _______ _______ _______ _____ _____    ______ ____
ROOT
ATOM      1  C   UNL     1      44.861   4.538  11.500  0.00  0.00    +0.000 A 
ATOM      2  C   UNL     1      44.540   3.246  11.070  0.00  0.00    +0.000 A 
ATOM      3  C   UNL     1      44.784   2.850   9.751  0.00  0.00    +0.000 A 
ATOM      4  C   UNL     1      45.360   3.741   8.845  0.00  0.00    +0.000 A 
ATOM      5  C   UNL     1      45.708   5.022   9.277  0.00  0.00    +0.000 A 
ATOM      6  C   UNL     1      45.468   5.419  10.595  0.00  0.00    +0.000 A 
ENDROOT
BRANCH   1   7
ATOM      7  C   UNL     1      44.558   4.959  12.911  0.00  0.00    +0.000 C 
BRANCH   7  10
ATOM      8  C   UNL     1      46.726   4.958  14.029  0.00  0.00    +0.000 C 
ATOM      9  O   UNL     1      46.779   3.736  13.958  0.00  0.00    +0.000 OA
ATOM     10  N   UNL     1      45.662   5.666  13.513  0.00  0.00    +0.000 N 
ATOM     11  H   UNL     1      45.555   6.650  13.712  0.00  0.00    +0.000 HD
BRANCH   8  20
ATOM     12  C   UNL     1      47.051   3.595  17.096  0.00  0.00    +0.000 C 
ATOM     13  C   UNL     1      48.083   4.682  17.072  0.00  0.00    +0.000 A 
ATOM     14  N   UNL     1      48.815   4.805  18.214  0.00  0.00    +0.000 NA
ATOM     15  C   UNL     1      49.753   5.753  18.293  0.00  0.00    +0.000 A 
ATOM     16  N   UNL     1      50.078   6.640  17.357  0.00  0.00    +0.000 NA
ATOM     17  C   UNL     1      49.346   6.504  16.240  0.00  0.00    +0.000 A 
ATOM     18  S   UNL     1      49.618   7.555  14.934  0.00  0.00    +0.000 S 
ATOM     19  C   UNL     1      48.408   6.804  14.004  0.00  0.00    +0.000 A 
ATOM     20  C   UNL     1      47.777   5.760  14.662  0.00  0.00    +0.000 A 
ATOM     21  C   UNL     1      48.340   5.570  15.999  0.00  0.00    +0.000 A 
ENDBRANCH   8  20
ENDBRANCH   7  10
ENDBRANCH   1   7
BRANCH   4  22
ATOM     22  O   UNL     1      45.621   3.488   7.525  0.00  0.00    +0.000 OA
BRANCH  22  23
ATOM     23  C   UNL     1      46.478   2.371   7.252  0.00  0.00    +0.000 C 
BRANCH  23  24
ATOM     24  C   UNL     1      47.198   2.584   5.910  0.00  0.00    +0.000 C 
BRANCH  24  25
ATOM     25  C   UNL     1      46.871   1.522   4.889  0.00  0.00    +0.000 A 
ATOM     26  C   UNL     1      46.206   1.794   3.690  0.00  0.00    +0.000 A 
ATOM     27  C   UNL     1      45.948   0.766   2.785  0.00  0.00    +0.000 A 
ATOM     28  C   UNL     1      46.384  -0.508   3.109  0.00  0.00    +0.000 A 
ATOM     29  N   UNL     1      47.045  -0.814   4.242  0.00  0.00    +0.000 NA
ATOM     30  C   UNL     1      47.272   0.205   5.103  0.00  0.00    +0.000 A 
ENDBRANCH  24  25
BRANCH  24  31
ATOM     31  O   UNL     1      48.612   2.674   6.107  0.00  0.00    +0.000 OA
ATOM     32  H   UNL     1      49.018   2.095   5.439  0.00  0.00    +0.000 HD
ENDBRANCH  24  31
ENDBRANCH  23  24
ENDBRANCH  22  23
ENDBRANCH   4  22
TORSDOF 8
ENDMDL
MODEL 9
REMARK VINA RESULT:    -6.925      2.240      3.778
REMARK INTER + INTRA:         -11.069
REMARK INTER:                 -10.904
REMARK INTRA:                  -0.166
REMARK UNBOUND:                -1.108
REMARK  Name = 
REMARK  9 active torsions:
REMARK  status: ('A' for Active; 'I' for Inactive)
REMARK    1  A    between atoms: C_1  and  C_2
REMARK    2  A    between atoms: C_9  and  C_10
REMARK    3  A    between atoms: N_12  and  C_13
REMARK    4  A    between atoms: C_13  and  C_14
REMARK    5  A    between atoms: C_17  and  O_18
REMARK    6  A    between atoms: O_18  and  C_19
REMARK    7  A    between atoms: C_19  and  C_20
REMARK    8  A    between atoms: C_20  and  O_21
REMARK    9  A    between atoms: C_20  and  C_22
REMARK                            x       y       z     vdW  Elec       q    Type
REMARK                         _______ _______ _______ _____ _____    ______ ____
ROOT
ATOM      1  C   UNL     1      44.610   4.523  11.319  0.00  0.00    +0.000 A 
ATOM      2  C   UNL     1      44.304   3.237  10.861  0.00  0.00    +0.000 A 
ATOM      3  C   UNL     1      44.648   2.839   9.566  0.00  0.00    +0.000 A 
ATOM      4  C   UNL     1      45.311   3.721   8.712  0.00  0.00    +0.000 A 
ATOM      5  C   UNL     1      45.643   4.995   9.174  0.00  0.00    +0.000 A 
ATOM      6  C   UNL     1      45.304   5.395  10.469  0.00  0.00    +0.000 A 
ENDROOT
BRANCH   1   7
ATOM      7  C   UNL     1      44.201   4.948  12.702  0.00  0.00    +0.000 C 
BRANCH   7  10
ATOM      8  C   UNL     1      46.319   4.646  13.873  0.00  0.00    +0.000 C 
ATOM      9  O   UNL     1      46.322   3.454  13.593  0.00  0.00    +0.000 OA
ATOM     10  N   UNL     1      45.310   5.485  13.453  0.00  0.00    +0.000 N 
ATOM     11  H   UNL     1      45.238   6.425  13.816  0.00  0.00    +0.000 HD
BRANCH   8  20
ATOM     12  C   UNL     1      47.654   6.936  11.789  0.00  0.00    +0.000 C 
ATOM     13  C   UNL     1      48.424   7.114  13.062  0.00  0.00    +0.000 A 
ATOM     14  N   UNL     1      49.378   8.086  13.026  0.00  0.00    +0.000 NA
ATOM     15  C   UNL     1      50.124   8.313  14.111  0.00  0.00    +0.000 A 
ATOM     16  N   UNL     1      50.057   7.679  15.277  0.00  0.00    +0.000 NA
ATOM     17  C   UNL     1      49.112   6.726  15.294  0.00  0.00    +0.000 A 
ATOM     18  S   UNL     1      48.883   5.806  16.704  0.00  0.00    +0.000 S 
ATOM     19  C   UNL     1      47.635   4.905  15.981  0.00  0.00    +0.000 A 
ATOM     20  C   UNL     1      47.377   5.274  14.669  0.00  0.00    +0.000 A 
ATOM     21  C   UNL     1      48.254   6.370  14.256  0.00  0.00    +0.000 A 
ENDBRANCH   8  20
ENDBRANCH   7  10
ENDBRANCH   1   7
BRANCH   4  22
ATOM     22  O   UNL     1      45.674   3.465   7.417  0.00  0.00    +0.000 OA
BRANCH  22  23
ATOM     23  C   UNL     1      46.579   2.370   7.218  0.00  0.00    +0.000 C 
BRANCH  23  24
ATOM     24  C   UNL     1      47.305   2.534   5.872  0.00  0.00    +0.000 C 
BRANCH  24  25
ATOM     25  C   UNL     1      46.913   1.487   4.859  0.00  0.00    +0.000 A 
ATOM     26  C   UNL     1      46.222   1.783   3.680  0.00  0.00    +0.000 A 
ATOM     27  C   UNL     1      45.904   0.768   2.781  0.00  0.00    +0.000 A 
ATOM     28  C   UNL     1      46.307  -0.521   3.089  0.00  0.00    +0.000 A 
ATOM     29  N   UNL     1      46.991  -0.852   4.202  0.00  0.00    +0.000 NA
ATOM     30  C   UNL     1      47.276   0.156   5.058  0.00  0.00    +0.000 A 
ENDBRANCH  24  25
BRANCH  24  31
ATOM     31  O   UNL     1      48.722   2.543   6.063  0.00  0.00    +0.000 OA
ATOM     32  H   UNL     1      49.106   2.892   5.240  0.00  0.00    +0.000 HD
ENDBRANCH  24  31
ENDBRANCH  23  24
ENDBRANCH  22  23
ENDBRANCH   4  22
TORSDOF 8
ENDMDL
