MODEL 1
REMARK VINA RESULT:    -7.970      0.000      0.000
REMARK INTER + INTRA:         -12.584
REMARK INTER:                 -11.698
REMARK INTRA:                  -0.886
REMARK UNBOUND:                -0.886
REMARK  Name = 
REMARK  9 active torsions:
REMARK  status: ('A' for Active; 'I' for Inactive)
REMARK    1  A    between atoms: C_1  and  C_2
REMARK    2  A    between atoms: C_2  and  O_3
REMARK    3  A    between atoms: O_3  and  C_4
REMARK    4  A    between atoms: C_4  and  C_5
REMARK    5  A    between atoms: C_4  and  C_12
REMARK    6  A    between atoms: C_5  and  C_6
REMARK    7  A    between atoms: C_15  and  C_16
REMARK    8  A    between atoms: C_16  and  N_17
REMARK    9  A    between atoms: C_18  and  C_20
REMARK                            x       y       z     vdW  Elec       q    Type
REMARK                         _______ _______ _______ _____ _____    ______ ____
ROOT
ATOM      1  C   UNL     1      45.303   4.698  11.130  0.00  0.00    +0.000 A 
ATOM      2  C   UNL     1      45.758   4.041  12.287  0.00  0.00    +0.000 A 
ATOM      3  C   UNL     1      46.670   4.655  13.154  0.00  0.00    +0.000 A 
ATOM      4  C   UNL     1      47.177   5.927  12.868  0.00  0.00    +0.000 A 
ATOM      5  C   UNL     1      46.789   6.553  11.682  0.00  0.00    +0.000 A 
ATOM      6  C   UNL     1      45.839   5.963  10.849  0.00  0.00    +0.000 A 
ENDROOT
BRANCH   1   7
ATOM      7  C   UNL     1      44.215   4.063  10.252  0.00  0.00    +0.000 C 
BRANCH   7   8
ATOM      8  O   UNL     1      42.957   3.959  10.941  0.00  0.00    +0.000 OA
BRANCH   8  10
ATOM      9  C   UNL     1      42.699   5.197  12.941  0.00  0.00    +0.000 C 
ATOM     10  C   UNL     1      42.436   5.187  11.446  0.00  0.00    +0.000 C 
ENDBRANCH   8  10
ENDBRANCH   7   8
BRANCH   7  11
ATOM     11  C   UNL     1      44.652   2.626   9.893  0.00  0.00    +0.000 C 
BRANCH  11  12
ATOM     12  C   UNL     1      45.583   2.522   8.708  0.00  0.00    +0.000 A 
ATOM     13  C   UNL     1      45.732   3.606   7.844  0.00  0.00    +0.000 A 
ATOM     14  C   UNL     1      46.495   3.454   6.691  0.00  0.00    +0.000 A 
ATOM     15  C   UNL     1      47.088   2.228   6.427  0.00  0.00    +0.000 A 
ATOM     16  C   UNL     1      46.907   1.206   7.345  0.00  0.00    +0.000 A 
ATOM     17  N   UNL     1      46.173   1.321   8.478  0.00  0.00    +0.000 NA
ENDBRANCH  11  12
ENDBRANCH   7  11
ENDBRANCH   1   7
BRANCH   4  18
ATOM     18  C   UNL     1      48.122   6.630  13.802  0.00  0.00    +0.000 C 
BRANCH  18  19
ATOM     19  N   UNL     1      47.963   6.173  15.156  0.00  0.00    +0.000 N 
ATOM     20  C   UNL     1      49.034   6.156  16.014  0.00  0.00    +0.000 C 
ATOM     21  O   UNL     1      50.139   6.572  15.681  0.00  0.00    +0.000 OA
ATOM     22  H   UNL     1      47.143   5.610  15.365  0.00  0.00    +0.000 HD
BRANCH  20  23
ATOM     23  C   UNL     1      48.778   5.672  17.375  0.00  0.00    +0.000 A 
ATOM     24  C   UNL     1      48.984   4.331  17.673  0.00  0.00    +0.000 A 
ATOM     25  S   UNL     1      48.695   3.941  19.307  0.00  0.00    +0.000 S 
ATOM     26  C   UNL     1      48.233   5.539  19.662  0.00  0.00    +0.000 A 
ATOM     27  N   UNL     1      47.834   5.889  20.915  0.00  0.00    +0.000 NA
ATOM     28  C   UNL     1      47.487   7.127  21.039  0.00  0.00    +0.000 A 
ATOM     29  N   UNL     1      47.507   8.050  20.023  0.00  0.00    +0.000 N 
ATOM     30  C   UNL     1      47.925   7.750  18.745  0.00  0.00    +0.000 A 
ATOM     31  O   UNL     1      47.973   8.606  17.867  0.00  0.00    +0.000 OA
ATOM     32  C   UNL     1      48.318   6.364  18.554  0.00  0.00    +0.000 A 
ATOM     33  H   UNL     1      47.224   9.005  20.187  0.00  0.00    +0.000 HD
ENDBRANCH  20  23
ENDBRANCH  18  19
ENDBRANCH   4  18
TORSDOF 8
ENDMDL
MODEL 2
REMARK VINA RESULT:    -7.955      1.254      2.048
REMARK INTER + INTRA:         -12.561
REMARK INTER:                 -11.828
REMARK INTRA:                  -0.734
REMARK UNBOUND:                -0.886
REMARK  Name = 
REMARK  9 active torsions:
REMARK  status: ('A' for Active; 'I' for Inactive)
REMARK    1  A    between atoms: C_1  and  C_2
REMARK    2  A    between atoms: C_2  and  O_3
REMARK    3  A    between atoms: O_3  and  C_4
REMARK    4  A    between atoms: C_4  and  C_5
REMARK    5  A    between atoms: C_4  and  C_12
REMARK    6  A    between atoms: C_5  and  C_6
REMARK    7  A    between atoms: C_15  and  C_16
REMARK    8  A    between atoms: C_16  and  N_17
REMARK    9  A    between atoms: C_18  and  C_20
REMARK                            x       y       z     vdW  Elec       q    Type
REMARK                         _______ _______ _______ _____ _____    ______ ____
ROOT
ATOM      1  C   UNL     1      45.346   4.816  11.151  0.00  0.00    +0.000 A 
ATOM      2  C   UNL     1      45.864   6.064  10.759  0.00  0.00    +0.000 A 
ATOM      3  C   UNL     1      46.887   6.682  11.489  0.00  0.00    +0.000 A 
ATOM      4  C   UNL     1      47.392   6.085  12.650  0.00  0.00    +0.000 A 
ATOM      5  C   UNL     1      46.829   4.885  13.087  0.00  0.00    +0.000 A 
ATOM      6  C   UNL     1      45.850   4.245  12.328  0.00  0.00    +0.000 A 
ENDROOT
BRANCH   1   7
ATOM      7  C   UNL     1      44.310   4.095  10.277  0.00  0.00    +0.000 C 
BRANCH   7   8
ATOM      8  O   UNL     1      43.043   3.955  10.943  0.00  0.00    +0.000 OA
BRANCH   8  10
ATOM      9  C   UNL     1      42.803   5.261  12.902  0.00  0.00    +0.000 C 
ATOM     10  C   UNL     1      42.471   5.171  11.423  0.00  0.00    +0.000 C 
ENDBRANCH   8  10
ENDBRANCH   7   8
BRANCH   7  11
ATOM     11  C   UNL     1      44.825   2.667   9.985  0.00  0.00    +0.000 C 
BRANCH  11  12
ATOM     12  C   UNL     1      45.674   2.540   8.743  0.00  0.00    +0.000 A 
ATOM     13  C   UNL     1      45.846   3.639   7.902  0.00  0.00    +0.000 A 
ATOM     14  C   UNL     1      46.526   3.473   6.700  0.00  0.00    +0.000 A 
ATOM     15  C   UNL     1      47.016   2.219   6.366  0.00  0.00    +0.000 A 
ATOM     16  C   UNL     1      46.820   1.182   7.263  0.00  0.00    +0.000 A 
ATOM     17  N   UNL     1      46.165   1.309   8.443  0.00  0.00    +0.000 NA
ENDBRANCH  11  12
ENDBRANCH   7  11
ENDBRANCH   1   7
BRANCH   4  18
ATOM     18  C   UNL     1      48.519   6.703  13.428  0.00  0.00    +0.000 C 
BRANCH  18  19
ATOM     19  N   UNL     1      48.234   6.733  14.837  0.00  0.00    +0.000 N 
ATOM     20  C   UNL     1      49.255   6.794  15.752  0.00  0.00    +0.000 C 
ATOM     21  O   UNL     1      50.430   6.876  15.409  0.00  0.00    +0.000 OA
ATOM     22  H   UNL     1      47.312   6.423  15.133  0.00  0.00    +0.000 HD
BRANCH  20  23
ATOM     23  C   UNL     1      48.869   6.818  17.167  0.00  0.00    +0.000 A 
ATOM     24  C   UNL     1      48.453   8.013  17.742  0.00  0.00    +0.000 A 
ATOM     25  S   UNL     1      47.987   7.861  19.374  0.00  0.00    +0.000 S 
ATOM     26  C   UNL     1      48.375   6.205  19.387  0.00  0.00    +0.000 A 
ATOM     27  N   UNL     1      48.227   5.461  20.516  0.00  0.00    +0.000 NA
ATOM     28  C   UNL     1      48.582   4.225  20.392  0.00  0.00    +0.000 A 
ATOM     29  N   UNL     1      49.068   3.663  19.238  0.00  0.00    +0.000 N 
ATOM     30  C   UNL     1      49.213   4.369  18.064  0.00  0.00    +0.000 A 
ATOM     31  O   UNL     1      49.610   3.829  17.036  0.00  0.00    +0.000 OA
ATOM     32  C   UNL     1      48.834   5.769  18.156  0.00  0.00    +0.000 A 
ATOM     33  H   UNL     1      49.326   2.688  19.208  0.00  0.00    +0.000 HD
ENDBRANCH  20  23
ENDBRANCH  18  19
ENDBRANCH   4  18
TORSDOF 8
ENDMDL
MODEL 3
REMARK VINA RESULT:    -7.294      2.466      3.598
REMARK INTER + INTRA:         -11.591
REMARK INTER:                 -10.461
REMARK INTRA:                  -1.131
REMARK UNBOUND:                -0.886
REMARK  Name = 
REMARK  9 active torsions:
REMARK  status: ('A' for Active; 'I' for Inactive)
REMARK    1  A    between atoms: C_1  and  C_2
REMARK    2  A    between atoms: C_2  and  O_3
REMARK    3  A    between atoms: O_3  and  C_4
REMARK    4  A    between atoms: C_4  and  C_5
REMARK    5  A    between atoms: C_4  and  C_12
REMARK    6  A    between atoms: C_5  and  C_6
REMARK    7  A    between atoms: C_15  and  C_16
REMARK    8  A    between atoms: C_16  and  N_17
REMARK    9  A    between atoms: C_18  and  C_20
REMARK                            x       y       z     vdW  Elec       q    Type
REMARK                         _______ _______ _______ _____ _____    ______ ____
ROOT
ATOM      1  C   UNL     1      45.393   4.490  11.160  0.00  0.00    +0.000 A 
ATOM      2  C   UNL     1      45.532   3.377  12.010  0.00  0.00    +0.000 A 
ATOM      3  C   UNL     1      46.183   3.489  13.245  0.00  0.00    +0.000 A 
ATOM      4  C   UNL     1      46.741   4.708  13.646  0.00  0.00    +0.000 A 
ATOM      5  C   UNL     1      46.674   5.796  12.775  0.00  0.00    +0.000 A 
ATOM      6  C   UNL     1      45.978   5.696  11.571  0.00  0.00    +0.000 A 
ENDROOT
BRANCH   1   7
ATOM      7  C   UNL     1      44.576   4.382   9.865  0.00  0.00    +0.000 C 
BRANCH   7   8
ATOM      8  O   UNL     1      43.209   4.788  10.053  0.00  0.00    +0.000 OA
BRANCH   8  10
ATOM      9  C   UNL     1      42.239   5.968  11.860  0.00  0.00    +0.000 C 
ATOM     10  C   UNL     1      42.696   4.605  11.371  0.00  0.00    +0.000 C 
ENDBRANCH   8  10
ENDBRANCH   7   8
BRANCH   7  11
ATOM     11  C   UNL     1      44.549   2.901   9.425  0.00  0.00    +0.000 C 
BRANCH  11  12
ATOM     12  C   UNL     1      45.578   2.529   8.384  0.00  0.00    +0.000 A 
ATOM     13  C   UNL     1      45.909   3.436   7.377  0.00  0.00    +0.000 A 
ATOM     14  C   UNL     1      46.764   3.034   6.357  0.00  0.00    +0.000 A 
ATOM     15  C   UNL     1      47.267   1.741   6.363  0.00  0.00    +0.000 A 
ATOM     16  C   UNL     1      46.906   0.907   7.409  0.00  0.00    +0.000 A 
ATOM     17  N   UNL     1      46.077   1.267   8.419  0.00  0.00    +0.000 NA
ENDBRANCH  11  12
ENDBRANCH   7  11
ENDBRANCH   1   7
BRANCH   4  18
ATOM     18  C   UNL     1      47.404   4.869  14.985  0.00  0.00    +0.000 C 
BRANCH  18  19
ATOM     19  N   UNL     1      47.766   6.239  15.234  0.00  0.00    +0.000 N 
ATOM     20  C   UNL     1      48.924   6.541  15.907  0.00  0.00    +0.000 C 
ATOM     21  O   UNL     1      49.708   5.671  16.272  0.00  0.00    +0.000 OA
ATOM     22  H   UNL     1      47.029   6.935  15.163  0.00  0.00    +0.000 HD
BRANCH  20  23
ATOM     23  C   UNL     1      49.209   7.965  16.116  0.00  0.00    +0.000 A 
ATOM     24  C   UNL     1      49.231   8.474  17.408  0.00  0.00    +0.000 A 
ATOM     25  S   UNL     1      49.631  10.129  17.484  0.00  0.00    +0.000 S 
ATOM     26  C   UNL     1      49.737  10.236  15.789  0.00  0.00    +0.000 A 
ATOM     27  N   UNL     1      50.031  11.417  15.181  0.00  0.00    +0.000 NA
ATOM     28  C   UNL     1      50.054  11.361  13.891  0.00  0.00    +0.000 A 
ATOM     29  N   UNL     1      49.814  10.230  13.152  0.00  0.00    +0.000 N 
ATOM     30  C   UNL     1      49.537   9.007  13.723  0.00  0.00    +0.000 A 
ATOM     31  O   UNL     1      49.369   8.003  13.038  0.00  0.00    +0.000 OA
ATOM     32  C   UNL     1      49.491   9.021  15.175  0.00  0.00    +0.000 A 
ATOM     33  H   UNL     1      49.850  10.254  12.144  0.00  0.00    +0.000 HD
ENDBRANCH  20  23
ENDBRANCH  18  19
ENDBRANCH   4  18
TORSDOF 8
ENDMDL
MODEL 4
REMARK VINA RESULT:    -7.250      1.732      2.334
REMARK INTER + INTRA:         -11.526
REMARK INTER:                 -11.095
REMARK INTRA:                  -0.431
REMARK UNBOUND:                -0.886
REMARK  Name = 
REMARK  9 active torsions:
REMARK  status: ('A' for Active; 'I' for Inactive)
REMARK    1  A    between atoms: C_1  and  C_2
REMARK    2  A    between atoms: C_2  and  O_3
REMARK    3  A    between atoms: O_3  and  C_4
REMARK    4  A    between atoms: C_4  and  C_5
REMARK    5  A    between atoms: C_4  and  C_12
REMARK    6  A    between atoms: C_5  and  C_6
REMARK    7  A    between atoms: C_15  and  C_16
REMARK    8  A    between atoms: C_16  and  N_17
REMARK    9  A    between atoms: C_18  and  C_20
REMARK                            x       y       z     vdW  Elec       q    Type
REMARK                         _______ _______ _______ _____ _____    ______ ____
ROOT
ATOM      1  C   UNL     1      45.214   4.668  11.120  0.00  0.00    +0.000 A 
ATOM      2  C   UNL     1      45.666   4.143  12.344  0.00  0.00    +0.000 A 
ATOM      3  C   UNL     1      46.530   4.875  13.169  0.00  0.00    +0.000 A 
ATOM      4  C   UNL     1      46.991   6.135  12.774  0.00  0.00    +0.000 A 
ATOM      5  C   UNL     1      46.608   6.630  11.526  0.00  0.00    +0.000 A 
ATOM      6  C   UNL     1      45.704   5.924  10.733  0.00  0.00    +0.000 A 
ENDROOT
BRANCH   1   7
ATOM      7  C   UNL     1      44.176   3.908  10.283  0.00  0.00    +0.000 C 
BRANCH   7   8
ATOM      8  O   UNL     1      42.944   3.709  10.999  0.00  0.00    +0.000 OA
BRANCH   8  10
ATOM      9  C   UNL     1      42.175   5.823  11.730  0.00  0.00    +0.000 C 
ATOM     10  C   UNL     1      42.787   4.506  12.172  0.00  0.00    +0.000 C 
ENDBRANCH   8  10
ENDBRANCH   7   8
BRANCH   7  11
ATOM     11  C   UNL     1      44.740   2.506   9.959  0.00  0.00    +0.000 C 
BRANCH  11  12
ATOM     12  C   UNL     1      45.621   2.444   8.734  0.00  0.00    +0.000 A 
ATOM     13  C   UNL     1      45.688   3.536   7.870  0.00  0.00    +0.000 A 
ATOM     14  C   UNL     1      46.405   3.418   6.683  0.00  0.00    +0.000 A 
ATOM     15  C   UNL     1      47.034   2.218   6.388  0.00  0.00    +0.000 A 
ATOM     16  C   UNL     1      46.936   1.187   7.307  0.00  0.00    +0.000 A 
ATOM     17  N   UNL     1      46.248   1.268   8.472  0.00  0.00    +0.000 NA
ENDBRANCH  11  12
ENDBRANCH   7  11
ENDBRANCH   1   7
BRANCH   4  18
ATOM     18  C   UNL     1      47.881   6.963  13.658  0.00  0.00    +0.000 C 
BRANCH  18  19
ATOM     19  N   UNL     1      48.269   6.242  14.840  0.00  0.00    +0.000 N 
ATOM     20  C   UNL     1      48.900   6.889  15.874  0.00  0.00    +0.000 C 
ATOM     21  O   UNL     1      49.108   8.098  15.852  0.00  0.00    +0.000 OA
ATOM     22  H   UNL     1      48.329   5.230  14.770  0.00  0.00    +0.000 HD
BRANCH  20  23
ATOM     23  C   UNL     1      49.261   6.072  17.038  0.00  0.00    +0.000 A 
ATOM     24  C   UNL     1      48.260   5.597  17.875  0.00  0.00    +0.000 A 
ATOM     25  S   UNL     1      48.839   4.620  19.146  0.00  0.00    +0.000 S 
ATOM     26  C   UNL     1      50.452   4.843  18.654  0.00  0.00    +0.000 A 
ATOM     27  N   UNL     1      51.478   4.278  19.347  0.00  0.00    +0.000 NA
ATOM     28  C   UNL     1      52.651   4.548  18.878  0.00  0.00    +0.000 A 
ATOM     29  N   UNL     1      52.892   5.330  17.777  0.00  0.00    +0.000 N 
ATOM     30  C   UNL     1      51.887   5.903  17.030  0.00  0.00    +0.000 A 
ATOM     31  O   UNL     1      52.130   6.562  16.023  0.00  0.00    +0.000 OA
ATOM     32  C   UNL     1      50.546   5.634  17.523  0.00  0.00    +0.000 A 
ATOM     33  H   UNL     1      53.836   5.501  17.461  0.00  0.00    +0.000 HD
ENDBRANCH  20  23
ENDBRANCH  18  19
ENDBRANCH   4  18
TORSDOF 8
ENDMDL
MODEL 5
REMARK VINA RESULT:    -6.951      3.420      8.937
REMARK INTER + INTRA:         -11.089
REMARK INTER:                  -9.731
REMARK INTRA:                  -1.358
REMARK UNBOUND:                -0.886
REMARK  Name = 
REMARK  9 active torsions:
REMARK  status: ('A' for Active; 'I' for Inactive)
REMARK    1  A    between atoms: C_1  and  C_2
REMARK    2  A    between atoms: C_2  and  O_3
REMARK    3  A    between atoms: O_3  and  C_4
REMARK    4  A    between atoms: C_4  and  C_5
REMARK    5  A    between atoms: C_4  and  C_12
REMARK    6  A    between atoms: C_5  and  C_6
REMARK    7  A    between atoms: C_15  and  C_16
REMARK    8  A    between atoms: C_16  and  N_17
REMARK    9  A    between atoms: C_18  and  C_20
REMARK                            x       y       z     vdW  Elec       q    Type
REMARK                         _______ _______ _______ _____ _____    ______ ____
ROOT
ATOM      1  C   UNL     1      49.568   6.361  16.654  0.00  0.00    +0.000 A 
ATOM      2  C   UNL     1      48.440   5.801  16.026  0.00  0.00    +0.000 A 
ATOM      3  C   UNL     1      48.048   6.212  14.746  0.00  0.00    +0.000 A 
ATOM      4  C   UNL     1      48.753   7.217  14.075  0.00  0.00    +0.000 A 
ATOM      5  C   UNL     1      49.827   7.831  14.723  0.00  0.00    +0.000 A 
ATOM      6  C   UNL     1      50.248   7.381  15.974  0.00  0.00    +0.000 A 
ENDROOT
BRANCH   1   7
ATOM      7  C   UNL     1      50.056   5.819  18.004  0.00  0.00    +0.000 C 
BRANCH   7   8
ATOM      8  O   UNL     1      50.092   6.841  19.016  0.00  0.00    +0.000 OA
BRANCH   8  10
ATOM      9  C   UNL     1      48.625   5.302  20.055  0.00  0.00    +0.000 C 
ATOM     10  C   UNL     1      49.589   6.450  20.293  0.00  0.00    +0.000 C 
ENDBRANCH   8  10
ENDBRANCH   7   8
BRANCH   7  11
ATOM     11  C   UNL     1      51.503   5.305  17.832  0.00  0.00    +0.000 C 
BRANCH  11  12
ATOM     12  C   UNL     1      51.645   3.802  17.815  0.00  0.00    +0.000 A 
ATOM     13  C   UNL     1      52.841   3.212  18.223  0.00  0.00    +0.000 A 
ATOM     14  C   UNL     1      53.001   1.837  18.085  0.00  0.00    +0.000 A 
ATOM     15  C   UNL     1      51.968   1.086  17.543  0.00  0.00    +0.000 A 
ATOM     16  C   UNL     1      50.804   1.744  17.180  0.00  0.00    +0.000 A 
ATOM     17  N   UNL     1      50.615   3.080  17.303  0.00  0.00    +0.000 NA
ENDBRANCH  11  12
ENDBRANCH   7  11
ENDBRANCH   1   7
BRANCH   4  18
ATOM     18  C   UNL     1      48.384   7.646  12.683  0.00  0.00    +0.000 C 
BRANCH  18  19
ATOM     19  N   UNL     1      47.660   6.617  11.987  0.00  0.00    +0.000 N 
ATOM     20  C   UNL     1      46.358   6.822  11.603  0.00  0.00    +0.000 C 
ATOM     21  O   UNL     1      45.786   7.891  11.790  0.00  0.00    +0.000 OA
ATOM     22  H   UNL     1      48.023   5.670  12.047  0.00  0.00    +0.000 HD
BRANCH  20  23
ATOM     23  C   UNL     1      45.698   5.715  10.902  0.00  0.00    +0.000 A 
ATOM     24  C   UNL     1      45.830   5.606   9.523  0.00  0.00    +0.000 A 
ATOM     25  S   UNL     1      45.052   4.237   8.869  0.00  0.00    +0.000 S 
ATOM     26  C   UNL     1      44.467   3.772  10.397  0.00  0.00    +0.000 A 
ATOM     27  N   UNL     1      43.688   2.666  10.540  0.00  0.00    +0.000 NA
ATOM     28  C   UNL     1      43.293   2.444  11.750  0.00  0.00    +0.000 A 
ATOM     29  N   UNL     1      43.610   3.226  12.832  0.00  0.00    +0.000 N 
ATOM     30  C   UNL     1      44.414   4.341  12.741  0.00  0.00    +0.000 A 
ATOM     31  O   UNL     1      44.716   4.997  13.734  0.00  0.00    +0.000 OA
ATOM     32  C   UNL     1      44.877   4.637  11.396  0.00  0.00    +0.000 A 
ATOM     33  H   UNL     1      43.269   2.995  13.754  0.00  0.00    +0.000 HD
ENDBRANCH  20  23
ENDBRANCH  18  19
ENDBRANCH   4  18
TORSDOF 8
ENDMDL
MODEL 6
REMARK VINA RESULT:    -6.949      3.835      5.353
REMARK INTER + INTRA:         -11.084
REMARK INTER:                  -9.738
REMARK INTRA:                  -1.346
REMARK UNBOUND:                -0.886
REMARK  Name = 
REMARK  9 active torsions:
REMARK  status: ('A' for Active; 'I' for Inactive)
REMARK    1  A    between atoms: C_1  and  C_2
REMARK    2  A    between atoms: C_2  and  O_3
REMARK    3  A    between atoms: O_3  and  C_4
REMARK    4  A    between atoms: C_4  and  C_5
REMARK    5  A    between atoms: C_4  and  C_12
REMARK    6  A    between atoms: C_5  and  C_6
REMARK    7  A    between atoms: C_15  and  C_16
REMARK    8  A    between atoms: C_16  and  N_17
REMARK    9  A    between atoms: C_18  and  C_20
REMARK                            x       y       z     vdW  Elec       q    Type
REMARK                         _______ _______ _______ _____ _____    ______ ____
ROOT
ATOM      1  C   UNL     1      47.097   5.765  13.630  0.00  0.00    +0.000 A 
ATOM      2  C   UNL     1      48.038   6.549  14.321  0.00  0.00    +0.000 A 
ATOM      3  C   UNL     1      48.516   6.161  15.580  0.00  0.00    +0.000 A 
ATOM      4  C   UNL     1      48.038   4.997  16.193  0.00  0.00    +0.000 A 
ATOM      5  C   UNL     1      47.048   4.256  15.547  0.00  0.00    +0.000 A 
ATOM      6  C   UNL     1      46.615   4.614  14.270  0.00  0.00    +0.000 A 
ENDROOT
BRANCH   1   7
ATOM      7  C   UNL     1      46.672   6.138  12.203  0.00  0.00    +0.000 C 
BRANCH   7   8
ATOM      8  O   UNL     1      46.646   7.563  12.002  0.00  0.00    +0.000 OA
BRANCH   8  10
ATOM      9  C   UNL     1      45.551   9.659  11.927  0.00  0.00    +0.000 C 
ATOM     10  C   UNL     1      45.408   8.198  12.315  0.00  0.00    +0.000 C 
ENDBRANCH   8  10
ENDBRANCH   7   8
BRANCH   7  11
ATOM     11  C   UNL     1      45.233   5.625  11.971  0.00  0.00    +0.000 C 
BRANCH  11  12
ATOM     12  C   UNL     1      45.066   4.725  10.770  0.00  0.00    +0.000 A 
ATOM     13  C   UNL     1      44.526   3.448  10.927  0.00  0.00    +0.000 A 
ATOM     14  C   UNL     1      44.494   2.587   9.835  0.00  0.00    +0.000 A 
ATOM     15  C   UNL     1      45.000   3.017   8.617  0.00  0.00    +0.000 A 
ATOM     16  C   UNL     1      45.502   4.306   8.538  0.00  0.00    +0.000 A 
ATOM     17  N   UNL     1      45.546   5.171   9.580  0.00  0.00    +0.000 NA
ENDBRANCH  11  12
ENDBRANCH   7  11
ENDBRANCH   1   7
BRANCH   4  18
ATOM     18  C   UNL     1      48.565   4.532  17.521  0.00  0.00    +0.000 C 
BRANCH  18  19
ATOM     19  N   UNL     1      49.924   4.074  17.420  0.00  0.00    +0.000 N 
ATOM     20  C   UNL     1      50.790   4.226  18.475  0.00  0.00    +0.000 C 
ATOM     21  O   UNL     1      50.430   4.704  19.546  0.00  0.00    +0.000 OA
ATOM     22  H   UNL     1      50.293   3.912  16.487  0.00  0.00    +0.000 HD
BRANCH  20  23
ATOM     23  C   UNL     1      52.157   3.731  18.279  0.00  0.00    +0.000 A 
ATOM     24  C   UNL     1      53.231   4.574  18.532  0.00  0.00    +0.000 A 
ATOM     25  S   UNL     1      54.749   3.832  18.310  0.00  0.00    +0.000 S 
ATOM     26  C   UNL     1      54.025   2.374  17.816  0.00  0.00    +0.000 A 
ATOM     27  N   UNL     1      54.784   1.306  17.451  0.00  0.00    +0.000 NA
ATOM     28  C   UNL     1      54.106   0.273  17.074  0.00  0.00    +0.000 A 
ATOM     29  N   UNL     1      52.735   0.210  17.033  0.00  0.00    +0.000 N 
ATOM     30  C   UNL     1      51.925   1.256  17.415  0.00  0.00    +0.000 A 
ATOM     31  O   UNL     1      50.702   1.157  17.409  0.00  0.00    +0.000 OA
ATOM     32  C   UNL     1      52.644   2.446  17.840  0.00  0.00    +0.000 A 
ATOM     33  H   UNL     1      52.266  -0.630  16.729  0.00  0.00    +0.000 HD
ENDBRANCH  20  23
ENDBRANCH  18  19
ENDBRANCH   4  18
TORSDOF 8
ENDMDL
MODEL 7
REMARK VINA RESULT:    -6.866      3.599      5.314
REMARK INTER + INTRA:         -10.963
REMARK INTER:                  -9.561
REMARK INTRA:                  -1.402
REMARK UNBOUND:                -0.886
REMARK  Name = 
REMARK  9 active torsions:
REMARK  status: ('A' for Active; 'I' for Inactive)
REMARK    1  A    between atoms: C_1  and  C_2
REMARK    2  A    between atoms: C_2  and  O_3
REMARK    3  A    between atoms: O_3  and  C_4
REMARK    4  A    between atoms: C_4  and  C_5
REMARK    5  A    between atoms: C_4  and  C_12
REMARK    6  A    between atoms: C_5  and  C_6
REMARK    7  A    between atoms: C_15  and  C_16
REMARK    8  A    between atoms: C_16  and  N_17
REMARK    9  A    between atoms: C_18  and  C_20
REMARK                            x       y       z     vdW  Elec       q    Type
REMARK                         _______ _______ _______ _____ _____    ______ ____
ROOT
ATOM      1  C   UNL     1      47.377   5.684  14.063  0.00  0.00    +0.000 A 
ATOM      2  C   UNL     1      46.942   4.347  14.069  0.00  0.00    +0.000 A 
ATOM      3  C   UNL     1      47.140   3.528  15.188  0.00  0.00    +0.000 A 
ATOM      4  C   UNL     1      47.809   4.015  16.316  0.00  0.00    +0.000 A 
ATOM      5  C   UNL     1      48.312   5.317  16.288  0.00  0.00    +0.000 A 
ATOM      6  C   UNL     1      48.065   6.147  15.195  0.00  0.00    +0.000 A 
ENDROOT
BRANCH   1   7
ATOM      7  C   UNL     1      47.050   6.604  12.879  0.00  0.00    +0.000 C 
BRANCH   7   8
ATOM      8  O   UNL     1      47.427   7.969  13.134  0.00  0.00    +0.000 OA
BRANCH   8  10
ATOM      9  C   UNL     1      49.402   7.913  11.831  0.00  0.00    +0.000 C 
ATOM     10  C   UNL     1      48.082   8.630  12.052  0.00  0.00    +0.000 C 
ENDBRANCH   8  10
ENDBRANCH   7   8
BRANCH   7  11
ATOM     11  C   UNL     1      45.520   6.594  12.660  0.00  0.00    +0.000 C 
BRANCH  11  12
ATOM     12  C   UNL     1      45.054   5.778  11.478  0.00  0.00    +0.000 A 
ATOM     13  C   UNL     1      43.926   4.966  11.595  0.00  0.00    +0.000 A 
ATOM     14  C   UNL     1      43.582   4.128  10.540  0.00  0.00    +0.000 A 
ATOM     15  C   UNL     1      44.368   4.118   9.397  0.00  0.00    +0.000 A 
ATOM     16  C   UNL     1      45.462   4.967   9.351  0.00  0.00    +0.000 A 
ATOM     17  N   UNL     1      45.824   5.798  10.359  0.00  0.00    +0.000 NA
ENDBRANCH  11  12
ENDBRANCH   7  11
ENDBRANCH   1   7
BRANCH   4  18
ATOM     18  C   UNL     1      47.997   3.175  17.547  0.00  0.00    +0.000 C 
BRANCH  18  19
ATOM     19  N   UNL     1      49.388   3.015  17.872  0.00  0.00    +0.000 N 
ATOM     20  C   UNL     1      50.188   2.194  17.116  0.00  0.00    +0.000 C 
ATOM     21  O   UNL     1      49.767   1.615  16.120  0.00  0.00    +0.000 OA
ATOM     22  H   UNL     1      49.682   3.280  18.808  0.00  0.00    +0.000 HD
BRANCH  20  23
ATOM     23  C   UNL     1      51.594   2.091  17.523  0.00  0.00    +0.000 A 
ATOM     24  C   UNL     1      52.153   0.837  17.736  0.00  0.00    +0.000 A 
ATOM     25  S   UNL     1      53.806   0.888  18.149  0.00  0.00    +0.000 S 
ATOM     26  C   UNL     1      53.819   2.588  18.111  0.00  0.00    +0.000 A 
ATOM     27  N   UNL     1      54.951   3.285  18.401  0.00  0.00    +0.000 NA
ATOM     28  C   UNL     1      54.814   4.568  18.359  0.00  0.00    +0.000 A 
ATOM     29  N   UNL     1      53.647   5.220  18.050  0.00  0.00    +0.000 N 
ATOM     30  C   UNL     1      52.482   4.559  17.726  0.00  0.00    +0.000 A 
ATOM     31  O   UNL     1      51.465   5.169  17.410  0.00  0.00    +0.000 OA
ATOM     32  C   UNL     1      52.585   3.110  17.767  0.00  0.00    +0.000 A 
ATOM     33  H   UNL     1      53.607   6.229  18.032  0.00  0.00    +0.000 HD
ENDBRANCH  20  23
ENDBRANCH  18  19
ENDBRANCH   4  18
TORSDOF 8
ENDMDL
MODEL 8
REMARK VINA RESULT:    -6.834      2.555      3.150
REMARK INTER + INTRA:         -10.917
REMARK INTER:                 -10.034
REMARK INTRA:                  -0.883
REMARK UNBOUND:                -0.886
REMARK  Name = 
REMARK  9 active torsions:
REMARK  status: ('A' for Active; 'I' for Inactive)
REMARK    1  A    between atoms: C_1  and  C_2
REMARK    2  A    between atoms: C_2  and  O_3
REMARK    3  A    between atoms: O_3  and  C_4
REMARK    4  A    between atoms: C_4  and  C_5
REMARK    5  A    between atoms: C_4  and  C_12
REMARK    6  A    between atoms: C_5  and  C_6
REMARK    7  A    between atoms: C_15  and  C_16
REMARK    8  A    between atoms: C_16  and  N_17
REMARK    9  A    between atoms: C_18  and  C_20
REMARK                            x       y       z     vdW  Elec       q    Type
REMARK                         _______ _______ _______ _____ _____    ______ ____
ROOT
ATOM      1  C   UNL     1      45.616   4.470  11.476  0.00  0.00    +0.000 A 
ATOM      2  C   UNL     1      45.726   3.373  12.350  0.00  0.00    +0.000 A 
ATOM      3  C   UNL     1      46.184   3.540  13.663  0.00  0.00    +0.000 A 
ATOM      4  C   UNL     1      46.576   4.802  14.124  0.00  0.00    +0.000 A 
ATOM      5  C   UNL     1      46.542   5.881  13.239  0.00  0.00    +0.000 A 
ATOM      6  C   UNL     1      46.033   5.722  11.950  0.00  0.00    +0.000 A 
ENDROOT
BRANCH   1   7
ATOM      7  C   UNL     1      45.002   4.293  10.080  0.00  0.00    +0.000 C 
BRANCH   7   8
ATOM      8  O   UNL     1      43.619   4.689  10.043  0.00  0.00    +0.000 OA
BRANCH   8  10
ATOM      9  C   UNL     1      42.295   5.675  11.738  0.00  0.00    +0.000 C 
ATOM     10  C   UNL     1      42.864   4.370  11.212  0.00  0.00    +0.000 C 
ENDBRANCH   8  10
ENDBRANCH   7   8
BRANCH   7  11
ATOM     11  C   UNL     1      45.050   2.794   9.710  0.00  0.00    +0.000 C 
BRANCH  11  12
ATOM     12  C   UNL     1      45.884   2.467   8.494  0.00  0.00    +0.000 A 
ATOM     13  C   UNL     1      46.092   3.436   7.513  0.00  0.00    +0.000 A 
ATOM     14  C   UNL     1      46.756   3.083   6.342  0.00  0.00    +0.000 A 
ATOM     15  C   UNL     1      47.193   1.777   6.178  0.00  0.00    +0.000 A 
ATOM     16  C   UNL     1      46.964   0.879   7.207  0.00  0.00    +0.000 A 
ATOM     17  N   UNL     1      46.323   1.189   8.360  0.00  0.00    +0.000 NA
ENDBRANCH  11  12
ENDBRANCH   7  11
ENDBRANCH   1   7
BRANCH   4  18
ATOM     18  C   UNL     1      47.028   5.020  15.541  0.00  0.00    +0.000 C 
BRANCH  18  19
ATOM     19  N   UNL     1      48.247   4.311  15.821  0.00  0.00    +0.000 N 
ATOM     20  C   UNL     1      48.668   4.136  17.116  0.00  0.00    +0.000 C 
ATOM     21  O   UNL     1      48.005   4.526  18.072  0.00  0.00    +0.000 OA
ATOM     22  H   UNL     1      48.911   4.207  15.058  0.00  0.00    +0.000 HD
BRANCH  20  23
ATOM     23  C   UNL     1      49.925   3.404  17.304  0.00  0.00    +0.000 A 
ATOM     24  C   UNL     1      49.936   2.021  17.179  0.00  0.00    +0.000 A 
ATOM     25  S   UNL     1      51.481   1.328  17.372  0.00  0.00    +0.000 S 
ATOM     26  C   UNL     1      52.181   2.847  17.685  0.00  0.00    +0.000 A 
ATOM     27  N   UNL     1      53.509   2.960  17.960  0.00  0.00    +0.000 NA
ATOM     28  C   UNL     1      53.903   4.166  18.202  0.00  0.00    +0.000 A 
ATOM     29  N   UNL     1      53.089   5.272  18.190  0.00  0.00    +0.000 N 
ATOM     30  C   UNL     1      51.746   5.211  17.893  0.00  0.00    +0.000 A 
ATOM     31  O   UNL     1      51.052   6.222  17.846  0.00  0.00    +0.000 OA
ATOM     32  C   UNL     1      51.253   3.871  17.621  0.00  0.00    +0.000 A 
ATOM     33  H   UNL     1      53.462   6.189  18.386  0.00  0.00    +0.000 HD
ENDBRANCH  20  23
ENDBRANCH  18  19
ENDBRANCH   4  18
TORSDOF 8
ENDMDL
MODEL 9
REMARK VINA RESULT:    -6.788      2.874      9.115
REMARK INTER + INTRA:         -10.848
REMARK INTER:                  -9.112
REMARK INTRA:                  -1.737
REMARK UNBOUND:                -0.886
REMARK  Name = 
REMARK  9 active torsions:
REMARK  status: ('A' for Active; 'I' for Inactive)
REMARK    1  A    between atoms: C_1  and  C_2
REMARK    2  A    between atoms: C_2  and  O_3
REMARK    3  A    between atoms: O_3  and  C_4
REMARK    4  A    between atoms: C_4  and  C_5
REMARK    5  A    between atoms: C_4  and  C_12
REMARK    6  A    between atoms: C_5  and  C_6
REMARK    7  A    between atoms: C_15  and  C_16
REMARK    8  A    between atoms: C_16  and  N_17
REMARK    9  A    between atoms: C_18  and  C_20
REMARK                            x       y       z     vdW  Elec       q    Type
REMARK                         _______ _______ _______ _____ _____    ______ ____
ROOT
ATOM      1  C   UNL     1      49.538   8.123  15.574  0.00  0.00    +0.000 A 
ATOM      2  C   UNL     1      48.304   8.764  15.365  0.00  0.00    +0.000 A 
ATOM      3  C   UNL     1      47.663   8.708  14.121  0.00  0.00    +0.000 A 
ATOM      4  C   UNL     1      48.256   8.038  13.046  0.00  0.00    +0.000 A 
ATOM      5  C   UNL     1      49.517   7.466  13.224  0.00  0.00    +0.000 A 
ATOM      6  C   UNL     1      50.127   7.476  14.478  0.00  0.00    +0.000 A 
ENDROOT
BRANCH   1   7
ATOM      7  C   UNL     1      50.172   8.092  16.972  0.00  0.00    +0.000 C 
BRANCH   7   8
ATOM      8  O   UNL     1      51.411   8.821  17.020  0.00  0.00    +0.000 OA
BRANCH   8  10
ATOM      9  C   UNL     1      50.101  10.160  18.466  0.00  0.00    +0.000 C 
ATOM     10  C   UNL     1      51.321  10.138  17.563  0.00  0.00    +0.000 C 
ENDBRANCH   8  10
ENDBRANCH   7   8
BRANCH   7  11
ATOM     11  C   UNL     1      50.499   6.625  17.329  0.00  0.00    +0.000 C 
BRANCH  11  12
ATOM     12  C   UNL     1      49.307   5.699  17.364  0.00  0.00    +0.000 A 
ATOM     13  C   UNL     1      48.209   6.009  18.165  0.00  0.00    +0.000 A 
ATOM     14  C   UNL     1      47.174   5.087  18.283  0.00  0.00    +0.000 A 
ATOM     15  C   UNL     1      47.259   3.881  17.602  0.00  0.00    +0.000 A 
ATOM     16  C   UNL     1      48.374   3.657  16.811  0.00  0.00    +0.000 A 
ATOM     17  N   UNL     1      49.399   4.533  16.673  0.00  0.00    +0.000 NA
ENDBRANCH  11  12
ENDBRANCH   7  11
ENDBRANCH   1   7
BRANCH   4  18
ATOM     18  C   UNL     1      47.571   7.922  11.713  0.00  0.00    +0.000 C 
BRANCH  18  19
ATOM     19  N   UNL     1      46.897   6.660  11.573  0.00  0.00    +0.000 N 
ATOM     20  C   UNL     1      45.529   6.589  11.661  0.00  0.00    +0.000 C 
ATOM     21  O   UNL     1      44.835   7.590  11.808  0.00  0.00    +0.000 OA
ATOM     22  H   UNL     1      47.453   5.819  11.699  0.00  0.00    +0.000 HD
BRANCH  20  23
ATOM     23  C   UNL     1      44.929   5.259  11.508  0.00  0.00    +0.000 A 
ATOM     24  C   UNL     1      44.225   4.701  12.568  0.00  0.00    +0.000 A 
ATOM     25  S   UNL     1      43.545   3.180  12.211  0.00  0.00    +0.000 S 
ATOM     26  C   UNL     1      44.213   3.188  10.647  0.00  0.00    +0.000 A 
ATOM     27  N   UNL     1      44.025   2.138   9.802  0.00  0.00    +0.000 NA
ATOM     28  C   UNL     1      44.608   2.264   8.656  0.00  0.00    +0.000 A 
ATOM     29  N   UNL     1      45.360   3.348   8.276  0.00  0.00    +0.000 N 
ATOM     30  C   UNL     1      45.558   4.444   9.086  0.00  0.00    +0.000 A 
ATOM     31  O   UNL     1      46.199   5.418   8.704  0.00  0.00    +0.000 OA
ATOM     32  C   UNL     1      44.927   4.345  10.392  0.00  0.00    +0.000 A 
ATOM     33  H   UNL     1      45.787   3.385   7.363  0.00  0.00    +0.000 HD
ENDBRANCH  20  23
ENDBRANCH  18  19
ENDBRANCH   4  18
TORSDOF 8
ENDMDL
