MODEL 1
REMARK VINA RESULT:    -8.293      0.000      0.000
REMARK INTER + INTRA:         -13.212
REMARK INTER:                 -12.171
REMARK INTRA:                  -1.040
REMARK UNBOUND:                -1.040
REMARK  Name = 
REMARK  9 active torsions:
REMARK  status: ('A' for Active; 'I' for Inactive)
REMARK    1  A    between atoms: C_1  and  N_2
REMARK    2  A    between atoms: N_2  and  C_3
REMARK    3  A    between atoms: C_3  and  C_4
REMARK    4  A    between atoms: C_3  and  C_25
REMARK    5  A    between atoms: C_4  and  C_5
REMARK    6  A    between atoms: C_8  and  C_9
REMARK    7  A    between atoms: C_9  and  N_10
REMARK    8  A    between atoms: C_11  and  C_13
REMARK    9  A    between atoms: C_25  and  C_26
REMARK                            x       y       z     vdW  Elec       q    Type
REMARK                         _______ _______ _______ _____ _____    ______ ____
ROOT
ATOM      1  C   UNL     1      45.870   4.780  12.701  0.00  0.00    +0.000 A 
ATOM      2  C   UNL     1      46.330   6.022  12.244  0.00  0.00    +0.000 A 
ATOM      3  C   UNL     1      47.243   6.769  13.006  0.00  0.00    +0.000 A 
ATOM      4  C   UNL     1      47.761   6.265  14.207  0.00  0.00    +0.000 A 
ATOM      5  C   UNL     1      47.381   4.978  14.605  0.00  0.00    +0.000 A 
ATOM      6  C   UNL     1      46.444   4.247  13.864  0.00  0.00    +0.000 A 
ENDROOT
BRANCH   1   7
ATOM      7  C   UNL     1      44.679   4.091  12.055  0.00  0.00    +0.000 C 
BRANCH   7   8
ATOM      8  C   UNL     1      44.445   4.311  10.542  0.00  0.00    +0.000 C 
BRANCH   8  10
ATOM      9  C   UNL     1      42.563   5.671  11.448  0.00  0.00    +0.000 C 
ATOM     10  N   UNL     1      43.330   5.259  10.280  0.00  0.00    +0.000 NA
ATOM     11  H   UNL     1      43.658   6.077   9.771  0.00  0.00    +0.000 HD
ENDBRANCH   8  10
BRANCH   8  12
ATOM     12  C   UNL     1      44.280   2.976   9.770  0.00  0.00    +0.000 C 
BRANCH  12  13
ATOM     13  C   UNL     1      45.381   2.743   8.762  0.00  0.00    +0.000 A 
ATOM     14  C   UNL     1      45.826   3.790   7.956  0.00  0.00    +0.000 A 
ATOM     15  C   UNL     1      46.737   3.518   6.943  0.00  0.00    +0.000 A 
ATOM     16  C   UNL     1      47.204   2.220   6.781  0.00  0.00    +0.000 A 
ATOM     17  C   UNL     1      46.752   1.249   7.657  0.00  0.00    +0.000 A 
ATOM     18  N   UNL     1      45.860   1.480   8.645  0.00  0.00    +0.000 NA
ENDBRANCH  12  13
ENDBRANCH   8  12
ENDBRANCH   7   8
ENDBRANCH   1   7
BRANCH   4  19
ATOM     19  C   UNL     1      48.658   7.103  15.087  0.00  0.00    +0.000 C 
BRANCH  19  20
ATOM     20  N   UNL     1      49.733   6.320  15.660  0.00  0.00    +0.000 N 
ATOM     21  C   UNL     1      49.663   5.855  16.949  0.00  0.00    +0.000 C 
ATOM     22  O   UNL     1      48.674   6.041  17.652  0.00  0.00    +0.000 OA
ATOM     23  H   UNL     1      50.632   6.342  15.186  0.00  0.00    +0.000 HD
BRANCH  21  24
ATOM     24  C   UNL     1      50.804   5.066  17.434  0.00  0.00    +0.000 A 
ATOM     25  C   UNL     1      51.916   5.713  17.957  0.00  0.00    +0.000 A 
ATOM     26  S   UNL     1      53.141   4.652  18.489  0.00  0.00    +0.000 S 
ATOM     27  C   UNL     1      52.256   3.290  17.982  0.00  0.00    +0.000 A 
ATOM     28  N   UNL     1      52.766   2.034  18.106  0.00  0.00    +0.000 NA
ATOM     29  C   UNL     1      52.001   1.098  17.660  0.00  0.00    +0.000 A 
ATOM     30  N   UNL     1      50.767   1.303  17.097  0.00  0.00    +0.000 N 
ATOM     31  C   UNL     1      50.190   2.548  16.996  0.00  0.00    +0.000 A 
ATOM     32  O   UNL     1      49.044   2.688  16.571  0.00  0.00    +0.000 OA
ATOM     33  C   UNL     1      51.024   3.640  17.460  0.00  0.00    +0.000 A 
ATOM     34  H   UNL     1      50.210   0.524  16.782  0.00  0.00    +0.000 HD
ENDBRANCH  21  24
ENDBRANCH  19  20
ENDBRANCH   4  19
TORSDOF 8
ENDMDL
MODEL 2
REMARK VINA RESULT:    -8.213      2.770      5.226
REMARK INTER + INTRA:         -13.094
REMARK INTER:                 -12.284
REMARK INTRA:                  -0.810
REMARK UNBOUND:                -1.040
REMARK  Name = 
REMARK  9 active torsions:
REMARK  status: ('A' for Active; 'I' for Inactive)
REMARK    1  A    between atoms: C_1  and  N_2
REMARK    2  A    between atoms: N_2  and  C_3
REMARK    3  A    between atoms: C_3  and  C_4
REMARK    4  A    between atoms: C_3  and  C_25
REMARK    5  A    between atoms: C_4  and  C_5
REMARK    6  A    between atoms: C_8  and  C_9
REMARK    7  A    between atoms: C_9  and  N_10
REMARK    8  A    between atoms: C_11  and  C_13
REMARK    9  A    between atoms: C_25  and  C_26
REMARK                            x       y       z     vdW  Elec       q    Type
REMARK                         _______ _______ _______ _____ _____    ______ ____
ROOT
ATOM      1  C   UNL     1      45.559   3.878   8.207  0.00  0.00    +0.000 A 
ATOM      2  C   UNL     1      44.763   2.847   8.724  0.00  0.00    +0.000 A 
ATOM      3  C   UNL     1      44.376   2.852  10.073  0.00  0.00    +0.000 A 
ATOM      4  C   UNL     1      44.724   3.915  10.919  0.00  0.00    +0.000 A 
ATOM      5  C   UNL     1      45.428   4.995  10.371  0.00  0.00    +0.000 A 
ATOM      6  C   UNL     1      45.844   4.973   9.034  0.00  0.00    +0.000 A 
ENDROOT
BRANCH   1   7
ATOM      7  C   UNL     1      46.228   3.754   6.848  0.00  0.00    +0.000 C 
BRANCH   7   8
ATOM      8  C   UNL     1      46.564   2.337   6.328  0.00  0.00    +0.000 C 
BRANCH   8  10
ATOM      9  C   UNL     1      46.822   0.265   7.690  0.00  0.00    +0.000 C 
ATOM     10  N   UNL     1      47.370   1.559   7.305  0.00  0.00    +0.000 NA
ATOM     11  H   UNL     1      48.329   1.450   6.983  0.00  0.00    +0.000 HD
ENDBRANCH   8  10
BRANCH   8  12
ATOM     12  C   UNL     1      47.206   2.362   4.917  0.00  0.00    +0.000 C 
BRANCH  12  13
ATOM     13  C   UNL     1      46.805   1.178   4.070  0.00  0.00    +0.000 A 
ATOM     14  C   UNL     1      45.876   1.334   3.042  0.00  0.00    +0.000 A 
ATOM     15  C   UNL     1      45.419   0.206   2.371  0.00  0.00    +0.000 A 
ATOM     16  C   UNL     1      45.923  -1.040   2.719  0.00  0.00    +0.000 A 
ATOM     17  C   UNL     1      46.883  -1.103   3.715  0.00  0.00    +0.000 A 
ATOM     18  N   UNL     1      47.339  -0.027   4.391  0.00  0.00    +0.000 NA
ENDBRANCH  12  13
ENDBRANCH   8  12
ENDBRANCH   7   8
ENDBRANCH   1   7
BRANCH   4  19
ATOM     19  C   UNL     1      44.408   3.880  12.395  0.00  0.00    +0.000 C 
BRANCH  19  20
ATOM     20  N   UNL     1      45.324   4.697  13.162  0.00  0.00    +0.000 N 
ATOM     21  C   UNL     1      46.442   4.154  13.743  0.00  0.00    +0.000 C 
ATOM     22  O   UNL     1      46.737   2.971  13.601  0.00  0.00    +0.000 OA
ATOM     23  H   UNL     1      44.994   5.607  13.470  0.00  0.00    +0.000 HD
BRANCH  21  24
ATOM     24  C   UNL     1      47.311   5.071  14.495  0.00  0.00    +0.000 A 
ATOM     25  C   UNL     1      47.908   6.143  13.845  0.00  0.00    +0.000 A 
ATOM     26  S   UNL     1      48.868   7.117  14.864  0.00  0.00    +0.000 S 
ATOM     27  C   UNL     1      48.571   6.105  16.200  0.00  0.00    +0.000 A 
ATOM     28  N   UNL     1      49.147   6.349  17.409  0.00  0.00    +0.000 NA
ATOM     29  C   UNL     1      48.856   5.490  18.325  0.00  0.00    +0.000 A 
ATOM     30  N   UNL     1      48.039   4.404  18.142  0.00  0.00    +0.000 N 
ATOM     31  C   UNL     1      47.396   4.145  16.954  0.00  0.00    +0.000 A 
ATOM     32  O   UNL     1      46.597   3.215  16.850  0.00  0.00    +0.000 OA
ATOM     33  C   UNL     1      47.713   5.068  15.881  0.00  0.00    +0.000 A 
ATOM     34  H   UNL     1      47.838   3.778  18.907  0.00  0.00    +0.000 HD
ENDBRANCH  21  24
ENDBRANCH  19  20
ENDBRANCH   4  19
TORSDOF 8
ENDMDL
MODEL 3
REMARK VINA RESULT:    -8.118      2.346      2.808
REMARK INTER + INTRA:         -12.955
REMARK INTER:                 -11.861
REMARK INTRA:                  -1.094
REMARK UNBOUND:                -1.040
REMARK  Name = 
REMARK  9 active torsions:
REMARK  status: ('A' for Active; 'I' for Inactive)
REMARK    1  A    between atoms: C_1  and  N_2
REMARK    2  A    between atoms: N_2  and  C_3
REMARK    3  A    between atoms: C_3  and  C_4
REMARK    4  A    between atoms: C_3  and  C_25
REMARK    5  A    between atoms: C_4  and  C_5
REMARK    6  A    between atoms: C_8  and  C_9
REMARK    7  A    between atoms: C_9  and  N_10
REMARK    8  A    between atoms: C_11  and  C_13
REMARK    9  A    between atoms: C_25  and  C_26
REMARK                            x       y       z     vdW  Elec       q    Type
REMARK                         _______ _______ _______ _____ _____    ______ ____
ROOT
ATOM      1  C   UNL     1      45.871   4.287  12.676  0.00  0.00    +0.000 A 
ATOM      2  C   UNL     1      46.419   4.148  13.959  0.00  0.00    +0.000 A 
ATOM      3  C   UNL     1      47.260   5.140  14.488  0.00  0.00    +0.000 A 
ATOM      4  C   UNL     1      47.522   6.318  13.774  0.00  0.00    +0.000 A 
ATOM      5  C   UNL     1      46.886   6.501  12.539  0.00  0.00    +0.000 A 
ATOM      6  C   UNL     1      46.076   5.496  11.996  0.00  0.00    +0.000 A 
ENDROOT
BRANCH   1   7
ATOM      7  C   UNL     1      45.206   3.118  11.969  0.00  0.00    +0.000 C 
BRANCH   7   8
ATOM      8  C   UNL     1      44.206   3.429  10.831  0.00  0.00    +0.000 C 
BRANCH   8  10
ATOM      9  C   UNL     1      42.535   5.114  11.594  0.00  0.00    +0.000 C 
ATOM     10  N   UNL     1      42.841   3.711  11.348  0.00  0.00    +0.000 NA
ATOM     11  H   UNL     1      42.131   3.300  10.747  0.00  0.00    +0.000 HD
ENDBRANCH   8  10
BRANCH   8  12
ATOM     12  C   UNL     1      44.208   2.340   9.729  0.00  0.00    +0.000 C 
BRANCH  12  13
ATOM     13  C   UNL     1      45.363   2.484   8.765  0.00  0.00    +0.000 A 
ATOM     14  C   UNL     1      45.657   3.726   8.204  0.00  0.00    +0.000 A 
ATOM     15  C   UNL     1      46.631   3.805   7.217  0.00  0.00    +0.000 A 
ATOM     16  C   UNL     1      47.308   2.653   6.839  0.00  0.00    +0.000 A 
ATOM     17  C   UNL     1      46.993   1.468   7.483  0.00  0.00    +0.000 A 
ATOM     18  N   UNL     1      46.045   1.358   8.438  0.00  0.00    +0.000 NA
ENDBRANCH  12  13
ENDBRANCH   8  12
ENDBRANCH   7   8
ENDBRANCH   1   7
BRANCH   4  19
ATOM     19  C   UNL     1      48.508   7.342  14.284  0.00  0.00    +0.000 C 
BRANCH  19  20
ATOM     20  N   UNL     1      48.481   7.443  15.728  0.00  0.00    +0.000 N 
ATOM     21  C   UNL     1      49.437   6.832  16.500  0.00  0.00    +0.000 C 
ATOM     22  O   UNL     1      50.375   6.216  16.003  0.00  0.00    +0.000 OA
ATOM     23  H   UNL     1      47.614   7.751  16.159  0.00  0.00    +0.000 HD
BRANCH  21  24
ATOM     24  C   UNL     1      49.323   7.001  17.955  0.00  0.00    +0.000 A 
ATOM     25  C   UNL     1      49.542   8.250  18.522  0.00  0.00    +0.000 A 
ATOM     26  S   UNL     1      49.352   8.277  20.217  0.00  0.00    +0.000 S 
ATOM     27  C   UNL     1      49.031   6.606  20.262  0.00  0.00    +0.000 A 
ATOM     28  N   UNL     1      48.821   5.962  21.443  0.00  0.00    +0.000 NA
ATOM     29  C   UNL     1      48.614   4.694  21.333  0.00  0.00    +0.000 A 
ATOM     30  N   UNL     1      48.600   4.008  20.145  0.00  0.00    +0.000 N 
ATOM     31  C   UNL     1      48.758   4.624  18.925  0.00  0.00    +0.000 A 
ATOM     32  O   UNL     1      48.648   3.995  17.874  0.00  0.00    +0.000 OA
ATOM     33  C   UNL     1      49.022   6.048  18.997  0.00  0.00    +0.000 A 
ATOM     34  H   UNL     1      48.416   3.017  20.127  0.00  0.00    +0.000 HD
ENDBRANCH  21  24
ENDBRANCH  19  20
ENDBRANCH   4  19
TORSDOF 8
ENDMDL
MODEL 4
REMARK VINA RESULT:    -7.787      3.432      6.009
REMARK INTER + INTRA:         -12.468
REMARK INTER:                 -11.728
REMARK INTRA:                  -0.740
REMARK UNBOUND:                -1.040
REMARK  Name = 
REMARK  9 active torsions:
REMARK  status: ('A' for Active; 'I' for Inactive)
REMARK    1  A    between atoms: C_1  and  N_2
REMARK    2  A    between atoms: N_2  and  C_3
REMARK    3  A    between atoms: C_3  and  C_4
REMARK    4  A    between atoms: C_3  and  C_25
REMARK    5  A    between atoms: C_4  and  C_5
REMARK    6  A    between atoms: C_8  and  C_9
REMARK    7  A    between atoms: C_9  and  N_10
REMARK    8  A    between atoms: C_11  and  C_13
REMARK    9  A    between atoms: C_25  and  C_26
REMARK                            x       y       z     vdW  Elec       q    Type
REMARK                         _______ _______ _______ _____ _____    ______ ____
ROOT
ATOM      1  C   UNL     1      45.646   3.705   7.968  0.00  0.00    +0.000 A 
ATOM      2  C   UNL     1      44.898   2.668   8.542  0.00  0.00    +0.000 A 
ATOM      3  C   UNL     1      44.488   2.741   9.882  0.00  0.00    +0.000 A 
ATOM      4  C   UNL     1      44.762   3.876  10.659  0.00  0.00    +0.000 A 
ATOM      5  C   UNL     1      45.416   4.954  10.050  0.00  0.00    +0.000 A 
ATOM      6  C   UNL     1      45.856   4.868   8.724  0.00  0.00    +0.000 A 
ENDROOT
BRANCH   1   7
ATOM      7  C   UNL     1      46.345   3.530   6.630  0.00  0.00    +0.000 C 
BRANCH   7   8
ATOM      8  C   UNL     1      46.670   2.092   6.162  0.00  0.00    +0.000 C 
BRANCH   8  10
ATOM      9  C   UNL     1      46.909   0.110   7.655  0.00  0.00    +0.000 C 
ATOM     10  N   UNL     1      47.489   1.351   7.157  0.00  0.00    +0.000 NA
ATOM     11  H   UNL     1      48.427   1.180   6.804  0.00  0.00    +0.000 HD
ENDBRANCH   8  10
BRANCH   8  12
ATOM     12  C   UNL     1      47.292   2.059   4.742  0.00  0.00    +0.000 C 
BRANCH  12  13
ATOM     13  C   UNL     1      46.814   0.885   3.920  0.00  0.00    +0.000 A 
ATOM     14  C   UNL     1      45.869   1.072   2.912  0.00  0.00    +0.000 A 
ATOM     15  C   UNL     1      45.343  -0.041   2.268  0.00  0.00    +0.000 A 
ATOM     16  C   UNL     1      45.795  -1.305   2.621  0.00  0.00    +0.000 A 
ATOM     17  C   UNL     1      46.775  -1.402   3.595  0.00  0.00    +0.000 A 
ATOM     18  N   UNL     1      47.298  -0.340   4.245  0.00  0.00    +0.000 NA
ENDBRANCH  12  13
ENDBRANCH   8  12
ENDBRANCH   7   8
ENDBRANCH   1   7
BRANCH   4  19
ATOM     19  C   UNL     1      44.422   3.921  12.129  0.00  0.00    +0.000 C 
BRANCH  19  20
ATOM     20  N   UNL     1      45.343   4.758  12.870  0.00  0.00    +0.000 N 
ATOM     21  C   UNL     1      46.411   4.216  13.540  0.00  0.00    +0.000 C 
ATOM     22  O   UNL     1      46.658   3.014  13.503  0.00  0.00    +0.000 OA
ATOM     23  H   UNL     1      45.042   5.702  13.092  0.00  0.00    +0.000 HD
BRANCH  21  24
ATOM     24  C   UNL     1      47.289   5.152  14.256  0.00  0.00    +0.000 A 
ATOM     25  C   UNL     1      47.658   4.883  15.568  0.00  0.00    +0.000 A 
ATOM     26  S   UNL     1      48.693   6.057  16.245  0.00  0.00    +0.000 S 
ATOM     27  C   UNL     1      48.635   7.002  14.830  0.00  0.00    +0.000 A 
ATOM     28  N   UNL     1      49.283   8.196  14.755  0.00  0.00    +0.000 NA
ATOM     29  C   UNL     1      49.135   8.818  13.636  0.00  0.00    +0.000 A 
ATOM     30  N   UNL     1      48.394   8.352  12.580  0.00  0.00    +0.000 N 
ATOM     31  C   UNL     1      47.764   7.130  12.591  0.00  0.00    +0.000 A 
ATOM     32  O   UNL     1      47.184   6.701  11.594  0.00  0.00    +0.000 OA
ATOM     33  C   UNL     1      47.877   6.403  13.841  0.00  0.00    +0.000 A 
ATOM     34  H   UNL     1      48.332   8.881  11.723  0.00  0.00    +0.000 HD
ENDBRANCH  21  24
ENDBRANCH  19  20
ENDBRANCH   4  19
TORSDOF 8
ENDMDL
MODEL 5
REMARK VINA RESULT:    -7.787      1.680      2.198
REMARK INTER + INTRA:         -12.468
REMARK INTER:                 -11.065
REMARK INTRA:                  -1.403
REMARK UNBOUND:                -1.040
REMARK  Name = 
REMARK  9 active torsions:
REMARK  status: ('A' for Active; 'I' for Inactive)
REMARK    1  A    between atoms: C_1  and  N_2
REMARK    2  A    between atoms: N_2  and  C_3
REMARK    3  A    between atoms: C_3  and  C_4
REMARK    4  A    between atoms: C_3  and  C_25
REMARK    5  A    between atoms: C_4  and  C_5
REMARK    6  A    between atoms: C_8  and  C_9
REMARK    7  A    between atoms: C_9  and  N_10
REMARK    8  A    between atoms: C_11  and  C_13
REMARK    9  A    between atoms: C_25  and  C_26
REMARK                            x       y       z     vdW  Elec       q    Type
REMARK                         _______ _______ _______ _____ _____    ______ ____
ROOT
ATOM      1  C   UNL     1      45.934   4.748  12.463  0.00  0.00    +0.000 A 
ATOM      2  C   UNL     1      46.602   4.774  13.695  0.00  0.00    +0.000 A 
ATOM      3  C   UNL     1      47.561   5.762  13.967  0.00  0.00    +0.000 A 
ATOM      4  C   UNL     1      47.829   6.780  13.041  0.00  0.00    +0.000 A 
ATOM      5  C   UNL     1      47.082   6.812  11.856  0.00  0.00    +0.000 A 
ATOM      6  C   UNL     1      46.151   5.807  11.570  0.00  0.00    +0.000 A 
ENDROOT
BRANCH   1   7
ATOM      7  C   UNL     1      45.119   3.541  12.030  0.00  0.00    +0.000 C 
BRANCH   7   8
ATOM      8  C   UNL     1      44.103   3.724  10.878  0.00  0.00    +0.000 C 
BRANCH   8  10
ATOM      9  C   UNL     1      42.462   5.399  11.725  0.00  0.00    +0.000 C 
ATOM     10  N   UNL     1      42.733   4.009  11.380  0.00  0.00    +0.000 NA
ATOM     11  H   UNL     1      42.028   3.667  10.732  0.00  0.00    +0.000 HD
ENDBRANCH   8  10
BRANCH   8  12
ATOM     12  C   UNL     1      44.131   2.544   9.873  0.00  0.00    +0.000 C 
BRANCH  12  13
ATOM     13  C   UNL     1      45.276   2.639   8.891  0.00  0.00    +0.000 A 
ATOM     14  C   UNL     1      45.594   3.861   8.301  0.00  0.00    +0.000 A 
ATOM     15  C   UNL     1      46.556   3.894   7.299  0.00  0.00    +0.000 A 
ATOM     16  C   UNL     1      47.197   2.717   6.936  0.00  0.00    +0.000 A 
ATOM     17  C   UNL     1      46.861   1.555   7.608  0.00  0.00    +0.000 A 
ATOM     18  N   UNL     1      45.924   1.489   8.579  0.00  0.00    +0.000 NA
ENDBRANCH  12  13
ENDBRANCH   8  12
ENDBRANCH   7   8
ENDBRANCH   1   7
BRANCH   4  19
ATOM     19  C   UNL     1      48.932   7.784  13.275  0.00  0.00    +0.000 C 
BRANCH  19  20
ATOM     20  N   UNL     1      50.017   7.220  14.052  0.00  0.00    +0.000 N 
ATOM     21  C   UNL     1      50.648   7.953  15.025  0.00  0.00    +0.000 C 
ATOM     22  O   UNL     1      50.293   9.093  15.311  0.00  0.00    +0.000 OA
ATOM     23  H   UNL     1      50.462   6.381  13.693  0.00  0.00    +0.000 HD
BRANCH  21  24
ATOM     24  C   UNL     1      51.732   7.287  15.760  0.00  0.00    +0.000 A 
ATOM     25  C   UNL     1      53.030   7.774  15.663  0.00  0.00    +0.000 A 
ATOM     26  S   UNL     1      54.163   6.899  16.590  0.00  0.00    +0.000 S 
ATOM     27  C   UNL     1      52.971   5.798  17.106  0.00  0.00    +0.000 A 
ATOM     28  N   UNL     1      53.288   4.743  17.905  0.00  0.00    +0.000 NA
ATOM     29  C   UNL     1      52.294   3.975  18.199  0.00  0.00    +0.000 A 
ATOM     30  N   UNL     1      51.008   4.167  17.764  0.00  0.00    +0.000 N 
ATOM     31  C   UNL     1      50.632   5.246  16.997  0.00  0.00    +0.000 A 
ATOM     32  O   UNL     1      49.453   5.438  16.701  0.00  0.00    +0.000 OA
ATOM     33  C   UNL     1      51.720   6.125  16.615  0.00  0.00    +0.000 A 
ATOM     34  H   UNL     1      50.271   3.538  18.045  0.00  0.00    +0.000 HD
ENDBRANCH  21  24
ENDBRANCH  19  20
ENDBRANCH   4  19
TORSDOF 8
ENDMDL
MODEL 6
REMARK VINA RESULT:    -7.351      3.693      8.797
REMARK INTER + INTRA:         -11.829
REMARK INTER:                  -9.863
REMARK INTRA:                  -1.966
REMARK UNBOUND:                -1.040
REMARK  Name = 
REMARK  9 active torsions:
REMARK  status: ('A' for Active; 'I' for Inactive)
REMARK    1  A    between atoms: C_1  and  N_2
REMARK    2  A    between atoms: N_2  and  C_3
REMARK    3  A    between atoms: C_3  and  C_4
REMARK    4  A    between atoms: C_3  and  C_25
REMARK    5  A    between atoms: C_4  and  C_5
REMARK    6  A    between atoms: C_8  and  C_9
REMARK    7  A    between atoms: C_9  and  N_10
REMARK    8  A    between atoms: C_11  and  C_13
REMARK    9  A    between atoms: C_25  and  C_26
REMARK                            x       y       z     vdW  Elec       q    Type
REMARK                         _______ _______ _______ _____ _____    ______ ____
ROOT
ATOM      1  C   UNL     1      48.973   7.850  16.561  0.00  0.00    +0.000 A 
ATOM      2  C   UNL     1      49.306   6.753  15.754  0.00  0.00    +0.000 A 
ATOM      3  C   UNL     1      48.954   6.732  14.396  0.00  0.00    +0.000 A 
ATOM      4  C   UNL     1      48.316   7.830  13.800  0.00  0.00    +0.000 A 
ATOM      5  C   UNL     1      48.082   8.967  14.584  0.00  0.00    +0.000 A 
ATOM      6  C   UNL     1      48.402   8.974  15.947  0.00  0.00    +0.000 A 
ENDROOT
BRANCH   1   7
ATOM      7  C   UNL     1      49.079   7.779  18.075  0.00  0.00    +0.000 C 
BRANCH   7   8
ATOM      8  C   UNL     1      47.821   7.363  18.873  0.00  0.00    +0.000 C 
BRANCH   8  10
ATOM      9  C   UNL     1      47.454   8.104  21.225  0.00  0.00    +0.000 C 
ATOM     10  N   UNL     1      47.373   8.430  19.807  0.00  0.00    +0.000 NA
ATOM     11  H   UNL     1      47.858   9.305  19.622  0.00  0.00    +0.000 HD
ENDBRANCH   8  10
BRANCH   8  12
ATOM     12  C   UNL     1      47.995   5.994  19.579  0.00  0.00    +0.000 C 
BRANCH  12  13
ATOM     13  C   UNL     1      48.059   4.838  18.608  0.00  0.00    +0.000 A 
ATOM     14  C   UNL     1      49.211   4.056  18.524  0.00  0.00    +0.000 A 
ATOM     15  C   UNL     1      49.297   3.092  17.528  0.00  0.00    +0.000 A 
ATOM     16  C   UNL     1      48.224   2.910  16.665  0.00  0.00    +0.000 A 
ATOM     17  C   UNL     1      47.097   3.691  16.849  0.00  0.00    +0.000 A 
ATOM     18  N   UNL     1      46.986   4.643  17.801  0.00  0.00    +0.000 NA
ENDBRANCH  12  13
ENDBRANCH   8  12
ENDBRANCH   7   8
ENDBRANCH   1   7
BRANCH   4  19
ATOM     19  C   UNL     1      47.836   7.777  12.370  0.00  0.00    +0.000 C 
BRANCH  19  20
ATOM     20  N   UNL     1      47.076   6.575  12.101  0.00  0.00    +0.000 N 
ATOM     21  C   UNL     1      45.712   6.550  12.245  0.00  0.00    +0.000 C 
ATOM     22  O   UNL     1      45.075   7.551  12.561  0.00  0.00    +0.000 OA
ATOM     23  H   UNL     1      47.588   5.698  12.054  0.00  0.00    +0.000 HD
BRANCH  21  24
ATOM     24  C   UNL     1      45.034   5.282  11.941  0.00  0.00    +0.000 A 
ATOM     25  C   UNL     1      44.342   4.614  12.943  0.00  0.00    +0.000 A 
ATOM     26  S   UNL     1      43.600   3.170  12.420  0.00  0.00    +0.000 S 
ATOM     27  C   UNL     1      44.230   3.352  10.849  0.00  0.00    +0.000 A 
ATOM     28  N   UNL     1      44.007   2.413   9.889  0.00  0.00    +0.000 NA
ATOM     29  C   UNL     1      44.563   2.665   8.754  0.00  0.00    +0.000 A 
ATOM     30  N   UNL     1      45.325   3.774   8.490  0.00  0.00    +0.000 N 
ATOM     31  C   UNL     1      45.536   4.772   9.412  0.00  0.00    +0.000 A 
ATOM     32  O   UNL     1      46.148   5.797   9.114  0.00  0.00    +0.000 OA
ATOM     33  C   UNL     1      44.954   4.522  10.717  0.00  0.00    +0.000 A 
ATOM     34  H   UNL     1      45.719   3.919   7.573  0.00  0.00    +0.000 HD
ENDBRANCH  21  24
ENDBRANCH  19  20
ENDBRANCH   4  19
TORSDOF 8
ENDMDL
MODEL 7
REMARK VINA RESULT:    -7.258      4.977      6.401
REMARK INTER + INTRA:         -11.692
REMARK INTER:                 -10.429
REMARK INTRA:                  -1.263
REMARK UNBOUND:                -1.040
REMARK  Name = 
REMARK  9 active torsions:
REMARK  status: ('A' for Active; 'I' for Inactive)
REMARK    1  A    between atoms: C_1  and  N_2
REMARK    2  A    between atoms: N_2  and  C_3
REMARK    3  A    between atoms: C_3  and  C_4
REMARK    4  A    between atoms: C_3  and  C_25
REMARK    5  A    between atoms: C_4  and  C_5
REMARK    6  A    between atoms: C_8  and  C_9
REMARK    7  A    between atoms: C_9  and  N_10
REMARK    8  A    between atoms: C_11  and  C_13
REMARK    9  A    between atoms: C_25  and  C_26
REMARK                            x       y       z     vdW  Elec       q    Type
REMARK                         _______ _______ _______ _____ _____    ______ ____
ROOT
ATOM      1  C   UNL     1      46.104   5.471  12.336  0.00  0.00    +0.000 A 
ATOM      2  C   UNL     1      46.789   5.319  13.550  0.00  0.00    +0.000 A 
ATOM      3  C   UNL     1      47.977   6.025  13.793  0.00  0.00    +0.000 A 
ATOM      4  C   UNL     1      48.474   6.943  12.857  0.00  0.00    +0.000 A 
ATOM      5  C   UNL     1      47.730   7.172  11.692  0.00  0.00    +0.000 A 
ATOM      6  C   UNL     1      46.564   6.442  11.434  0.00  0.00    +0.000 A 
ENDROOT
BRANCH   1   7
ATOM      7  C   UNL     1      44.994   4.518  11.930  0.00  0.00    +0.000 C 
BRANCH   7   8
ATOM      8  C   UNL     1      44.447   4.610  10.486  0.00  0.00    +0.000 C 
BRANCH   8  10
ATOM      9  C   UNL     1      42.463   5.559  11.658  0.00  0.00    +0.000 C 
ATOM     10  N   UNL     1      43.201   5.416  10.410  0.00  0.00    +0.000 NA
ATOM     11  H   UNL     1      43.381   6.331  10.004  0.00  0.00    +0.000 HD
ENDBRANCH   8  10
BRANCH   8  12
ATOM     12  C   UNL     1      44.293   3.217   9.823  0.00  0.00    +0.000 C 
BRANCH  12  13
ATOM     13  C   UNL     1      45.302   2.976   8.725  0.00  0.00    +0.000 A 
ATOM     14  C   UNL     1      45.792   1.691   8.491  0.00  0.00    +0.000 A 
ATOM     15  C   UNL     1      46.820   1.520   7.572  0.00  0.00    +0.000 A 
ATOM     16  C   UNL     1      47.309   2.626   6.888  0.00  0.00    +0.000 A 
ATOM     17  C   UNL     1      46.731   3.859   7.140  0.00  0.00    +0.000 A 
ATOM     18  N   UNL     1      45.739   4.058   8.033  0.00  0.00    +0.000 NA
ENDBRANCH  12  13
ENDBRANCH   8  12
ENDBRANCH   7   8
ENDBRANCH   1   7
BRANCH   4  19
ATOM     19  C   UNL     1      49.805   7.627  13.059  0.00  0.00    +0.000 C 
BRANCH  19  20
ATOM     20  N   UNL     1      50.373   8.080  11.807  0.00  0.00    +0.000 N 
ATOM     21  C   UNL     1      51.506   8.855  11.780  0.00  0.00    +0.000 C 
ATOM     22  O   UNL     1      52.109   9.157  12.806  0.00  0.00    +0.000 OA
ATOM     23  H   UNL     1      49.784   8.031  10.980  0.00  0.00    +0.000 HD
BRANCH  21  24
ATOM     24  C   UNL     1      52.005   9.257  10.458  0.00  0.00    +0.000 A 
ATOM     25  C   UNL     1      51.960  10.594  10.082  0.00  0.00    +0.000 A 
ATOM     26  S   UNL     1      52.594  10.892   8.528  0.00  0.00    +0.000 S 
ATOM     27  C   UNL     1      52.894   9.236   8.273  0.00  0.00    +0.000 A 
ATOM     28  N   UNL     1      53.402   8.786   7.093  0.00  0.00    +0.000 NA
ATOM     29  C   UNL     1      53.555   7.508   7.027  0.00  0.00    +0.000 A 
ATOM     30  N   UNL     1      53.245   6.634   8.038  0.00  0.00    +0.000 N 
ATOM     31  C   UNL     1      52.776   7.046   9.264  0.00  0.00    +0.000 A 
ATOM     32  O   UNL     1      52.595   6.245  10.179  0.00  0.00    +0.000 OA
ATOM     33  C   UNL     1      52.559   8.475   9.378  0.00  0.00    +0.000 A 
ATOM     34  H   UNL     1      53.405   5.644   7.928  0.00  0.00    +0.000 HD
ENDBRANCH  21  24
ENDBRANCH  19  20
ENDBRANCH   4  19
TORSDOF 8
ENDMDL
MODEL 8
REMARK VINA RESULT:    -7.191      2.439      2.934
REMARK INTER + INTRA:         -11.594
REMARK INTER:                 -10.590
REMARK INTRA:                  -1.004
REMARK UNBOUND:                -1.040
REMARK  Name = 
REMARK  9 active torsions:
REMARK  status: ('A' for Active; 'I' for Inactive)
REMARK    1  A    between atoms: C_1  and  N_2
REMARK    2  A    between atoms: N_2  and  C_3
REMARK    3  A    between atoms: C_3  and  C_4
REMARK    4  A    between atoms: C_3  and  C_25
REMARK    5  A    between atoms: C_4  and  C_5
REMARK    6  A    between atoms: C_8  and  C_9
REMARK    7  A    between atoms: C_9  and  N_10
REMARK    8  A    between atoms: C_11  and  C_13
REMARK    9  A    between atoms: C_25  and  C_26
REMARK                            x       y       z     vdW  Elec       q    Type
REMARK                         _______ _______ _______ _____ _____    ______ ____
ROOT
ATOM      1  C   UNL     1      46.462   6.931  11.484  0.00  0.00    +0.000 A 
ATOM      2  C   UNL     1      45.634   7.888  12.088  0.00  0.00    +0.000 A 
ATOM      3  C   UNL     1      46.102   8.660  13.162  0.00  0.00    +0.000 A 
ATOM      4  C   UNL     1      47.423   8.538  13.617  0.00  0.00    +0.000 A 
ATOM      5  C   UNL     1      48.278   7.658  12.941  0.00  0.00    +0.000 A 
ATOM      6  C   UNL     1      47.802   6.862  11.892  0.00  0.00    +0.000 A 
ENDROOT
BRANCH   1   7
ATOM      7  C   UNL     1      45.902   5.891  10.528  0.00  0.00    +0.000 C 
BRANCH   7   8
ATOM      8  C   UNL     1      44.751   4.987  11.029  0.00  0.00    +0.000 C 
BRANCH   8  10
ATOM      9  C   UNL     1      45.235   4.463  13.417  0.00  0.00    +0.000 C 
ATOM     10  N   UNL     1      45.214   3.997  12.036  0.00  0.00    +0.000 NA
ATOM     11  H   UNL     1      44.685   3.131  11.968  0.00  0.00    +0.000 HD
ENDBRANCH   8  10
BRANCH   8  12
ATOM     12  C   UNL     1      43.971   4.325   9.864  0.00  0.00    +0.000 C 
BRANCH  12  13
ATOM     13  C   UNL     1      44.863   3.530   8.939  0.00  0.00    +0.000 A 
ATOM     14  C   UNL     1      45.095   2.176   9.182  0.00  0.00    +0.000 A 
ATOM     15  C   UNL     1      46.027   1.504   8.401  0.00  0.00    +0.000 A 
ATOM     16  C   UNL     1      46.677   2.187   7.382  0.00  0.00    +0.000 A 
ATOM     17  C   UNL     1      46.350   3.516   7.173  0.00  0.00    +0.000 A 
ATOM     18  N   UNL     1      45.457   4.199   7.920  0.00  0.00    +0.000 NA
ENDBRANCH  12  13
ENDBRANCH   8  12
ENDBRANCH   7   8
ENDBRANCH   1   7
BRANCH   4  19
ATOM     19  C   UNL     1      47.905   9.283  14.838  0.00  0.00    +0.000 C 
BRANCH  19  20
ATOM     20  N   UNL     1      47.994   8.419  15.996  0.00  0.00    +0.000 N 
ATOM     21  C   UNL     1      49.190   8.214  16.638  0.00  0.00    +0.000 C 
ATOM     22  O   UNL     1      50.219   8.786  16.290  0.00  0.00    +0.000 OA
ATOM     23  H   UNL     1      47.223   7.780  16.163  0.00  0.00    +0.000 HD
BRANCH  21  24
ATOM     24  C   UNL     1      49.172   7.323  17.807  0.00  0.00    +0.000 A 
ATOM     25  C   UNL     1      49.492   7.827  19.061  0.00  0.00    +0.000 A 
ATOM     26  S   UNL     1      49.405   6.669  20.309  0.00  0.00    +0.000 S 
ATOM     27  C   UNL     1      48.997   5.435  19.210  0.00  0.00    +0.000 A 
ATOM     28  N   UNL     1      48.823   4.151  19.626  0.00  0.00    +0.000 NA
ATOM     29  C   UNL     1      48.541   3.316  18.686  0.00  0.00    +0.000 A 
ATOM     30  N   UNL     1      48.419   3.648  17.361  0.00  0.00    +0.000 N 
ATOM     31  C   UNL     1      48.537   4.939  16.901  0.00  0.00    +0.000 A 
ATOM     32  O   UNL     1      48.331   5.218  15.720  0.00  0.00    +0.000 OA
ATOM     33  C   UNL     1      48.882   5.914  17.917  0.00  0.00    +0.000 A 
ATOM     34  H   UNL     1      48.180   2.948  16.675  0.00  0.00    +0.000 HD
ENDBRANCH  21  24
ENDBRANCH  19  20
ENDBRANCH   4  19
TORSDOF 8
ENDMDL
MODEL 9
REMARK VINA RESULT:    -7.007      3.697      9.956
REMARK INTER + INTRA:         -11.324
REMARK INTER:                 -10.178
REMARK INTRA:                  -1.146
REMARK UNBOUND:                -1.040
REMARK  Name = 
REMARK  9 active torsions:
REMARK  status: ('A' for Active; 'I' for Inactive)
REMARK    1  A    between atoms: C_1  and  N_2
REMARK    2  A    between atoms: N_2  and  C_3
REMARK    3  A    between atoms: C_3  and  C_4
REMARK    4  A    between atoms: C_3  and  C_25
REMARK    5  A    between atoms: C_4  and  C_5
REMARK    6  A    between atoms: C_8  and  C_9
REMARK    7  A    between atoms: C_9  and  N_10
REMARK    8  A    between atoms: C_11  and  C_13
REMARK    9  A    between atoms: C_25  and  C_26
REMARK                            x       y       z     vdW  Elec       q    Type
REMARK                         _______ _______ _______ _____ _____    ______ ____
ROOT
ATOM      1  C   UNL     1      51.475   4.026  17.775  0.00  0.00    +0.000 A 
ATOM      2  C   UNL     1      50.986   2.753  17.449  0.00  0.00    +0.000 A 
ATOM      3  C   UNL     1      49.636   2.573  17.110  0.00  0.00    +0.000 A 
ATOM      4  C   UNL     1      48.761   3.666  17.028  0.00  0.00    +0.000 A 
ATOM      5  C   UNL     1      49.279   4.948  17.250  0.00  0.00    +0.000 A 
ATOM      6  C   UNL     1      50.617   5.124  17.623  0.00  0.00    +0.000 A 
ENDROOT
BRANCH   1   7
ATOM      7  C   UNL     1      52.838   4.207  18.421  0.00  0.00    +0.000 C 
BRANCH   7   8
ATOM      8  C   UNL     1      53.259   3.209  19.526  0.00  0.00    +0.000 C 
BRANCH   8  10
ATOM      9  C   UNL     1      52.500   5.111  20.947  0.00  0.00    +0.000 C 
ATOM     10  N   UNL     1      53.066   3.770  20.889  0.00  0.00    +0.000 NA
ATOM     11  H   UNL     1      52.523   3.137  21.471  0.00  0.00    +0.000 HD
ENDBRANCH   8  10
BRANCH   8  12
ATOM     12  C   UNL     1      54.692   2.659  19.310  0.00  0.00    +0.000 C 
BRANCH  12  13
ATOM     13  C   UNL     1      54.704   1.300  18.649  0.00  0.00    +0.000 A 
ATOM     14  C   UNL     1      54.583   1.193  17.264  0.00  0.00    +0.000 A 
ATOM     15  C   UNL     1      54.455  -0.068  16.695  0.00  0.00    +0.000 A 
ATOM     16  C   UNL     1      54.485  -1.188  17.516  0.00  0.00    +0.000 A 
ATOM     17  C   UNL     1      54.662  -0.998  18.875  0.00  0.00    +0.000 A 
ATOM     18  N   UNL     1      54.779   0.215  19.459  0.00  0.00    +0.000 NA
ENDBRANCH  12  13
ENDBRANCH   8  12
ENDBRANCH   7   8
ENDBRANCH   1   7
BRANCH   4  19
ATOM     19  C   UNL     1      47.286   3.473  16.770  0.00  0.00    +0.000 C 
BRANCH  19  20
ATOM     20  N   UNL     1      46.777   4.433  15.813  0.00  0.00    +0.000 N 
ATOM     21  C   UNL     1      46.838   4.190  14.464  0.00  0.00    +0.000 C 
ATOM     22  O   UNL     1      47.282   3.137  14.014  0.00  0.00    +0.000 OA
ATOM     23  H   UNL     1      46.613   5.380  16.141  0.00  0.00    +0.000 HD
BRANCH  21  24
ATOM     24  C   UNL     1      46.288   5.224  13.577  0.00  0.00    +0.000 A 
ATOM     25  C   UNL     1      47.002   6.397  13.362  0.00  0.00    +0.000 A 
ATOM     26  S   UNL     1      46.233   7.482  12.294  0.00  0.00    +0.000 S 
ATOM     27  C   UNL     1      44.888   6.452  12.129  0.00  0.00    +0.000 A 
ATOM     28  N   UNL     1      43.817   6.811  11.371  0.00  0.00    +0.000 NA
ATOM     29  C   UNL     1      42.859   5.949  11.353  0.00  0.00    +0.000 A 
ATOM     30  N   UNL     1      42.874   4.755  12.029  0.00  0.00    +0.000 N 
ATOM     31  C   UNL     1      43.955   4.328  12.766  0.00  0.00    +0.000 A 
ATOM     32  O   UNL     1      43.973   3.212  13.284  0.00  0.00    +0.000 OA
ATOM     33  C   UNL     1      45.049   5.277  12.840  0.00  0.00    +0.000 A 
ATOM     34  H   UNL     1      42.097   4.116  11.960  0.00  0.00    +0.000 HD
ENDBRANCH  21  24
ENDBRANCH  19  20
ENDBRANCH   4  19
TORSDOF 8
ENDMDL
