MODEL 1
REMARK VINA RESULT:    -8.757      0.000      0.000
REMARK INTER + INTRA:         -12.275
REMARK INTER:                 -11.829
REMARK INTRA:                  -0.446
REMARK UNBOUND:                -0.446
REMARK  Name = 
REMARK  7 active torsions:
REMARK  status: ('A' for Active; 'I' for Inactive)
REMARK    1  A    between atoms: C_1  and  C_2
REMARK    2  A    between atoms: C_2  and  N_3
REMARK    3  A    between atoms: C_2  and  C_16
REMARK    4  A    between atoms: C_4  and  C_6
REMARK    5  A    between atoms: C_19  and  C_20
REMARK    6  A    between atoms: C_20  and  N_21
REMARK    7  A    between atoms: C_22  and  C_24
REMARK                            x       y       z     vdW  Elec       q    Type
REMARK                         _______ _______ _______ _____ _____    ______ ____
ROOT
ATOM      1  C   UNL     1      47.761   8.839  12.333  0.00  0.00    +0.000 C 
ATOM      2  C   UNL     1      46.714   8.085  13.161  0.00  0.00    +0.000 C 
ENDROOT
BRANCH   2   3
ATOM      3  C   UNL     1      46.031   6.946  12.417  0.00  0.00    +0.000 A 
ATOM      4  C   UNL     1      45.049   6.187  13.074  0.00  0.00    +0.000 A 
ATOM      5  C   UNL     1      44.424   5.107  12.438  0.00  0.00    +0.000 A 
ATOM      6  C   UNL     1      44.781   4.745  11.134  0.00  0.00    +0.000 A 
ATOM      7  C   UNL     1      45.756   5.501  10.472  0.00  0.00    +0.000 A 
ATOM      8  C   UNL     1      46.384   6.576  11.110  0.00  0.00    +0.000 A 
BRANCH   6   9
ATOM      9  C   UNL     1      44.130   3.569  10.451  0.00  0.00    +0.000 C 
BRANCH   9  10
ATOM     10  N   UNL     1      45.039   2.907   9.545  0.00  0.00    +0.000 N 
ATOM     11  C   UNL     1      45.067   3.256   8.211  0.00  0.00    +0.000 C 
ATOM     12  O   UNL     1      44.330   4.101   7.714  0.00  0.00    +0.000 OA
ATOM     13  H   UNL     1      45.817   2.402   9.946  0.00  0.00    +0.000 HD
BRANCH  11  14
ATOM     14  C   UNL     1      46.087   2.571   7.376  0.00  0.00    +0.000 A 
ATOM     15  C   UNL     1      46.593   3.158   6.216  0.00  0.00    +0.000 A 
ATOM     16  C   UNL     1      47.542   2.455   5.497  0.00  0.00    +0.000 A 
ATOM     17  N   UNL     1      48.005   1.239   5.855  0.00  0.00    +0.000 NA
ATOM     18  C   UNL     1      47.513   0.705   6.995  0.00  0.00    +0.000 A 
ATOM     19  C   UNL     1      46.566   1.326   7.787  0.00  0.00    +0.000 A 
ENDBRANCH  11  14
ENDBRANCH   9  10
ENDBRANCH   6   9
ENDBRANCH   2   3
BRANCH   2  20
ATOM     20  N   UNL     1      47.319   7.561  14.372  0.00  0.00    +0.000 N 
ATOM     21  C   UNL     1      48.314   6.618  14.362  0.00  0.00    +0.000 C 
ATOM     22  O   UNL     1      48.823   6.206  13.324  0.00  0.00    +0.000 OA
ATOM     23  H   UNL     1      46.803   7.725  15.229  0.00  0.00    +0.000 HD
BRANCH  21  24
ATOM     24  C   UNL     1      48.790   6.175  15.678  0.00  0.00    +0.000 A 
ATOM     25  C   UNL     1      49.796   6.879  16.324  0.00  0.00    +0.000 A 
ATOM     26  S   UNL     1      50.178   6.261  17.868  0.00  0.00    +0.000 S 
ATOM     27  C   UNL     1      49.053   4.995  17.700  0.00  0.00    +0.000 A 
ATOM     28  N   UNL     1      48.888   4.070  18.683  0.00  0.00    +0.000 NA
ATOM     29  C   UNL     1      48.032   3.143  18.405  0.00  0.00    +0.000 A 
ATOM     30  N   UNL     1      47.322   3.061  17.235  0.00  0.00    +0.000 N 
ATOM     31  C   UNL     1      47.426   3.995  16.231  0.00  0.00    +0.000 A 
ATOM     32  O   UNL     1      46.731   3.928  15.223  0.00  0.00    +0.000 OA
ATOM     33  C   UNL     1      48.387   5.052  16.490  0.00  0.00    +0.000 A 
ATOM     34  H   UNL     1      46.659   2.316  17.084  0.00  0.00    +0.000 HD
ENDBRANCH  21  24
ENDBRANCH   2  20
TORSDOF 6
ENDMDL
MODEL 2
REMARK VINA RESULT:    -8.581      2.119      3.996
REMARK INTER + INTRA:         -12.037
REMARK INTER:                 -10.680
REMARK INTRA:                  -1.357
REMARK UNBOUND:                -0.446
REMARK  Name = 
REMARK  7 active torsions:
REMARK  status: ('A' for Active; 'I' for Inactive)
REMARK    1  A    between atoms: C_1  and  C_2
REMARK    2  A    between atoms: C_2  and  N_3
REMARK    3  A    between atoms: C_2  and  C_16
REMARK    4  A    between atoms: C_4  and  C_6
REMARK    5  A    between atoms: C_19  and  C_20
REMARK    6  A    between atoms: C_20  and  N_21
REMARK    7  A    between atoms: C_22  and  C_24
REMARK                            x       y       z     vdW  Elec       q    Type
REMARK                         _______ _______ _______ _____ _____    ______ ____
ROOT
ATOM      1  C   UNL     1      47.015   4.248  16.205  0.00  0.00    +0.000 C 
ATOM      2  C   UNL     1      47.526   4.916  14.924  0.00  0.00    +0.000 C 
ENDROOT
BRANCH   2   3
ATOM      3  C   UNL     1      46.592   4.772  13.730  0.00  0.00    +0.000 A 
ATOM      4  C   UNL     1      46.272   3.487  13.259  0.00  0.00    +0.000 A 
ATOM      5  C   UNL     1      45.448   3.312  12.141  0.00  0.00    +0.000 A 
ATOM      6  C   UNL     1      44.938   4.419  11.451  0.00  0.00    +0.000 A 
ATOM      7  C   UNL     1      45.249   5.701  11.919  0.00  0.00    +0.000 A 
ATOM      8  C   UNL     1      46.077   5.875  13.033  0.00  0.00    +0.000 A 
BRANCH   6   9
ATOM      9  C   UNL     1      44.069   4.238  10.232  0.00  0.00    +0.000 C 
BRANCH   9  10
ATOM     10  N   UNL     1      44.687   3.367   9.260  0.00  0.00    +0.000 N 
ATOM     11  C   UNL     1      45.605   3.869   8.362  0.00  0.00    +0.000 C 
ATOM     12  O   UNL     1      45.928   5.051   8.309  0.00  0.00    +0.000 OA
ATOM     13  H   UNL     1      44.644   2.371   9.428  0.00  0.00    +0.000 HD
BRANCH  11  14
ATOM     14  C   UNL     1      46.239   2.880   7.452  0.00  0.00    +0.000 A 
ATOM     15  C   UNL     1      46.614   3.222   6.152  0.00  0.00    +0.000 A 
ATOM     16  C   UNL     1      47.200   2.244   5.371  0.00  0.00    +0.000 A 
ATOM     17  N   UNL     1      47.431   0.983   5.795  0.00  0.00    +0.000 NA
ATOM     18  C   UNL     1      47.078   0.688   7.065  0.00  0.00    +0.000 A 
ATOM     19  C   UNL     1      46.490   1.593   7.928  0.00  0.00    +0.000 A 
ENDBRANCH  11  14
ENDBRANCH   9  10
ENDBRANCH   6   9
ENDBRANCH   2   3
BRANCH   2  20
ATOM     20  N   UNL     1      47.774   6.325  15.161  0.00  0.00    +0.000 N 
ATOM     21  C   UNL     1      48.958   6.800  15.664  0.00  0.00    +0.000 C 
ATOM     22  O   UNL     1      49.925   6.074  15.874  0.00  0.00    +0.000 OA
ATOM     23  H   UNL     1      46.954   6.920  15.186  0.00  0.00    +0.000 HD
BRANCH  21  24
ATOM     24  C   UNL     1      49.030   8.252  15.872  0.00  0.00    +0.000 A 
ATOM     25  C   UNL     1      49.198   8.762  17.151  0.00  0.00    +0.000 A 
ATOM     26  S   UNL     1      49.323  10.463  17.197  0.00  0.00    +0.000 S 
ATOM     27  C   UNL     1      49.098  10.580  15.514  0.00  0.00    +0.000 A 
ATOM     28  N   UNL     1      49.079  11.789  14.892  0.00  0.00    +0.000 NA
ATOM     29  C   UNL     1      48.859  11.732  13.620  0.00  0.00    +0.000 A 
ATOM     30  N   UNL     1      48.660  10.573  12.914  0.00  0.00    +0.000 N 
ATOM     31  C   UNL     1      48.711   9.327  13.493  0.00  0.00    +0.000 A 
ATOM     32  O   UNL     1      48.591   8.307  12.822  0.00  0.00    +0.000 OA
ATOM     33  C   UNL     1      48.942   9.338  14.925  0.00  0.00    +0.000 A 
ATOM     34  H   UNL     1      48.503  10.596  11.918  0.00  0.00    +0.000 HD
ENDBRANCH  21  24
ENDBRANCH   2  20
TORSDOF 6
ENDMDL
MODEL 3
REMARK VINA RESULT:    -8.272      2.728      3.890
REMARK INTER + INTRA:         -11.620
REMARK INTER:                 -10.354
REMARK INTRA:                  -1.266
REMARK UNBOUND:                -0.446
REMARK  Name = 
REMARK  7 active torsions:
REMARK  status: ('A' for Active; 'I' for Inactive)
REMARK    1  A    between atoms: C_1  and  C_2
REMARK    2  A    between atoms: C_2  and  N_3
REMARK    3  A    between atoms: C_2  and  C_16
REMARK    4  A    between atoms: C_4  and  C_6
REMARK    5  A    between atoms: C_19  and  C_20
REMARK    6  A    between atoms: C_20  and  N_21
REMARK    7  A    between atoms: C_22  and  C_24
REMARK                            x       y       z     vdW  Elec       q    Type
REMARK                         _______ _______ _______ _____ _____    ______ ____
ROOT
ATOM      1  C   UNL     1      47.305   4.667  16.157  0.00  0.00    +0.000 C 
ATOM      2  C   UNL     1      47.823   5.311  14.866  0.00  0.00    +0.000 C 
ENDROOT
BRANCH   2   3
ATOM      3  C   UNL     1      46.940   5.068  13.650  0.00  0.00    +0.000 A 
ATOM      4  C   UNL     1      46.665   6.134  12.777  0.00  0.00    +0.000 A 
ATOM      5  C   UNL     1      45.826   5.962  11.668  0.00  0.00    +0.000 A 
ATOM      6  C   UNL     1      45.223   4.724  11.416  0.00  0.00    +0.000 A 
ATOM      7  C   UNL     1      45.498   3.657  12.279  0.00  0.00    +0.000 A 
ATOM      8  C   UNL     1      46.331   3.831  13.390  0.00  0.00    +0.000 A 
BRANCH   6   9
ATOM      9  C   UNL     1      44.301   4.538  10.238  0.00  0.00    +0.000 C 
BRANCH   9  10
ATOM     10  N   UNL     1      44.833   3.588   9.289  0.00  0.00    +0.000 N 
ATOM     11  C   UNL     1      45.758   3.989   8.348  0.00  0.00    +0.000 C 
ATOM     12  O   UNL     1      46.158   5.143   8.237  0.00  0.00    +0.000 OA
ATOM     13  H   UNL     1      44.728   2.605   9.500  0.00  0.00    +0.000 HD
BRANCH  11  14
ATOM     14  C   UNL     1      46.299   2.923   7.466  0.00  0.00    +0.000 A 
ATOM     15  C   UNL     1      46.519   1.628   7.938  0.00  0.00    +0.000 A 
ATOM     16  C   UNL     1      47.022   0.694   7.052  0.00  0.00    +0.000 A 
ATOM     17  N   UNL     1      47.308   0.964   5.760  0.00  0.00    +0.000 NA
ATOM     18  C   UNL     1      47.064   2.220   5.326  0.00  0.00    +0.000 A 
ATOM     19  C   UNL     1      46.559   3.225   6.129  0.00  0.00    +0.000 A 
ENDBRANCH  11  14
ENDBRANCH   9  10
ENDBRANCH   6   9
ENDBRANCH   2   3
BRANCH   2  20
ATOM     20  N   UNL     1      47.986   6.741  15.053  0.00  0.00    +0.000 N 
ATOM     21  C   UNL     1      49.204   7.331  15.272  0.00  0.00    +0.000 C 
ATOM     22  O   UNL     1      50.257   6.702  15.244  0.00  0.00    +0.000 OA
ATOM     23  H   UNL     1      47.141   7.256  15.274  0.00  0.00    +0.000 HD
BRANCH  21  24
ATOM     24  C   UNL     1      49.184   8.785  15.472  0.00  0.00    +0.000 A 
ATOM     25  C   UNL     1      49.760   9.623  14.528  0.00  0.00    +0.000 A 
ATOM     26  S   UNL     1      49.589  11.282  14.892  0.00  0.00    +0.000 S 
ATOM     27  C   UNL     1      48.789  10.934  16.354  0.00  0.00    +0.000 A 
ATOM     28  N   UNL     1      48.375  11.932  17.180  0.00  0.00    +0.000 NA
ATOM     29  C   UNL     1      47.820  11.524  18.273  0.00  0.00    +0.000 A 
ATOM     30  N   UNL     1      47.638  10.208  18.612  0.00  0.00    +0.000 N 
ATOM     31  C   UNL     1      48.002   9.168  17.791  0.00  0.00    +0.000 A 
ATOM     32  O   UNL     1      47.769   8.003  18.095  0.00  0.00    +0.000 OA
ATOM     33  C   UNL     1      48.644   9.574  16.554  0.00  0.00    +0.000 A 
ATOM     34  H   UNL     1      47.186   9.955  19.478  0.00  0.00    +0.000 HD
ENDBRANCH  21  24
ENDBRANCH   2  20
TORSDOF 6
ENDMDL
MODEL 4
REMARK VINA RESULT:    -8.087      3.237      6.007
REMARK INTER + INTRA:         -11.369
REMARK INTER:                 -10.205
REMARK INTRA:                  -1.165
REMARK UNBOUND:                -0.446
REMARK  Name = 
REMARK  7 active torsions:
REMARK  status: ('A' for Active; 'I' for Inactive)
REMARK    1  A    between atoms: C_1  and  C_2
REMARK    2  A    between atoms: C_2  and  N_3
REMARK    3  A    between atoms: C_2  and  C_16
REMARK    4  A    between atoms: C_4  and  C_6
REMARK    5  A    between atoms: C_19  and  C_20
REMARK    6  A    between atoms: C_20  and  N_21
REMARK    7  A    between atoms: C_22  and  C_24
REMARK                            x       y       z     vdW  Elec       q    Type
REMARK                         _______ _______ _______ _____ _____    ______ ____
ROOT
ATOM      1  C   UNL     1      43.579   3.003  10.677  0.00  0.00    +0.000 C 
ATOM      2  C   UNL     1      45.098   3.141  10.523  0.00  0.00    +0.000 C 
ENDROOT
BRANCH   2   3
ATOM      3  C   UNL     1      45.599   2.959   9.097  0.00  0.00    +0.000 A 
ATOM      4  C   UNL     1      45.862   1.664   8.621  0.00  0.00    +0.000 A 
ATOM      5  C   UNL     1      46.361   1.455   7.329  0.00  0.00    +0.000 A 
ATOM      6  C   UNL     1      46.629   2.540   6.486  0.00  0.00    +0.000 A 
ATOM      7  C   UNL     1      46.364   3.833   6.953  0.00  0.00    +0.000 A 
ATOM      8  C   UNL     1      45.871   4.041   8.246  0.00  0.00    +0.000 A 
BRANCH   6   9
ATOM      9  C   UNL     1      47.188   2.326   5.102  0.00  0.00    +0.000 C 
BRANCH   9  10
ATOM     10  N   UNL     1      47.336   0.922   4.798  0.00  0.00    +0.000 N 
ATOM     11  C   UNL     1      46.652   0.365   3.738  0.00  0.00    +0.000 C 
ATOM     12  O   UNL     1      45.878   0.993   3.023  0.00  0.00    +0.000 OA
ATOM     13  H   UNL     1      48.133   0.438   5.189  0.00  0.00    +0.000 HD
BRANCH  11  14
ATOM     14  C   UNL     1      46.928  -1.069   3.461  0.00  0.00    +0.000 A 
ATOM     15  C   UNL     1      46.527  -2.071   4.345  0.00  0.00    +0.000 A 
ATOM     16  C   UNL     1      46.820  -3.381   4.012  0.00  0.00    +0.000 A 
ATOM     17  N   UNL     1      47.467  -3.741   2.883  0.00  0.00    +0.000 NA
ATOM     18  C   UNL     1      47.823  -2.751   2.037  0.00  0.00    +0.000 A 
ATOM     19  C   UNL     1      47.574  -1.412   2.273  0.00  0.00    +0.000 A 
ENDBRANCH  11  14
ENDBRANCH   9  10
ENDBRANCH   6   9
ENDBRANCH   2   3
BRANCH   2  20
ATOM     20  N   UNL     1      45.533   4.435  11.015  0.00  0.00    +0.000 N 
ATOM     21  C   UNL     1      45.790   4.682  12.339  0.00  0.00    +0.000 C 
ATOM     22  O   UNL     1      45.748   3.804  13.195  0.00  0.00    +0.000 OA
ATOM     23  H   UNL     1      45.392   5.217  10.386  0.00  0.00    +0.000 HD
BRANCH  21  24
ATOM     24  C   UNL     1      46.191   6.055  12.668  0.00  0.00    +0.000 A 
ATOM     25  C   UNL     1      47.323   6.282  13.436  0.00  0.00    +0.000 A 
ATOM     26  S   UNL     1      47.673   7.937  13.665  0.00  0.00    +0.000 S 
ATOM     27  C   UNL     1      46.288   8.406  12.794  0.00  0.00    +0.000 A 
ATOM     28  N   UNL     1      45.979   9.720  12.626  0.00  0.00    +0.000 NA
ATOM     29  C   UNL     1      44.880   9.931  11.981  0.00  0.00    +0.000 A 
ATOM     30  N   UNL     1      44.065   8.946  11.485  0.00  0.00    +0.000 N 
ATOM     31  C   UNL     1      44.357   7.608  11.595  0.00  0.00    +0.000 A 
ATOM     32  O   UNL     1      43.639   6.754  11.086  0.00  0.00    +0.000 OA
ATOM     33  C   UNL     1      45.577   7.317  12.325  0.00  0.00    +0.000 A 
ATOM     34  H   UNL     1      43.223   9.178  10.979  0.00  0.00    +0.000 HD
ENDBRANCH  21  24
ENDBRANCH   2  20
TORSDOF 6
ENDMDL
MODEL 5
REMARK VINA RESULT:    -8.080      1.923      2.738
REMARK INTER + INTRA:         -11.361
REMARK INTER:                 -10.444
REMARK INTRA:                  -0.917
REMARK UNBOUND:                -0.446
REMARK  Name = 
REMARK  7 active torsions:
REMARK  status: ('A' for Active; 'I' for Inactive)
REMARK    1  A    between atoms: C_1  and  C_2
REMARK    2  A    between atoms: C_2  and  N_3
REMARK    3  A    between atoms: C_2  and  C_16
REMARK    4  A    between atoms: C_4  and  C_6
REMARK    5  A    between atoms: C_19  and  C_20
REMARK    6  A    between atoms: C_20  and  N_21
REMARK    7  A    between atoms: C_22  and  C_24
REMARK                            x       y       z     vdW  Elec       q    Type
REMARK                         _______ _______ _______ _____ _____    ______ ____
ROOT
ATOM      1  C   UNL     1      49.166   7.760  13.202  0.00  0.00    +0.000 C 
ATOM      2  C   UNL     1      47.969   7.189  13.971  0.00  0.00    +0.000 C 
ENDROOT
BRANCH   2   3
ATOM      3  C   UNL     1      47.068   6.285  13.141  0.00  0.00    +0.000 A 
ATOM      4  C   UNL     1      46.600   6.737  11.896  0.00  0.00    +0.000 A 
ATOM      5  C   UNL     1      45.739   5.952  11.119  0.00  0.00    +0.000 A 
ATOM      6  C   UNL     1      45.306   4.702  11.578  0.00  0.00    +0.000 A 
ATOM      7  C   UNL     1      45.773   4.245  12.816  0.00  0.00    +0.000 A 
ATOM      8  C   UNL     1      46.629   5.032  13.594  0.00  0.00    +0.000 A 
BRANCH   6   9
ATOM      9  C   UNL     1      44.360   3.862  10.758  0.00  0.00    +0.000 C 
BRANCH   9  10
ATOM     10  N   UNL     1      45.066   3.045   9.799  0.00  0.00    +0.000 N 
ATOM     11  C   UNL     1      45.367   3.545   8.549  0.00  0.00    +0.000 C 
ATOM     12  O   UNL     1      45.043   4.665   8.168  0.00  0.00    +0.000 OA
ATOM     13  H   UNL     1      45.562   2.235  10.146  0.00  0.00    +0.000 HD
BRANCH  11  14
ATOM     14  C   UNL     1      46.160   2.655   7.662  0.00  0.00    +0.000 A 
ATOM     15  C   UNL     1      46.443   1.336   8.018  0.00  0.00    +0.000 A 
ATOM     16  C   UNL     1      47.185   0.573   7.134  0.00  0.00    +0.000 A 
ATOM     17  N   UNL     1      47.645   1.032   5.951  0.00  0.00    +0.000 NA
ATOM     18  C   UNL     1      47.337   2.306   5.624  0.00  0.00    +0.000 A 
ATOM     19  C   UNL     1      46.599   3.149   6.433  0.00  0.00    +0.000 A 
ENDBRANCH  11  14
ENDBRANCH   9  10
ENDBRANCH   6   9
ENDBRANCH   2   3
BRANCH   2  20
ATOM     20  N   UNL     1      48.428   6.457  15.137  0.00  0.00    +0.000 N 
ATOM     21  C   UNL     1      48.712   7.062  16.334  0.00  0.00    +0.000 C 
ATOM     22  O   UNL     1      48.521   8.258  16.532  0.00  0.00    +0.000 OA
ATOM     23  H   UNL     1      48.779   5.522  14.961  0.00  0.00    +0.000 HD
BRANCH  21  24
ATOM     24  C   UNL     1      49.196   6.176  17.400  0.00  0.00    +0.000 A 
ATOM     25  C   UNL     1      48.316   5.704  18.363  0.00  0.00    +0.000 A 
ATOM     26  S   UNL     1      49.037   4.639  19.484  0.00  0.00    +0.000 S 
ATOM     27  C   UNL     1      50.565   4.818  18.754  0.00  0.00    +0.000 A 
ATOM     28  N   UNL     1      51.655   4.172  19.247  0.00  0.00    +0.000 NA
ATOM     29  C   UNL     1      52.756   4.431  18.622  0.00  0.00    +0.000 A 
ATOM     30  N   UNL     1      52.862   5.274  17.546  0.00  0.00    +0.000 N 
ATOM     31  C   UNL     1      51.781   5.915  16.989  0.00  0.00    +0.000 A 
ATOM     32  O   UNL     1      51.900   6.614  15.988  0.00  0.00    +0.000 OA
ATOM     33  C   UNL     1      50.521   5.668  17.665  0.00  0.00    +0.000 A 
ATOM     34  H   UNL     1      53.752   5.426  17.094  0.00  0.00    +0.000 HD
ENDBRANCH  21  24
ENDBRANCH   2  20
TORSDOF 6
ENDMDL
MODEL 6
REMARK VINA RESULT:    -7.843      2.879      5.252
REMARK INTER + INTRA:         -11.040
REMARK INTER:                 -10.198
REMARK INTRA:                  -0.842
REMARK UNBOUND:                -0.446
REMARK  Name = 
REMARK  7 active torsions:
REMARK  status: ('A' for Active; 'I' for Inactive)
REMARK    1  A    between atoms: C_1  and  C_2
REMARK    2  A    between atoms: C_2  and  N_3
REMARK    3  A    between atoms: C_2  and  C_16
REMARK    4  A    between atoms: C_4  and  C_6
REMARK    5  A    between atoms: C_19  and  C_20
REMARK    6  A    between atoms: C_20  and  N_21
REMARK    7  A    between atoms: C_22  and  C_24
REMARK                            x       y       z     vdW  Elec       q    Type
REMARK                         _______ _______ _______ _____ _____    ______ ____
ROOT
ATOM      1  C   UNL     1      43.352   4.343  10.497  0.00  0.00    +0.000 C 
ATOM      2  C   UNL     1      44.562   3.408  10.597  0.00  0.00    +0.000 C 
ENDROOT
BRANCH   2   3
ATOM      3  C   UNL     1      45.254   3.138   9.268  0.00  0.00    +0.000 A 
ATOM      4  C   UNL     1      45.573   1.816   8.916  0.00  0.00    +0.000 A 
ATOM      5  C   UNL     1      46.244   1.528   7.721  0.00  0.00    +0.000 A 
ATOM      6  C   UNL     1      46.633   2.559   6.856  0.00  0.00    +0.000 A 
ATOM      7  C   UNL     1      46.313   3.878   7.200  0.00  0.00    +0.000 A 
ATOM      8  C   UNL     1      45.647   4.165   8.397  0.00  0.00    +0.000 A 
BRANCH   6   9
ATOM      9  C   UNL     1      47.376   2.259   5.579  0.00  0.00    +0.000 C 
BRANCH   9  10
ATOM     10  N   UNL     1      47.250   0.871   5.202  0.00  0.00    +0.000 N 
ATOM     11  C   UNL     1      46.702   0.529   3.983  0.00  0.00    +0.000 C 
ATOM     12  O   UNL     1      46.273   1.348   3.177  0.00  0.00    +0.000 OA
ATOM     13  H   UNL     1      47.805   0.194   5.708  0.00  0.00    +0.000 HD
BRANCH  11  14
ATOM     14  C   UNL     1      46.684  -0.920   3.656  0.00  0.00    +0.000 A 
ATOM     15  C   UNL     1      46.707  -1.893   4.657  0.00  0.00    +0.000 A 
ATOM     16  C   UNL     1      46.685  -3.219   4.268  0.00  0.00    +0.000 A 
ATOM     17  N   UNL     1      46.641  -3.624   2.981  0.00  0.00    +0.000 NA
ATOM     18  C   UNL     1      46.598  -2.659   2.035  0.00  0.00    +0.000 A 
ATOM     19  C   UNL     1      46.611  -1.306   2.318  0.00  0.00    +0.000 A 
ENDBRANCH  11  14
ENDBRANCH   9  10
ENDBRANCH   6   9
ENDBRANCH   2   3
BRANCH   2  20
ATOM     20  N   UNL     1      45.532   3.946  11.534  0.00  0.00    +0.000 N 
ATOM     21  C   UNL     1      45.250   4.162  12.858  0.00  0.00    +0.000 C 
ATOM     22  O   UNL     1      44.181   3.840  13.367  0.00  0.00    +0.000 OA
ATOM     23  H   UNL     1      46.340   4.398  11.122  0.00  0.00    +0.000 HD
BRANCH  21  24
ATOM     24  C   UNL     1      46.336   4.741  13.658  0.00  0.00    +0.000 A 
ATOM     25  C   UNL     1      46.585   4.265  14.937  0.00  0.00    +0.000 A 
ATOM     26  S   UNL     1      47.922   5.009  15.694  0.00  0.00    +0.000 S 
ATOM     27  C   UNL     1      48.177   6.034  14.358  0.00  0.00    +0.000 A 
ATOM     28  N   UNL     1      49.180   6.953  14.363  0.00  0.00    +0.000 NA
ATOM     29  C   UNL     1      49.232   7.690  13.304  0.00  0.00    +0.000 A 
ATOM     30  N   UNL     1      48.375   7.588  12.239  0.00  0.00    +0.000 N 
ATOM     31  C   UNL     1      47.373   6.648  12.173  0.00  0.00    +0.000 A 
ATOM     32  O   UNL     1      46.663   6.542  11.179  0.00  0.00    +0.000 OA
ATOM     33  C   UNL     1      47.264   5.803  13.347  0.00  0.00    +0.000 A 
ATOM     34  H   UNL     1      48.476   8.189  11.434  0.00  0.00    +0.000 HD
ENDBRANCH  21  24
ENDBRANCH   2  20
TORSDOF 6
ENDMDL
MODEL 7
REMARK VINA RESULT:    -7.836      1.638      2.193
REMARK INTER + INTRA:         -11.031
REMARK INTER:                  -9.931
REMARK INTRA:                  -1.100
REMARK UNBOUND:                -0.446
REMARK  Name = 
REMARK  7 active torsions:
REMARK  status: ('A' for Active; 'I' for Inactive)
REMARK    1  A    between atoms: C_1  and  C_2
REMARK    2  A    between atoms: C_2  and  N_3
REMARK    3  A    between atoms: C_2  and  C_16
REMARK    4  A    between atoms: C_4  and  C_6
REMARK    5  A    between atoms: C_19  and  C_20
REMARK    6  A    between atoms: C_20  and  N_21
REMARK    7  A    between atoms: C_22  and  C_24
REMARK                            x       y       z     vdW  Elec       q    Type
REMARK                         _______ _______ _______ _____ _____    ______ ____
ROOT
ATOM      1  C   UNL     1      47.022   9.343  12.223  0.00  0.00    +0.000 C 
ATOM      2  C   UNL     1      46.768   8.254  13.271  0.00  0.00    +0.000 C 
ENDROOT
BRANCH   2   3
ATOM      3  C   UNL     1      46.029   7.034  12.738  0.00  0.00    +0.000 A 
ATOM      4  C   UNL     1      46.748   5.856  12.475  0.00  0.00    +0.000 A 
ATOM      5  C   UNL     1      46.114   4.725  11.947  0.00  0.00    +0.000 A 
ATOM      6  C   UNL     1      44.746   4.748  11.650  0.00  0.00    +0.000 A 
ATOM      7  C   UNL     1      44.023   5.918  11.915  0.00  0.00    +0.000 A 
ATOM      8  C   UNL     1      44.659   7.050  12.437  0.00  0.00    +0.000 A 
BRANCH   6   9
ATOM      9  C   UNL     1      44.061   3.542  11.061  0.00  0.00    +0.000 C 
BRANCH   9  10
ATOM     10  N   UNL     1      44.913   2.850  10.122  0.00  0.00    +0.000 N 
ATOM     11  C   UNL     1      45.010   3.288   8.818  0.00  0.00    +0.000 C 
ATOM     12  O   UNL     1      44.381   4.242   8.373  0.00  0.00    +0.000 OA
ATOM     13  H   UNL     1      45.622   2.235  10.496  0.00  0.00    +0.000 HD
BRANCH  11  14
ATOM     14  C   UNL     1      45.968   2.555   7.950  0.00  0.00    +0.000 A 
ATOM     15  C   UNL     1      46.230   1.197   8.139  0.00  0.00    +0.000 A 
ATOM     16  C   UNL     1      47.133   0.590   7.286  0.00  0.00    +0.000 A 
ATOM     17  N   UNL     1      47.769   1.233   6.285  0.00  0.00    +0.000 NA
ATOM     18  C   UNL     1      47.479   2.541   6.113  0.00  0.00    +0.000 A 
ATOM     19  C   UNL     1      46.589   3.241   6.906  0.00  0.00    +0.000 A 
ENDBRANCH  11  14
ENDBRANCH   9  10
ENDBRANCH   6   9
ENDBRANCH   2   3
BRANCH   2  20
ATOM     20  N   UNL     1      48.024   7.826  13.859  0.00  0.00    +0.000 N 
ATOM     21  C   UNL     1      48.508   8.333  15.037  0.00  0.00    +0.000 C 
ATOM     22  O   UNL     1      47.875   9.129  15.723  0.00  0.00    +0.000 OA
ATOM     23  H   UNL     1      48.654   7.329  13.240  0.00  0.00    +0.000 HD
BRANCH  21  24
ATOM     24  C   UNL     1      49.809   7.812  15.472  0.00  0.00    +0.000 A 
ATOM     25  C   UNL     1      50.975   8.487  15.138  0.00  0.00    +0.000 A 
ATOM     26  S   UNL     1      52.386   7.773  15.781  0.00  0.00    +0.000 S 
ATOM     27  C   UNL     1      51.491   6.503  16.479  0.00  0.00    +0.000 A 
ATOM     28  N   UNL     1      52.109   5.512  17.175  0.00  0.00    +0.000 NA
ATOM     29  C   UNL     1      51.315   4.593  17.614  0.00  0.00    +0.000 A 
ATOM     30  N   UNL     1      49.957   4.579  17.422  0.00  0.00    +0.000 N 
ATOM     31  C   UNL     1      49.285   5.579  16.760  0.00  0.00    +0.000 A 
ATOM     32  O   UNL     1      48.063   5.567  16.660  0.00  0.00    +0.000 OA
ATOM     33  C   UNL     1      50.136   6.630  16.235  0.00  0.00    +0.000 A 
ATOM     34  H   UNL     1      49.390   3.835  17.801  0.00  0.00    +0.000 HD
ENDBRANCH  21  24
ENDBRANCH   2  20
TORSDOF 6
ENDMDL
MODEL 8
REMARK VINA RESULT:    -7.740      4.365      7.181
REMARK INTER + INTRA:         -10.901
REMARK INTER:                  -9.911
REMARK INTRA:                  -0.990
REMARK UNBOUND:                -0.446
REMARK  Name = 
REMARK  7 active torsions:
REMARK  status: ('A' for Active; 'I' for Inactive)
REMARK    1  A    between atoms: C_1  and  C_2
REMARK    2  A    between atoms: C_2  and  N_3
REMARK    3  A    between atoms: C_2  and  C_16
REMARK    4  A    between atoms: C_4  and  C_6
REMARK    5  A    between atoms: C_19  and  C_20
REMARK    6  A    between atoms: C_20  and  N_21
REMARK    7  A    between atoms: C_22  and  C_24
REMARK                            x       y       z     vdW  Elec       q    Type
REMARK                         _______ _______ _______ _____ _____    ______ ____
ROOT
ATOM      1  C   UNL     1      44.885   4.136  12.933  0.00  0.00    +0.000 C 
ATOM      2  C   UNL     1      46.023   5.162  12.948  0.00  0.00    +0.000 C 
ENDROOT
BRANCH   2   3
ATOM      3  C   UNL     1      45.606   6.562  12.515  0.00  0.00    +0.000 A 
ATOM      4  C   UNL     1      46.167   7.676  13.162  0.00  0.00    +0.000 A 
ATOM      5  C   UNL     1      45.783   8.978  12.821  0.00  0.00    +0.000 A 
ATOM      6  C   UNL     1      44.811   9.200  11.837  0.00  0.00    +0.000 A 
ATOM      7  C   UNL     1      44.253   8.094  11.185  0.00  0.00    +0.000 A 
ATOM      8  C   UNL     1      44.634   6.792  11.531  0.00  0.00    +0.000 A 
BRANCH   6   9
ATOM      9  C   UNL     1      44.376  10.598  11.480  0.00  0.00    +0.000 C 
BRANCH   9  10
ATOM     10  N   UNL     1      43.060  10.895  11.995  0.00  0.00    +0.000 N 
ATOM     11  C   UNL     1      41.959  10.828  11.168  0.00  0.00    +0.000 C 
ATOM     12  O   UNL     1      42.020  10.550   9.975  0.00  0.00    +0.000 OA
ATOM     13  H   UNL     1      42.933  10.880  12.998  0.00  0.00    +0.000 HD
BRANCH  11  14
ATOM     14  C   UNL     1      40.642  11.079  11.809  0.00  0.00    +0.000 A 
ATOM     15  C   UNL     1      39.490  10.408  11.394  0.00  0.00    +0.000 A 
ATOM     16  C   UNL     1      38.305  10.697  12.045  0.00  0.00    +0.000 A 
ATOM     17  N   UNL     1      38.201  11.586  13.056  0.00  0.00    +0.000 NA
ATOM     18  C   UNL     1      39.336  12.203  13.450  0.00  0.00    +0.000 A 
ATOM     19  C   UNL     1      40.571  11.983  12.869  0.00  0.00    +0.000 A 
ENDBRANCH  11  14
ENDBRANCH   9  10
ENDBRANCH   6   9
ENDBRANCH   2   3
BRANCH   2  20
ATOM     20  N   UNL     1      46.612   5.234  14.272  0.00  0.00    +0.000 N 
ATOM     21  C   UNL     1      47.238   4.170  14.869  0.00  0.00    +0.000 C 
ATOM     22  O   UNL     1      47.418   3.102  14.293  0.00  0.00    +0.000 OA
ATOM     23  H   UNL     1      46.319   6.018  14.844  0.00  0.00    +0.000 HD
BRANCH  21  24
ATOM     24  C   UNL     1      47.750   4.407  16.224  0.00  0.00    +0.000 A 
ATOM     25  C   UNL     1      47.325   3.608  17.276  0.00  0.00    +0.000 A 
ATOM     26  S   UNL     1      48.071   3.984  18.764  0.00  0.00    +0.000 S 
ATOM     27  C   UNL     1      48.945   5.266  18.065  0.00  0.00    +0.000 A 
ATOM     28  N   UNL     1      49.782   6.033  18.813  0.00  0.00    +0.000 NA
ATOM     29  C   UNL     1      50.349   6.995  18.163  0.00  0.00    +0.000 A 
ATOM     30  N   UNL     1      50.156   7.256  16.831  0.00  0.00    +0.000 N 
ATOM     31  C   UNL     1      49.352   6.484  16.026  0.00  0.00    +0.000 A 
ATOM     32  O   UNL     1      49.250   6.707  14.825  0.00  0.00    +0.000 OA
ATOM     33  C   UNL     1      48.681   5.396  16.714  0.00  0.00    +0.000 A 
ATOM     34  H   UNL     1      50.639   8.018  16.379  0.00  0.00    +0.000 HD
ENDBRANCH  21  24
ENDBRANCH   2  20
TORSDOF 6
ENDMDL
MODEL 9
REMARK VINA RESULT:    -7.612      1.726      2.345
REMARK INTER + INTRA:         -10.728
REMARK INTER:                  -9.584
REMARK INTRA:                  -1.144
REMARK UNBOUND:                -0.446
REMARK  Name = 
REMARK  7 active torsions:
REMARK  status: ('A' for Active; 'I' for Inactive)
REMARK    1  A    between atoms: C_1  and  C_2
REMARK    2  A    between atoms: C_2  and  N_3
REMARK    3  A    between atoms: C_2  and  C_16
REMARK    4  A    between atoms: C_4  and  C_6
REMARK    5  A    between atoms: C_19  and  C_20
REMARK    6  A    between atoms: C_20  and  N_21
REMARK    7  A    between atoms: C_22  and  C_24
REMARK                            x       y       z     vdW  Elec       q    Type
REMARK                         _______ _______ _______ _____ _____    ______ ____
ROOT
ATOM      1  C   UNL     1      49.302   9.770  13.750  0.00  0.00    +0.000 C 
ATOM      2  C   UNL     1      48.376   8.749  14.421  0.00  0.00    +0.000 C 
ENDROOT
BRANCH   2   3
ATOM      3  C   UNL     1      47.372   8.102  13.476  0.00  0.00    +0.000 A 
ATOM      4  C   UNL     1      47.639   6.823  12.961  0.00  0.00    +0.000 A 
ATOM      5  C   UNL     1      46.761   6.209  12.059  0.00  0.00    +0.000 A 
ATOM      6  C   UNL     1      45.602   6.867  11.633  0.00  0.00    +0.000 A 
ATOM      7  C   UNL     1      45.328   8.140  12.147  0.00  0.00    +0.000 A 
ATOM      8  C   UNL     1      46.208   8.756  13.043  0.00  0.00    +0.000 A 
BRANCH   6   9
ATOM      9  C   UNL     1      44.664   6.223  10.645  0.00  0.00    +0.000 C 
BRANCH   9  10
ATOM     10  N   UNL     1      45.360   5.317   9.761  0.00  0.00    +0.000 N 
ATOM     11  C   UNL     1      44.917   4.021   9.605  0.00  0.00    +0.000 C 
ATOM     12  O   UNL     1      43.955   3.554  10.206  0.00  0.00    +0.000 OA
ATOM     13  H   UNL     1      45.984   5.718   9.073  0.00  0.00    +0.000 HD
BRANCH  11  14
ATOM     14  C   UNL     1      45.655   3.190   8.618  0.00  0.00    +0.000 A 
ATOM     15  C   UNL     1      45.745   1.804   8.755  0.00  0.00    +0.000 A 
ATOM     16  C   UNL     1      46.448   1.105   7.792  0.00  0.00    +0.000 A 
ATOM     17  N   UNL     1      47.047   1.685   6.730  0.00  0.00    +0.000 NA
ATOM     18  C   UNL     1      46.924   3.026   6.612  0.00  0.00    +0.000 A 
ATOM     19  C   UNL     1      46.240   3.816   7.517  0.00  0.00    +0.000 A 
ENDBRANCH  11  14
ENDBRANCH   9  10
ENDBRANCH   6   9
ENDBRANCH   2   3
BRANCH   2  20
ATOM     20  N   UNL     1      49.160   7.709  15.060  0.00  0.00    +0.000 N 
ATOM     21  C   UNL     1      49.150   7.492  16.414  0.00  0.00    +0.000 C 
ATOM     22  O   UNL     1      48.413   8.110  17.176  0.00  0.00    +0.000 OA
ATOM     23  H   UNL     1      49.911   7.318  14.503  0.00  0.00    +0.000 HD
BRANCH  21  24
ATOM     24  C   UNL     1      50.027   6.418  16.897  0.00  0.00    +0.000 A 
ATOM     25  C   UNL     1      51.329   6.706  17.280  0.00  0.00    +0.000 A 
ATOM     26  S   UNL     1      52.181   5.351  17.874  0.00  0.00    +0.000 S 
ATOM     27  C   UNL     1      50.856   4.322  17.585  0.00  0.00    +0.000 A 
ATOM     28  N   UNL     1      50.929   2.993  17.862  0.00  0.00    +0.000 NA
ATOM     29  C   UNL     1      49.866   2.325  17.555  0.00  0.00    +0.000 A 
ATOM     30  N   UNL     1      48.736   2.869  16.999  0.00  0.00    +0.000 N 
ATOM     31  C   UNL     1      48.603   4.212  16.739  0.00  0.00    +0.000 A 
ATOM     32  O   UNL     1      47.556   4.676  16.299  0.00  0.00    +0.000 OA
ATOM     33  C   UNL     1      49.777   5.005  17.054  0.00  0.00    +0.000 A 
ATOM     34  H   UNL     1      47.934   2.293  16.792  0.00  0.00    +0.000 HD
ENDBRANCH  21  24
ENDBRANCH   2  20
TORSDOF 6
ENDMDL
