MODEL 1
REMARK VINA RESULT:    -8.078      0.000      0.000
REMARK INTER + INTRA:         -13.099
REMARK INTER:                 -11.855
REMARK INTRA:                  -1.244
REMARK UNBOUND:                -1.244
REMARK  Name = 
REMARK  8 active torsions:
REMARK  status: ('A' for Active; 'I' for Inactive)
REMARK    1  A    between atoms: C_2  and  C_3
REMARK    2  A    between atoms: C_3  and  N_4
REMARK    3  A    between atoms: C_3  and  C_26
REMARK    4  A    between atoms: N_4  and  C_5
REMARK    5  A    between atoms: C_5  and  C_6
REMARK    6  A    between atoms: C_9  and  C_10
REMARK    7  A    between atoms: C_10  and  N_11
REMARK    8  A    between atoms: C_12  and  C_14
REMARK                            x       y       z     vdW  Elec       q    Type
REMARK                         _______ _______ _______ _____ _____    ______ ____
ROOT
ATOM      1  C   UNL     1      45.346   6.654  11.276  0.00  0.00    +0.000 A 
ATOM      2  C   UNL     1      44.938   7.831  11.921  0.00  0.00    +0.000 A 
ATOM      3  C   UNL     1      45.769   8.449  12.855  0.00  0.00    +0.000 A 
ATOM      4  C   UNL     1      47.019   7.897  13.166  0.00  0.00    +0.000 A 
ATOM      5  C   UNL     1      47.407   6.699  12.552  0.00  0.00    +0.000 A 
ATOM      6  C   UNL     1      46.583   6.088  11.611  0.00  0.00    +0.000 A 
ENDROOT
BRANCH   1   7
ATOM      7  C   UNL     1      44.454   5.971  10.273  0.00  0.00    +0.000 C 
BRANCH   7   8
ATOM      8  N   UNL     1      45.232   5.264   9.248  0.00  0.00    +0.000 NA
ATOM      9  H   UNL     1      45.269   5.847   8.415  0.00  0.00    +0.000 HD
BRANCH   8  10
ATOM     10  C   UNL     1      44.636   3.963   8.875  0.00  0.00    +0.000 C 
BRANCH  10  11
ATOM     11  C   UNL     1      45.651   3.058   8.161  0.00  0.00    +0.000 A 
ATOM     12  C   UNL     1      46.540   3.603   7.224  0.00  0.00    +0.000 A 
ATOM     13  C   UNL     1      47.487   2.797   6.583  0.00  0.00    +0.000 A 
ATOM     14  C   UNL     1      47.568   1.436   6.878  0.00  0.00    +0.000 A 
ATOM     15  C   UNL     1      46.705   0.877   7.813  0.00  0.00    +0.000 A 
ATOM     16  C   UNL     1      45.755   1.678   8.449  0.00  0.00    +0.000 A 
ENDBRANCH  10  11
BRANCH  10  18
ATOM     17  N   UNL     1      43.529   2.642  11.057  0.00  0.00    +0.000 NA
ATOM     18  C   UNL     1      44.032   3.240  10.067  0.00  0.00    +0.000 C 
ENDBRANCH  10  18
ENDBRANCH   8  10
ENDBRANCH   7   8
ENDBRANCH   1   7
BRANCH   4  19
ATOM     19  C   UNL     1      47.913   8.541  14.188  0.00  0.00    +0.000 C 
BRANCH  19  20
ATOM     20  N   UNL     1      48.114   7.661  15.309  0.00  0.00    +0.000 N 
ATOM     21  C   UNL     1      49.290   6.978  15.470  0.00  0.00    +0.000 C 
ATOM     22  O   UNL     1      50.232   7.112  14.695  0.00  0.00    +0.000 OA
ATOM     23  H   UNL     1      47.286   7.365  15.817  0.00  0.00    +0.000 HD
BRANCH  21  24
ATOM     24  C   UNL     1      49.389   6.124  16.660  0.00  0.00    +0.000 A 
ATOM     25  C   UNL     1      50.342   6.409  17.627  0.00  0.00    +0.000 A 
ATOM     26  S   UNL     1      50.292   5.354  18.967  0.00  0.00    +0.000 S 
ATOM     27  C   UNL     1      49.028   4.450  18.277  0.00  0.00    +0.000 A 
ATOM     28  N   UNL     1      48.518   3.362  18.914  0.00  0.00    +0.000 NA
ATOM     29  C   UNL     1      47.582   2.752  18.266  0.00  0.00    +0.000 A 
ATOM     30  N   UNL     1      47.104   3.140  17.040  0.00  0.00    +0.000 N 
ATOM     31  C   UNL     1      47.568   4.244  16.371  0.00  0.00    +0.000 A 
ATOM     32  O   UNL     1      47.092   4.585  15.292  0.00  0.00    +0.000 OA
ATOM     33  C   UNL     1      48.634   4.959  17.051  0.00  0.00    +0.000 A 
ATOM     34  H   UNL     1      46.362   2.623  16.589  0.00  0.00    +0.000 HD
ENDBRANCH  21  24
ENDBRANCH  19  20
ENDBRANCH   4  19
TORSDOF 8
ENDMDL
MODEL 2
REMARK VINA RESULT:    -7.704      1.317      1.737
REMARK INTER + INTRA:         -12.551
REMARK INTER:                 -11.138
REMARK INTRA:                  -1.413
REMARK UNBOUND:                -1.244
REMARK  Name = 
REMARK  8 active torsions:
REMARK  status: ('A' for Active; 'I' for Inactive)
REMARK    1  A    between atoms: C_2  and  C_3
REMARK    2  A    between atoms: C_3  and  N_4
REMARK    3  A    between atoms: C_3  and  C_26
REMARK    4  A    between atoms: N_4  and  C_5
REMARK    5  A    between atoms: C_5  and  C_6
REMARK    6  A    between atoms: C_9  and  C_10
REMARK    7  A    between atoms: C_10  and  N_11
REMARK    8  A    between atoms: C_12  and  C_14
REMARK                            x       y       z     vdW  Elec       q    Type
REMARK                         _______ _______ _______ _____ _____    ______ ____
ROOT
ATOM      1  C   UNL     1      45.051   6.584  12.074  0.00  0.00    +0.000 A 
ATOM      2  C   UNL     1      45.098   7.912  12.524  0.00  0.00    +0.000 A 
ATOM      3  C   UNL     1      46.307   8.478  12.928  0.00  0.00    +0.000 A 
ATOM      4  C   UNL     1      47.488   7.725  12.895  0.00  0.00    +0.000 A 
ATOM      5  C   UNL     1      47.433   6.387  12.485  0.00  0.00    +0.000 A 
ATOM      6  C   UNL     1      46.228   5.825  12.071  0.00  0.00    +0.000 A 
ENDROOT
BRANCH   1   7
ATOM      7  C   UNL     1      43.751   5.957  11.644  0.00  0.00    +0.000 C 
BRANCH   7   8
ATOM      8  N   UNL     1      43.802   5.506  10.248  0.00  0.00    +0.000 NA
ATOM      9  H   UNL     1      43.030   5.936   9.744  0.00  0.00    +0.000 HD
BRANCH   8  10
ATOM     10  C   UNL     1      43.676   4.038  10.118  0.00  0.00    +0.000 C 
BRANCH  10  11
ATOM     11  C   UNL     1      44.759   3.455   9.198  0.00  0.00    +0.000 A 
ATOM     12  C   UNL     1      45.001   2.074   9.188  0.00  0.00    +0.000 A 
ATOM     13  C   UNL     1      45.966   1.524   8.338  0.00  0.00    +0.000 A 
ATOM     14  C   UNL     1      46.696   2.343   7.476  0.00  0.00    +0.000 A 
ATOM     15  C   UNL     1      46.463   3.713   7.460  0.00  0.00    +0.000 A 
ATOM     16  C   UNL     1      45.505   4.265   8.312  0.00  0.00    +0.000 A 
ENDBRANCH  10  11
BRANCH  10  18
ATOM     17  N   UNL     1      43.706   2.749  12.581  0.00  0.00    +0.000 NA
ATOM     18  C   UNL     1      43.693   3.334  11.464  0.00  0.00    +0.000 C 
ENDBRANCH  10  18
ENDBRANCH   8  10
ENDBRANCH   7   8
ENDBRANCH   1   7
BRANCH   4  19
ATOM     19  C   UNL     1      48.792   8.318  13.350  0.00  0.00    +0.000 C 
BRANCH  19  20
ATOM     20  N   UNL     1      49.207   7.728  14.596  0.00  0.00    +0.000 N 
ATOM     21  C   UNL     1      48.839   8.277  15.796  0.00  0.00    +0.000 C 
ATOM     22  O   UNL     1      48.114   9.264  15.865  0.00  0.00    +0.000 OA
ATOM     23  H   UNL     1      49.978   7.069  14.560  0.00  0.00    +0.000 HD
BRANCH  21  24
ATOM     24  C   UNL     1      49.305   7.581  17.000  0.00  0.00    +0.000 A 
ATOM     25  C   UNL     1      50.007   8.284  17.968  0.00  0.00    +0.000 A 
ATOM     26  S   UNL     1      50.431   7.342  19.325  0.00  0.00    +0.000 S 
ATOM     27  C   UNL     1      49.734   5.948  18.644  0.00  0.00    +0.000 A 
ATOM     28  N   UNL     1      49.775   4.756  19.297  0.00  0.00    +0.000 NA
ATOM     29  C   UNL     1      49.233   3.776  18.653  0.00  0.00    +0.000 A 
ATOM     30  N   UNL     1      48.647   3.884  17.418  0.00  0.00    +0.000 N 
ATOM     31  C   UNL     1      48.558   5.069  16.733  0.00  0.00    +0.000 A 
ATOM     32  O   UNL     1      47.993   5.139  15.645  0.00  0.00    +0.000 OA
ATOM     33  C   UNL     1      49.166   6.204  17.407  0.00  0.00    +0.000 A 
ATOM     34  H   UNL     1      48.232   3.077  16.972  0.00  0.00    +0.000 HD
ENDBRANCH  21  24
ENDBRANCH  19  20
ENDBRANCH   4  19
TORSDOF 8
ENDMDL
MODEL 3
REMARK VINA RESULT:    -7.680      1.842      2.423
REMARK INTER + INTRA:         -12.516
REMARK INTER:                 -11.653
REMARK INTRA:                  -0.863
REMARK UNBOUND:                -1.244
REMARK  Name = 
REMARK  8 active torsions:
REMARK  status: ('A' for Active; 'I' for Inactive)
REMARK    1  A    between atoms: C_2  and  C_3
REMARK    2  A    between atoms: C_3  and  N_4
REMARK    3  A    between atoms: C_3  and  C_26
REMARK    4  A    between atoms: N_4  and  C_5
REMARK    5  A    between atoms: C_5  and  C_6
REMARK    6  A    between atoms: C_9  and  C_10
REMARK    7  A    between atoms: C_10  and  N_11
REMARK    8  A    between atoms: C_12  and  C_14
REMARK                            x       y       z     vdW  Elec       q    Type
REMARK                         _______ _______ _______ _____ _____    ______ ____
ROOT
ATOM      1  C   UNL     1      45.457   6.014  12.365  0.00  0.00    +0.000 A 
ATOM      2  C   UNL     1      46.103   5.096  13.206  0.00  0.00    +0.000 A 
ATOM      3  C   UNL     1      47.285   5.447  13.859  0.00  0.00    +0.000 A 
ATOM      4  C   UNL     1      47.843   6.718  13.677  0.00  0.00    +0.000 A 
ATOM      5  C   UNL     1      47.220   7.620  12.805  0.00  0.00    +0.000 A 
ATOM      6  C   UNL     1      46.034   7.274  12.162  0.00  0.00    +0.000 A 
ENDROOT
BRANCH   1   7
ATOM      7  C   UNL     1      44.186   5.645  11.645  0.00  0.00    +0.000 C 
BRANCH   7   8
ATOM      8  N   UNL     1      44.413   5.456  10.206  0.00  0.00    +0.000 NA
ATOM      9  H   UNL     1      43.887   6.167   9.704  0.00  0.00    +0.000 HD
BRANCH   8  10
ATOM     10  C   UNL     1      43.970   4.130   9.728  0.00  0.00    +0.000 C 
BRANCH  10  11
ATOM     11  C   UNL     1      45.049   3.445   8.875  0.00  0.00    +0.000 A 
ATOM     12  C   UNL     1      45.225   2.056   8.951  0.00  0.00    +0.000 A 
ATOM     13  C   UNL     1      46.186   1.413   8.163  0.00  0.00    +0.000 A 
ATOM     14  C   UNL     1      46.976   2.147   7.277  0.00  0.00    +0.000 A 
ATOM     15  C   UNL     1      46.808   3.523   7.176  0.00  0.00    +0.000 A 
ATOM     16  C   UNL     1      45.855   4.167   7.967  0.00  0.00    +0.000 A 
ENDBRANCH  10  11
BRANCH  10  18
ATOM     17  N   UNL     1      43.184   2.460  11.808  0.00  0.00    +0.000 NA
ATOM     18  C   UNL     1      43.540   3.218  10.865  0.00  0.00    +0.000 C 
ENDBRANCH  10  18
ENDBRANCH   8  10
ENDBRANCH   7   8
ENDBRANCH   1   7
BRANCH   4  19
ATOM     19  C   UNL     1      49.128   7.099  14.358  0.00  0.00    +0.000 C 
BRANCH  19  20
ATOM     20  N   UNL     1      48.914   7.298  15.767  0.00  0.00    +0.000 N 
ATOM     21  C   UNL     1      49.592   6.556  16.697  0.00  0.00    +0.000 C 
ATOM     22  O   UNL     1      50.434   5.722  16.377  0.00  0.00    +0.000 OA
ATOM     23  H   UNL     1      48.076   7.803  16.040  0.00  0.00    +0.000 HD
BRANCH  21  24
ATOM     24  C   UNL     1      49.306   6.858  18.105  0.00  0.00    +0.000 A 
ATOM     25  C   UNL     1      49.332   8.175  18.540  0.00  0.00    +0.000 A 
ATOM     26  S   UNL     1      48.929   8.359  20.187  0.00  0.00    +0.000 S 
ATOM     27  C   UNL     1      48.756   6.679  20.388  0.00  0.00    +0.000 A 
ATOM     28  N   UNL     1      48.438   6.150  21.600  0.00  0.00    +0.000 NA
ATOM     29  C   UNL     1      48.366   4.860  21.617  0.00  0.00    +0.000 A 
ATOM     30  N   UNL     1      48.577   4.053  20.528  0.00  0.00    +0.000 N 
ATOM     31  C   UNL     1      48.874   4.542  19.282  0.00  0.00    +0.000 A 
ATOM     32  O   UNL     1      49.019   3.794  18.318  0.00  0.00    +0.000 OA
ATOM     33  C   UNL     1      48.981   5.988  19.209  0.00  0.00    +0.000 A 
ATOM     34  H   UNL     1      48.497   3.049  20.607  0.00  0.00    +0.000 HD
ENDBRANCH  21  24
ENDBRANCH  19  20
ENDBRANCH   4  19
TORSDOF 8
ENDMDL
MODEL 4
REMARK VINA RESULT:    -7.667      2.298      2.771
REMARK INTER + INTRA:         -12.497
REMARK INTER:                 -11.509
REMARK INTRA:                  -0.988
REMARK UNBOUND:                -1.244
REMARK  Name = 
REMARK  8 active torsions:
REMARK  status: ('A' for Active; 'I' for Inactive)
REMARK    1  A    between atoms: C_2  and  C_3
REMARK    2  A    between atoms: C_3  and  N_4
REMARK    3  A    between atoms: C_3  and  C_26
REMARK    4  A    between atoms: N_4  and  C_5
REMARK    5  A    between atoms: C_5  and  C_6
REMARK    6  A    between atoms: C_9  and  C_10
REMARK    7  A    between atoms: C_10  and  N_11
REMARK    8  A    between atoms: C_12  and  C_14
REMARK                            x       y       z     vdW  Elec       q    Type
REMARK                         _______ _______ _______ _____ _____    ______ ____
ROOT
ATOM      1  C   UNL     1      45.381   5.976  12.363  0.00  0.00    +0.000 A 
ATOM      2  C   UNL     1      45.862   7.290  12.465  0.00  0.00    +0.000 A 
ATOM      3  C   UNL     1      46.984   7.573  13.244  0.00  0.00    +0.000 A 
ATOM      4  C   UNL     1      47.639   6.549  13.939  0.00  0.00    +0.000 A 
ATOM      5  C   UNL     1      47.134   5.244  13.869  0.00  0.00    +0.000 A 
ATOM      6  C   UNL     1      46.021   4.959  13.082  0.00  0.00    +0.000 A 
ENDROOT
BRANCH   1   7
ATOM      7  C   UNL     1      44.164   5.659  11.533  0.00  0.00    +0.000 C 
BRANCH   7   8
ATOM      8  N   UNL     1      44.519   5.382  10.135  0.00  0.00    +0.000 NA
ATOM      9  H   UNL     1      44.104   6.104   9.550  0.00  0.00    +0.000 HD
BRANCH   8  10
ATOM     10  C   UNL     1      44.021   4.069   9.670  0.00  0.00    +0.000 C 
BRANCH  10  11
ATOM     11  C   UNL     1      45.062   3.341   8.806  0.00  0.00    +0.000 A 
ATOM     12  C   UNL     1      45.866   4.067   7.915  0.00  0.00    +0.000 A 
ATOM     13  C   UNL     1      46.836   3.423   7.140  0.00  0.00    +0.000 A 
ATOM     14  C   UNL     1      47.026   2.045   7.252  0.00  0.00    +0.000 A 
ATOM     15  C   UNL     1      46.250   1.308   8.138  0.00  0.00    +0.000 A 
ATOM     16  C   UNL     1      45.277   1.948   8.908  0.00  0.00    +0.000 A 
ENDBRANCH  10  11
BRANCH  10  18
ATOM     17  N   UNL     1      43.201   2.443  11.771  0.00  0.00    +0.000 NA
ATOM     18  C   UNL     1      43.574   3.180  10.818  0.00  0.00    +0.000 C 
ENDBRANCH  10  18
ENDBRANCH   8  10
ENDBRANCH   7   8
ENDBRANCH   1   7
BRANCH   4  19
ATOM     19  C   UNL     1      48.835   6.845  14.800  0.00  0.00    +0.000 C 
BRANCH  19  20
ATOM     20  N   UNL     1      48.500   6.712  16.193  0.00  0.00    +0.000 N 
ATOM     21  C   UNL     1      49.270   5.957  17.037  0.00  0.00    +0.000 C 
ATOM     22  O   UNL     1      50.294   5.396  16.657  0.00  0.00    +0.000 OA
ATOM     23  H   UNL     1      47.556   6.968  16.467  0.00  0.00    +0.000 HD
BRANCH  21  24
ATOM     24  C   UNL     1      48.843   5.908  18.440  0.00  0.00    +0.000 A 
ATOM     25  C   UNL     1      48.947   4.718  19.145  0.00  0.00    +0.000 A 
ATOM     26  S   UNL     1      48.458   4.844  20.774  0.00  0.00    +0.000 S 
ATOM     27  C   UNL     1      48.042   6.481  20.580  0.00  0.00    +0.000 A 
ATOM     28  N   UNL     1      47.523   7.197  21.612  0.00  0.00    +0.000 NA
ATOM     29  C   UNL     1      47.226   8.420  21.319  0.00  0.00    +0.000 A 
ATOM     30  N   UNL     1      47.411   8.992  20.086  0.00  0.00    +0.000 N 
ATOM     31  C   UNL     1      47.956   8.318  19.023  0.00  0.00    +0.000 A 
ATOM     32  O   UNL     1      48.144   8.872  17.943  0.00  0.00    +0.000 OA
ATOM     33  C   UNL     1      48.295   6.933  19.295  0.00  0.00    +0.000 A 
ATOM     34  H   UNL     1      47.166   9.959  19.925  0.00  0.00    +0.000 HD
ENDBRANCH  21  24
ENDBRANCH  19  20
ENDBRANCH   4  19
TORSDOF 8
ENDMDL
MODEL 5
REMARK VINA RESULT:    -7.335      2.113      2.724
REMARK INTER + INTRA:         -12.010
REMARK INTER:                 -10.912
REMARK INTRA:                  -1.098
REMARK UNBOUND:                -1.244
REMARK  Name = 
REMARK  8 active torsions:
REMARK  status: ('A' for Active; 'I' for Inactive)
REMARK    1  A    between atoms: C_2  and  C_3
REMARK    2  A    between atoms: C_3  and  N_4
REMARK    3  A    between atoms: C_3  and  C_26
REMARK    4  A    between atoms: N_4  and  C_5
REMARK    5  A    between atoms: C_5  and  C_6
REMARK    6  A    between atoms: C_9  and  C_10
REMARK    7  A    between atoms: C_10  and  N_11
REMARK    8  A    between atoms: C_12  and  C_14
REMARK                            x       y       z     vdW  Elec       q    Type
REMARK                         _______ _______ _______ _____ _____    ______ ____
ROOT
ATOM      1  C   UNL     1      46.256   5.924  12.329  0.00  0.00    +0.000 A 
ATOM      2  C   UNL     1      46.964   5.680  13.515  0.00  0.00    +0.000 A 
ATOM      3  C   UNL     1      48.090   6.439  13.834  0.00  0.00    +0.000 A 
ATOM      4  C   UNL     1      48.531   7.449  12.970  0.00  0.00    +0.000 A 
ATOM      5  C   UNL     1      47.848   7.664  11.766  0.00  0.00    +0.000 A 
ATOM      6  C   UNL     1      46.717   6.914  11.453  0.00  0.00    +0.000 A 
ENDROOT
BRANCH   1   7
ATOM      7  C   UNL     1      45.045   5.105  11.968  0.00  0.00    +0.000 C 
BRANCH   7   8
ATOM      8  N   UNL     1      44.607   5.363  10.590  0.00  0.00    +0.000 NA
ATOM      9  H   UNL     1      43.875   6.070  10.613  0.00  0.00    +0.000 HD
BRANCH   8  10
ATOM     10  C   UNL     1      44.062   4.159   9.928  0.00  0.00    +0.000 C 
BRANCH  10  11
ATOM     11  C   UNL     1      45.094   3.508   8.995  0.00  0.00    +0.000 A 
ATOM     12  C   UNL     1      45.280   2.118   9.017  0.00  0.00    +0.000 A 
ATOM     13  C   UNL     1      46.198   1.506   8.156  0.00  0.00    +0.000 A 
ATOM     14  C   UNL     1      46.934   2.272   7.252  0.00  0.00    +0.000 A 
ATOM     15  C   UNL     1      46.756   3.650   7.205  0.00  0.00    +0.000 A 
ATOM     16  C   UNL     1      45.846   4.263   8.068  0.00  0.00    +0.000 A 
ENDBRANCH  10  11
BRANCH  10  18
ATOM     17  N   UNL     1      43.099   2.293  11.751  0.00  0.00    +0.000 NA
ATOM     18  C   UNL     1      43.536   3.139  10.925  0.00  0.00    +0.000 C 
ENDBRANCH  10  18
ENDBRANCH   8  10
ENDBRANCH   7   8
ENDBRANCH   1   7
BRANCH   4  19
ATOM     19  C   UNL     1      49.757   8.257  13.292  0.00  0.00    +0.000 C 
BRANCH  19  20
ATOM     20  N   UNL     1      50.687   7.478  14.066  0.00  0.00    +0.000 N 
ATOM     21  C   UNL     1      51.020   7.840  15.345  0.00  0.00    +0.000 C 
ATOM     22  O   UNL     1      50.518   8.814  15.898  0.00  0.00    +0.000 OA
ATOM     23  H   UNL     1      51.274   6.823  13.560  0.00  0.00    +0.000 HD
BRANCH  21  24
ATOM     24  C   UNL     1      51.963   6.961  16.045  0.00  0.00    +0.000 A 
ATOM     25  C   UNL     1      53.320   7.247  16.009  0.00  0.00    +0.000 A 
ATOM     26  S   UNL     1      54.273   6.159  16.914  0.00  0.00    +0.000 S 
ATOM     27  C   UNL     1      52.909   5.238  17.344  0.00  0.00    +0.000 A 
ATOM     28  N   UNL     1      53.034   4.121  18.110  0.00  0.00    +0.000 NA
ATOM     29  C   UNL     1      51.923   3.503  18.337  0.00  0.00    +0.000 A 
ATOM     30  N   UNL     1      50.697   3.907  17.873  0.00  0.00    +0.000 N 
ATOM     31  C   UNL     1      50.519   5.039  17.120  0.00  0.00    +0.000 A 
ATOM     32  O   UNL     1      49.402   5.394  16.752  0.00  0.00    +0.000 OA
ATOM     33  C   UNL     1      51.740   5.767  16.822  0.00  0.00    +0.000 A 
ATOM     34  H   UNL     1      49.863   3.381  18.095  0.00  0.00    +0.000 HD
ENDBRANCH  21  24
ENDBRANCH  19  20
ENDBRANCH   4  19
TORSDOF 8
ENDMDL
MODEL 6
REMARK VINA RESULT:    -7.142      3.018      8.498
REMARK INTER + INTRA:         -11.726
REMARK INTER:                  -9.787
REMARK INTRA:                  -1.939
REMARK UNBOUND:                -1.244
REMARK  Name = 
REMARK  8 active torsions:
REMARK  status: ('A' for Active; 'I' for Inactive)
REMARK    1  A    between atoms: C_2  and  C_3
REMARK    2  A    between atoms: C_3  and  N_4
REMARK    3  A    between atoms: C_3  and  C_26
REMARK    4  A    between atoms: N_4  and  C_5
REMARK    5  A    between atoms: C_5  and  C_6
REMARK    6  A    between atoms: C_9  and  C_10
REMARK    7  A    between atoms: C_10  and  N_11
REMARK    8  A    between atoms: C_12  and  C_14
REMARK                            x       y       z     vdW  Elec       q    Type
REMARK                         _______ _______ _______ _____ _____    ______ ____
ROOT
ATOM      1  C   UNL     1      48.723   8.047  16.154  0.00  0.00    +0.000 A 
ATOM      2  C   UNL     1      48.945   6.849  15.459  0.00  0.00    +0.000 A 
ATOM      3  C   UNL     1      48.608   6.742  14.110  0.00  0.00    +0.000 A 
ATOM      4  C   UNL     1      48.037   7.829  13.435  0.00  0.00    +0.000 A 
ATOM      5  C   UNL     1      47.778   9.011  14.141  0.00  0.00    +0.000 A 
ATOM      6  C   UNL     1      48.125   9.122  15.485  0.00  0.00    +0.000 A 
ENDROOT
BRANCH   1   7
ATOM      7  C   UNL     1      49.073   8.171  17.614  0.00  0.00    +0.000 C 
BRANCH   7   8
ATOM      8  N   UNL     1      48.022   7.612  18.474  0.00  0.00    +0.000 NA
ATOM      9  H   UNL     1      47.704   8.342  19.107  0.00  0.00    +0.000 HD
BRANCH   8  10
ATOM     10  C   UNL     1      48.495   6.471  19.286  0.00  0.00    +0.000 C 
BRANCH  10  11
ATOM     11  C   UNL     1      48.460   5.156  18.493  0.00  0.00    +0.000 A 
ATOM     12  C   UNL     1      47.255   4.709  17.931  0.00  0.00    +0.000 A 
ATOM     13  C   UNL     1      47.211   3.526  17.185  0.00  0.00    +0.000 A 
ATOM     14  C   UNL     1      48.371   2.780  16.978  0.00  0.00    +0.000 A 
ATOM     15  C   UNL     1      49.578   3.212  17.514  0.00  0.00    +0.000 A 
ATOM     16  C   UNL     1      49.623   4.388  18.265  0.00  0.00    +0.000 A 
ENDBRANCH  10  11
BRANCH  10  18
ATOM     17  N   UNL     1      51.036   6.896  20.332  0.00  0.00    +0.000 NA
ATOM     18  C   UNL     1      49.884   6.704  19.858  0.00  0.00    +0.000 C 
ENDBRANCH  10  18
ENDBRANCH   8  10
ENDBRANCH   7   8
ENDBRANCH   1   7
BRANCH   4  19
ATOM     19  C   UNL     1      47.649   7.719  11.987  0.00  0.00    +0.000 C 
BRANCH  19  20
ATOM     20  N   UNL     1      46.943   6.488  11.746  0.00  0.00    +0.000 N 
ATOM     21  C   UNL     1      45.582   6.415  11.880  0.00  0.00    +0.000 C 
ATOM     22  O   UNL     1      44.903   7.396  12.170  0.00  0.00    +0.000 OA
ATOM     23  H   UNL     1      47.493   5.635  11.735  0.00  0.00    +0.000 HD
BRANCH  21  24
ATOM     24  C   UNL     1      44.968   5.114  11.591  0.00  0.00    +0.000 A 
ATOM     25  C   UNL     1      44.260   4.456  12.586  0.00  0.00    +0.000 A 
ATOM     26  S   UNL     1      43.568   2.984  12.074  0.00  0.00    +0.000 S 
ATOM     27  C   UNL     1      44.233   3.150  10.517  0.00  0.00    +0.000 A 
ATOM     28  N   UNL     1      44.039   2.195   9.569  0.00  0.00    +0.000 NA
ATOM     29  C   UNL     1      44.623   2.435   8.442  0.00  0.00    +0.000 A 
ATOM     30  N   UNL     1      45.377   3.549   8.177  0.00  0.00    +0.000 N 
ATOM     31  C   UNL     1      45.579   4.551   9.092  0.00  0.00    +0.000 A 
ATOM     32  O   UNL     1      46.229   5.554   8.810  0.00  0.00    +0.000 OA
ATOM     33  C   UNL     1      44.955   4.325  10.383  0.00  0.00    +0.000 A 
ATOM     34  H   UNL     1      45.801   3.681   7.269  0.00  0.00    +0.000 HD
ENDBRANCH  21  24
ENDBRANCH  19  20
ENDBRANCH   4  19
TORSDOF 8
ENDMDL
MODEL 7
REMARK VINA RESULT:    -7.113      3.343      8.097
REMARK INTER + INTRA:         -11.684
REMARK INTER:                  -9.859
REMARK INTRA:                  -1.824
REMARK UNBOUND:                -1.244
REMARK  Name = 
REMARK  8 active torsions:
REMARK  status: ('A' for Active; 'I' for Inactive)
REMARK    1  A    between atoms: C_2  and  C_3
REMARK    2  A    between atoms: C_3  and  N_4
REMARK    3  A    between atoms: C_3  and  C_26
REMARK    4  A    between atoms: N_4  and  C_5
REMARK    5  A    between atoms: C_5  and  C_6
REMARK    6  A    between atoms: C_9  and  C_10
REMARK    7  A    between atoms: C_10  and  N_11
REMARK    8  A    between atoms: C_12  and  C_14
REMARK                            x       y       z     vdW  Elec       q    Type
REMARK                         _______ _______ _______ _____ _____    ______ ____
ROOT
ATOM      1  C   UNL     1      48.701   7.804  16.240  0.00  0.00    +0.000 A 
ATOM      2  C   UNL     1      48.930   6.691  15.417  0.00  0.00    +0.000 A 
ATOM      3  C   UNL     1      48.827   6.804  14.031  0.00  0.00    +0.000 A 
ATOM      4  C   UNL     1      48.489   8.030  13.444  0.00  0.00    +0.000 A 
ATOM      5  C   UNL     1      48.220   9.131  14.268  0.00  0.00    +0.000 A 
ATOM      6  C   UNL     1      48.333   9.021  15.652  0.00  0.00    +0.000 A 
ENDROOT
BRANCH   1   7
ATOM      7  C   UNL     1      48.798   7.692  17.739  0.00  0.00    +0.000 C 
BRANCH   7   8
ATOM      8  N   UNL     1      47.633   7.003  18.308  0.00  0.00    +0.000 NA
ATOM      9  H   UNL     1      47.116   7.667  18.880  0.00  0.00    +0.000 HD
BRANCH   8  10
ATOM     10  C   UNL     1      48.008   5.855  19.160  0.00  0.00    +0.000 C 
BRANCH  10  11
ATOM     11  C   UNL     1      48.366   4.619  18.321  0.00  0.00    +0.000 A 
ATOM     12  C   UNL     1      47.387   4.002  17.528  0.00  0.00    +0.000 A 
ATOM     13  C   UNL     1      47.703   2.891  16.739  0.00  0.00    +0.000 A 
ATOM     14  C   UNL     1      49.003   2.387  16.720  0.00  0.00    +0.000 A 
ATOM     15  C   UNL     1      49.992   2.990  17.488  0.00  0.00    +0.000 A 
ATOM     16  C   UNL     1      49.678   4.095  18.281  0.00  0.00    +0.000 A 
ENDBRANCH  10  11
BRANCH  10  18
ATOM     17  N   UNL     1      50.083   6.466  20.908  0.00  0.00    +0.000 NA
ATOM     18  C   UNL     1      49.141   6.189  20.116  0.00  0.00    +0.000 C 
ENDBRANCH  10  18
ENDBRANCH   8  10
ENDBRANCH   7   8
ENDBRANCH   1   7
BRANCH   4  19
ATOM     19  C   UNL     1      48.353   8.159  11.953  0.00  0.00    +0.000 C 
BRANCH  19  20
ATOM     20  N   UNL     1      47.641   7.031  11.411  0.00  0.00    +0.000 N 
ATOM     21  C   UNL     1      46.272   7.008  11.381  0.00  0.00    +0.000 C 
ATOM     22  O   UNL     1      45.595   7.954  11.774  0.00  0.00    +0.000 OA
ATOM     23  H   UNL     1      48.161   6.167  11.301  0.00  0.00    +0.000 HD
BRANCH  21  24
ATOM     24  C   UNL     1      45.654   5.816  10.789  0.00  0.00    +0.000 A 
ATOM     25  C   UNL     1      45.809   5.567   9.433  0.00  0.00    +0.000 A 
ATOM     26  S   UNL     1      45.074   4.118   8.916  0.00  0.00    +0.000 S 
ATOM     27  C   UNL     1      44.480   3.797  10.476  0.00  0.00    +0.000 A 
ATOM     28  N   UNL     1      43.725   2.694  10.724  0.00  0.00    +0.000 NA
ATOM     29  C   UNL     1      43.317   2.589  11.945  0.00  0.00    +0.000 A 
ATOM     30  N   UNL     1      43.604   3.485  12.943  0.00  0.00    +0.000 N 
ATOM     31  C   UNL     1      44.382   4.598  12.747  0.00  0.00    +0.000 A 
ATOM     32  O   UNL     1      44.652   5.361  13.671  0.00  0.00    +0.000 OA
ATOM     33  C   UNL     1      44.856   4.772  11.386  0.00  0.00    +0.000 A 
ATOM     34  H   UNL     1      43.259   3.339  13.882  0.00  0.00    +0.000 HD
ENDBRANCH  21  24
ENDBRANCH  19  20
ENDBRANCH   4  19
TORSDOF 8
ENDMDL
MODEL 8
REMARK VINA RESULT:    -7.064      4.616      6.516
REMARK INTER + INTRA:         -11.612
REMARK INTER:                 -10.272
REMARK INTRA:                  -1.340
REMARK UNBOUND:                -1.244
REMARK  Name = 
REMARK  8 active torsions:
REMARK  status: ('A' for Active; 'I' for Inactive)
REMARK    1  A    between atoms: C_2  and  C_3
REMARK    2  A    between atoms: C_3  and  N_4
REMARK    3  A    between atoms: C_3  and  C_26
REMARK    4  A    between atoms: N_4  and  C_5
REMARK    5  A    between atoms: C_5  and  C_6
REMARK    6  A    between atoms: C_9  and  C_10
REMARK    7  A    between atoms: C_10  and  N_11
REMARK    8  A    between atoms: C_12  and  C_14
REMARK                            x       y       z     vdW  Elec       q    Type
REMARK                         _______ _______ _______ _____ _____    ______ ____
ROOT
ATOM      1  C   UNL     1      45.156   6.799  11.926  0.00  0.00    +0.000 A 
ATOM      2  C   UNL     1      45.112   8.062  12.534  0.00  0.00    +0.000 A 
ATOM      3  C   UNL     1      46.286   8.784  12.748  0.00  0.00    +0.000 A 
ATOM      4  C   UNL     1      47.524   8.252  12.365  0.00  0.00    +0.000 A 
ATOM      5  C   UNL     1      47.571   6.973  11.796  0.00  0.00    +0.000 A 
ATOM      6  C   UNL     1      46.397   6.257  11.571  0.00  0.00    +0.000 A 
ENDROOT
BRANCH   1   7
ATOM      7  C   UNL     1      43.896   6.004  11.699  0.00  0.00    +0.000 C 
BRANCH   7   8
ATOM      8  N   UNL     1      43.785   5.552  10.306  0.00  0.00    +0.000 NA
ATOM      9  H   UNL     1      42.947   5.964   9.902  0.00  0.00    +0.000 HD
BRANCH   8  10
ATOM     10  C   UNL     1      43.679   4.082  10.190  0.00  0.00    +0.000 C 
BRANCH  10  11
ATOM     11  C   UNL     1      44.750   3.508   9.251  0.00  0.00    +0.000 A 
ATOM     12  C   UNL     1      44.991   2.127   9.223  0.00  0.00    +0.000 A 
ATOM     13  C   UNL     1      45.945   1.585   8.355  0.00  0.00    +0.000 A 
ATOM     14  C   UNL     1      46.665   2.413   7.494  0.00  0.00    +0.000 A 
ATOM     15  C   UNL     1      46.434   3.784   7.496  0.00  0.00    +0.000 A 
ATOM     16  C   UNL     1      45.487   4.327   8.365  0.00  0.00    +0.000 A 
ENDBRANCH  10  11
BRANCH  10  18
ATOM     17  N   UNL     1      43.784   2.813  12.661  0.00  0.00    +0.000 NA
ATOM     18  C   UNL     1      43.736   3.389  11.541  0.00  0.00    +0.000 C 
ENDBRANCH  10  18
ENDBRANCH   8  10
ENDBRANCH   7   8
ENDBRANCH   1   7
BRANCH   4  19
ATOM     19  C   UNL     1      48.798   9.011  12.611  0.00  0.00    +0.000 C 
BRANCH  19  20
ATOM     20  N   UNL     1      49.713   8.831  11.515  0.00  0.00    +0.000 N 
ATOM     21  C   UNL     1      51.018   8.477  11.735  0.00  0.00    +0.000 C 
ATOM     22  O   UNL     1      51.454   8.262  12.862  0.00  0.00    +0.000 OA
ATOM     23  H   UNL     1      49.442   9.222  10.618  0.00  0.00    +0.000 HD
BRANCH  21  24
ATOM     24  C   UNL     1      51.855   8.303  10.542  0.00  0.00    +0.000 A 
ATOM     25  C   UNL     1      52.309   7.037  10.205  0.00  0.00    +0.000 A 
ATOM     26  S   UNL     1      53.225   6.999   8.766  0.00  0.00    +0.000 S 
ATOM     27  C   UNL     1      53.088   8.683   8.571  0.00  0.00    +0.000 A 
ATOM     28  N   UNL     1      53.682   9.316   7.524  0.00  0.00    +0.000 NA
ATOM     29  C   UNL     1      53.522  10.597   7.513  0.00  0.00    +0.000 A 
ATOM     30  N   UNL     1      52.812  11.302   8.453  0.00  0.00    +0.000 N 
ATOM     31  C   UNL     1      52.174  10.705   9.510  0.00  0.00    +0.000 A 
ATOM     32  O   UNL     1      51.515  11.361  10.313  0.00  0.00    +0.000 OA
ATOM     33  C   UNL     1      52.335   9.263   9.578  0.00  0.00    +0.000 A 
ATOM     34  H   UNL     1      52.717  12.305   8.381  0.00  0.00    +0.000 HD
ENDBRANCH  21  24
ENDBRANCH  19  20
ENDBRANCH   4  19
TORSDOF 8
ENDMDL
