MODEL 1
REMARK VINA RESULT:    -7.364      0.000      0.000
REMARK INTER + INTRA:          -8.887
REMARK INTER:                  -8.871
REMARK INTRA:                  -0.016
REMARK UNBOUND:                -0.016
REMARK  Name = 
REMARK  4 active torsions:
REMARK  status: ('A' for Active; 'I' for Inactive)
REMARK    1  A    between atoms: C_2  and  C_5
REMARK    2  A    between atoms: N_3  and  O_4
REMARK    3  A    between atoms: C_8  and  C_9
REMARK    4  A    between atoms: C_9  and  N_10
REMARK                            x       y       z     vdW  Elec       q    Type
REMARK                         _______ _______ _______ _____ _____    ______ ____
ROOT
ATOM      1  C   UNL     1      46.164   2.866   7.697  0.00  0.00    +0.000 A 
ATOM      2  C   UNL     1      45.632   1.816   8.451  0.00  0.00    +0.000 A 
ATOM      3  C   UNL     1      44.796   2.084   9.531  0.00  0.00    +0.000 A 
ATOM      4  C   UNL     1      44.475   3.408   9.873  0.00  0.00    +0.000 A 
ATOM      5  C   UNL     1      45.015   4.459   9.111  0.00  0.00    +0.000 A 
ATOM      6  C   UNL     1      45.863   4.189   8.030  0.00  0.00    +0.000 A 
ENDROOT
BRANCH   1   8
ATOM      7  N   UNL     1      47.039   3.389   5.447  0.00  0.00    +0.000 N 
ATOM      8  C   UNL     1      47.062   2.558   6.545  0.00  0.00    +0.000 C 
ATOM      9  N   UNL     1      47.838   1.515   6.610  0.00  0.00    +0.000 NA
ATOM     10  H   UNL     1      47.835   3.180   4.850  0.00  0.00    +0.000 HD
ATOM     11  H   UNL     1      46.966   4.377   5.663  0.00  0.00    +0.000 HD
BRANCH   9  12
ATOM     12  O   UNL     1      48.598   1.386   5.434  0.00  0.00    +0.000 OA
ATOM     13  H   UNL     1      48.227   2.093   4.875  0.00  0.00    +0.000 HD
ENDBRANCH   9  12
ENDBRANCH   1   8
BRANCH   4  14
ATOM     14  C   UNL     1      43.537   3.686  11.028  0.00  0.00    +0.000 C 
BRANCH  14  15
ATOM     15  N   UNL     1      44.169   4.351  12.190  0.00  0.00    +0.000 NA
ATOM     16  C   UNL     1      45.453   3.703  12.522  0.00  0.00    +0.000 C 
ATOM     17  C   UNL     1      46.299   4.484  13.531  0.00  0.00    +0.000 C 
ATOM     18  C   UNL     1      46.505   5.920  13.074  0.00  0.00    +0.000 C 
ATOM     19  C   UNL     1      45.145   6.573  12.884  0.00  0.00    +0.000 C 
ATOM     20  C   UNL     1      44.305   5.786  11.879  0.00  0.00    +0.000 C 
ENDBRANCH  14  15
ENDBRANCH   4  14
TORSDOF 4
ENDMDL
MODEL 2
REMARK VINA RESULT:    -6.477      3.370      6.330
REMARK INTER + INTRA:          -7.819
REMARK INTER:                  -8.030
REMARK INTRA:                   0.211
REMARK UNBOUND:                -0.016
REMARK  Name = 
REMARK  4 active torsions:
REMARK  status: ('A' for Active; 'I' for Inactive)
REMARK    1  A    between atoms: C_2  and  C_5
REMARK    2  A    between atoms: N_3  and  O_4
REMARK    3  A    between atoms: C_8  and  C_9
REMARK    4  A    between atoms: C_9  and  N_10
REMARK                            x       y       z     vdW  Elec       q    Type
REMARK                         _______ _______ _______ _____ _____    ______ ____
ROOT
ATOM      1  C   UNL     1      46.382   4.464  13.291  0.00  0.00    +0.000 A 
ATOM      2  C   UNL     1      46.259   5.590  12.471  0.00  0.00    +0.000 A 
ATOM      3  C   UNL     1      45.516   5.521  11.295  0.00  0.00    +0.000 A 
ATOM      4  C   UNL     1      44.882   4.325  10.922  0.00  0.00    +0.000 A 
ATOM      5  C   UNL     1      45.011   3.197  11.752  0.00  0.00    +0.000 A 
ATOM      6  C   UNL     1      45.765   3.264  12.929  0.00  0.00    +0.000 A 
ENDROOT
BRANCH   1   8
ATOM      7  N   UNL     1      47.593   5.798  14.979  0.00  0.00    +0.000 N 
ATOM      8  C   UNL     1      47.185   4.557  14.546  0.00  0.00    +0.000 C 
ATOM      9  N   UNL     1      47.476   3.465  15.193  0.00  0.00    +0.000 NA
ATOM     10  H   UNL     1      47.939   5.725  15.933  0.00  0.00    +0.000 HD
ATOM     11  H   UNL     1      46.905   6.534  14.873  0.00  0.00    +0.000 HD
BRANCH   9  12
ATOM     12  O   UNL     1      48.241   3.753  16.337  0.00  0.00    +0.000 OA
ATOM     13  H   UNL     1      47.580   3.666  17.048  0.00  0.00    +0.000 HD
ENDBRANCH   9  12
ENDBRANCH   1   8
BRANCH   4  14
ATOM     14  C   UNL     1      44.048   4.271   9.660  0.00  0.00    +0.000 C 
BRANCH  14  15
ATOM     15  N   UNL     1      44.651   3.492   8.555  0.00  0.00    +0.000 NA
ATOM     16  C   UNL     1      45.791   4.223   7.968  0.00  0.00    +0.000 C 
ATOM     17  C   UNL     1      46.636   3.383   7.006  0.00  0.00    +0.000 C 
ATOM     18  C   UNL     1      47.087   2.089   7.663  0.00  0.00    +0.000 C 
ATOM     19  C   UNL     1      45.859   1.319   8.122  0.00  0.00    +0.000 C 
ATOM     20  C   UNL     1      45.018   2.164   9.078  0.00  0.00    +0.000 C 
ENDBRANCH  14  15
ENDBRANCH   4  14
TORSDOF 4
ENDMDL
MODEL 3
REMARK VINA RESULT:    -5.783      3.954      5.985
REMARK INTER + INTRA:          -6.982
REMARK INTER:                  -6.647
REMARK INTRA:                  -0.335
REMARK UNBOUND:                -0.016
REMARK  Name = 
REMARK  4 active torsions:
REMARK  status: ('A' for Active; 'I' for Inactive)
REMARK    1  A    between atoms: C_2  and  C_5
REMARK    2  A    between atoms: N_3  and  O_4
REMARK    3  A    between atoms: C_8  and  C_9
REMARK    4  A    between atoms: C_9  and  N_10
REMARK                            x       y       z     vdW  Elec       q    Type
REMARK                         _______ _______ _______ _____ _____    ______ ____
ROOT
ATOM      1  C   UNL     1      45.271   4.344  11.942  0.00  0.00    +0.000 A 
ATOM      2  C   UNL     1      45.425   5.416  11.057  0.00  0.00    +0.000 A 
ATOM      3  C   UNL     1      46.183   6.524  11.426  0.00  0.00    +0.000 A 
ATOM      4  C   UNL     1      46.802   6.577  12.686  0.00  0.00    +0.000 A 
ATOM      5  C   UNL     1      46.642   5.495  13.570  0.00  0.00    +0.000 A 
ATOM      6  C   UNL     1      45.873   4.385  13.202  0.00  0.00    +0.000 A 
ENDROOT
BRANCH   1   8
ATOM      7  N   UNL     1      44.724   2.561  10.323  0.00  0.00    +0.000 N 
ATOM      8  C   UNL     1      44.452   3.166  11.529  0.00  0.00    +0.000 C 
ATOM      9  N   UNL     1      43.506   2.746  12.320  0.00  0.00    +0.000 NA
ATOM     10  H   UNL     1      44.240   1.669  10.277  0.00  0.00    +0.000 HD
ATOM     11  H   UNL     1      45.709   2.479  10.101  0.00  0.00    +0.000 HD
BRANCH   9  12
ATOM     12  O   UNL     1      42.844   1.640  11.759  0.00  0.00    +0.000 OA
ATOM     13  H   UNL     1      42.792   1.892  10.819  0.00  0.00    +0.000 HD
ENDBRANCH   9  12
ENDBRANCH   1   8
BRANCH   4  14
ATOM     14  C   UNL     1      47.652   7.771  13.062  0.00  0.00    +0.000 C 
BRANCH  14  15
ATOM     15  N   UNL     1      48.521   8.277  11.976  0.00  0.00    +0.000 NA
ATOM     16  C   UNL     1      48.582   9.751  12.005  0.00  0.00    +0.000 C 
ATOM     17  C   UNL     1      49.661  10.345  11.094  0.00  0.00    +0.000 C 
ATOM     18  C   UNL     1      51.019   9.727  11.383  0.00  0.00    +0.000 C 
ATOM     19  C   UNL     1      50.922   8.221  11.200  0.00  0.00    +0.000 C 
ATOM     20  C   UNL     1      49.841   7.636  12.109  0.00  0.00    +0.000 C 
ENDBRANCH  14  15
ENDBRANCH   4  14
TORSDOF 4
ENDMDL
MODEL 4
REMARK VINA RESULT:    -5.586      5.466      8.549
REMARK INTER + INTRA:          -6.745
REMARK INTER:                  -6.454
REMARK INTRA:                  -0.291
REMARK UNBOUND:                -0.016
REMARK  Name = 
REMARK  4 active torsions:
REMARK  status: ('A' for Active; 'I' for Inactive)
REMARK    1  A    between atoms: C_2  and  C_5
REMARK    2  A    between atoms: N_3  and  O_4
REMARK    3  A    between atoms: C_8  and  C_9
REMARK    4  A    between atoms: C_9  and  N_10
REMARK                            x       y       z     vdW  Elec       q    Type
REMARK                         _______ _______ _______ _____ _____    ______ ____
ROOT
ATOM      1  C   UNL     1      48.516   4.515  17.407  0.00  0.00    +0.000 A 
ATOM      2  C   UNL     1      47.593   3.591  16.907  0.00  0.00    +0.000 A 
ATOM      3  C   UNL     1      46.983   3.810  15.675  0.00  0.00    +0.000 A 
ATOM      4  C   UNL     1      47.288   4.956  14.922  0.00  0.00    +0.000 A 
ATOM      5  C   UNL     1      48.216   5.880  15.433  0.00  0.00    +0.000 A 
ATOM      6  C   UNL     1      48.823   5.664  16.675  0.00  0.00    +0.000 A 
ENDROOT
BRANCH   1   8
ATOM      7  N   UNL     1      48.506   3.460  19.640  0.00  0.00    +0.000 N 
ATOM      8  C   UNL     1      49.157   4.264  18.732  0.00  0.00    +0.000 C 
ATOM      9  N   UNL     1      50.311   4.810  18.990  0.00  0.00    +0.000 NA
ATOM     10  H   UNL     1      49.146   3.215  20.392  0.00  0.00    +0.000 HD
ATOM     11  H   UNL     1      48.051   2.648  19.240  0.00  0.00    +0.000 HD
BRANCH   9  12
ATOM     12  O   UNL     1      50.747   4.467  20.281  0.00  0.00    +0.000 OA
ATOM     13  H   UNL     1      51.183   3.608  20.125  0.00  0.00    +0.000 HD
ENDBRANCH   9  12
ENDBRANCH   1   8
BRANCH   4  14
ATOM     14  C   UNL     1      46.644   5.166  13.568  0.00  0.00    +0.000 C 
BRANCH  14  15
ATOM     15  N   UNL     1      45.266   4.639  13.452  0.00  0.00    +0.000 NA
ATOM     16  C   UNL     1      44.328   5.718  13.086  0.00  0.00    +0.000 C 
ATOM     17  C   UNL     1      42.937   5.220  12.685  0.00  0.00    +0.000 C 
ATOM     18  C   UNL     1      43.028   4.169  11.589  0.00  0.00    +0.000 C 
ATOM     19  C   UNL     1      43.895   3.022  12.082  0.00  0.00    +0.000 C 
ATOM     20  C   UNL     1      45.280   3.527  12.485  0.00  0.00    +0.000 C 
ENDBRANCH  14  15
ENDBRANCH   4  14
TORSDOF 4
ENDMDL
MODEL 5
REMARK VINA RESULT:    -5.495      1.680      2.151
REMARK INTER + INTRA:          -6.636
REMARK INTER:                  -6.767
REMARK INTRA:                   0.131
REMARK UNBOUND:                -0.016
REMARK  Name = 
REMARK  4 active torsions:
REMARK  status: ('A' for Active; 'I' for Inactive)
REMARK    1  A    between atoms: C_2  and  C_5
REMARK    2  A    between atoms: N_3  and  O_4
REMARK    3  A    between atoms: C_8  and  C_9
REMARK    4  A    between atoms: C_9  and  N_10
REMARK                            x       y       z     vdW  Elec       q    Type
REMARK                         _______ _______ _______ _____ _____    ______ ____
ROOT
ATOM      1  C   UNL     1      46.607   2.243   6.866  0.00  0.00    +0.000 A 
ATOM      2  C   UNL     1      46.423   1.146   7.714  0.00  0.00    +0.000 A 
ATOM      3  C   UNL     1      45.573   1.246   8.812  0.00  0.00    +0.000 A 
ATOM      4  C   UNL     1      44.891   2.445   9.078  0.00  0.00    +0.000 A 
ATOM      5  C   UNL     1      45.082   3.543   8.221  0.00  0.00    +0.000 A 
ATOM      6  C   UNL     1      45.943   3.445   7.122  0.00  0.00    +0.000 A 
ENDROOT
BRANCH   1   8
ATOM      7  N   UNL     1      48.789   2.655   5.785  0.00  0.00    +0.000 N 
ATOM      8  C   UNL     1      47.525   2.116   5.696  0.00  0.00    +0.000 C 
ATOM      9  N   UNL     1      47.106   1.501   4.627  0.00  0.00    +0.000 NA
ATOM     10  H   UNL     1      49.356   2.314   5.013  0.00  0.00    +0.000 HD
ATOM     11  H   UNL     1      49.242   2.531   6.682  0.00  0.00    +0.000 HD
BRANCH   9  12
ATOM     12  O   UNL     1      48.103   1.490   3.636  0.00  0.00    +0.000 OA
ATOM     13  H   UNL     1      48.574   2.325   3.814  0.00  0.00    +0.000 HD
ENDBRANCH   9  12
ENDBRANCH   1   8
BRANCH   4  14
ATOM     14  C   UNL     1      43.942   2.531  10.255  0.00  0.00    +0.000 C 
BRANCH  14  15
ATOM     15  N   UNL     1      44.124   3.729  11.106  0.00  0.00    +0.000 NA
ATOM     16  C   UNL     1      43.483   4.906  10.487  0.00  0.00    +0.000 C 
ATOM     17  C   UNL     1      43.388   6.119  11.416  0.00  0.00    +0.000 C 
ATOM     18  C   UNL     1      42.719   5.750  12.730  0.00  0.00    +0.000 C 
ATOM     19  C   UNL     1      43.507   4.626  13.383  0.00  0.00    +0.000 C 
ATOM     20  C   UNL     1      43.601   3.420  12.449  0.00  0.00    +0.000 C 
ENDBRANCH  14  15
ENDBRANCH   4  14
TORSDOF 4
ENDMDL
MODEL 6
REMARK VINA RESULT:    -5.462      3.625      5.772
REMARK INTER + INTRA:          -6.595
REMARK INTER:                  -6.525
REMARK INTRA:                  -0.070
REMARK UNBOUND:                -0.016
REMARK  Name = 
REMARK  4 active torsions:
REMARK  status: ('A' for Active; 'I' for Inactive)
REMARK    1  A    between atoms: C_2  and  C_5
REMARK    2  A    between atoms: N_3  and  O_4
REMARK    3  A    between atoms: C_8  and  C_9
REMARK    4  A    between atoms: C_9  and  N_10
REMARK                            x       y       z     vdW  Elec       q    Type
REMARK                         _______ _______ _______ _____ _____    ______ ____
ROOT
ATOM      1  C   UNL     1      45.394   5.200  11.787  0.00  0.00    +0.000 A 
ATOM      2  C   UNL     1      45.971   6.436  12.094  0.00  0.00    +0.000 A 
ATOM      3  C   UNL     1      46.849   6.550  13.168  0.00  0.00    +0.000 A 
ATOM      4  C   UNL     1      47.166   5.428  13.952  0.00  0.00    +0.000 A 
ATOM      5  C   UNL     1      46.581   4.189  13.637  0.00  0.00    +0.000 A 
ATOM      6  C   UNL     1      45.691   4.077  12.562  0.00  0.00    +0.000 A 
ENDROOT
BRANCH   1   8
ATOM      7  N   UNL     1      43.238   5.744  10.711  0.00  0.00    +0.000 N 
ATOM      8  C   UNL     1      44.452   5.099  10.633  0.00  0.00    +0.000 C 
ATOM      9  N   UNL     1      44.804   4.406   9.588  0.00  0.00    +0.000 NA
ATOM     10  H   UNL     1      42.806   5.761   9.791  0.00  0.00    +0.000 HD
ATOM     11  H   UNL     1      43.270   6.661  11.141  0.00  0.00    +0.000 HD
BRANCH   9  12
ATOM     12  O   UNL     1      43.789   4.421   8.615  0.00  0.00    +0.000 OA
ATOM     13  H   UNL     1      44.256   4.789   7.842  0.00  0.00    +0.000 HD
ENDBRANCH   9  12
ENDBRANCH   1   8
BRANCH   4  14
ATOM     14  C   UNL     1      48.149   5.557  15.095  0.00  0.00    +0.000 C 
BRANCH  14  15
ATOM     15  N   UNL     1      47.692   4.960  16.371  0.00  0.00    +0.000 NA
ATOM     16  C   UNL     1      48.134   3.556  16.473  0.00  0.00    +0.000 C 
ATOM     17  C   UNL     1      47.940   2.945  17.864  0.00  0.00    +0.000 C 
ATOM     18  C   UNL     1      48.586   3.809  18.934  0.00  0.00    +0.000 C 
ATOM     19  C   UNL     1      47.987   5.205  18.865  0.00  0.00    +0.000 C 
ATOM     20  C   UNL     1      48.181   5.806  17.474  0.00  0.00    +0.000 C 
ENDBRANCH  14  15
ENDBRANCH   4  14
TORSDOF 4
ENDMDL
MODEL 7
REMARK VINA RESULT:    -5.431      3.918      5.961
REMARK INTER + INTRA:          -6.558
REMARK INTER:                  -6.222
REMARK INTRA:                  -0.336
REMARK UNBOUND:                -0.016
REMARK  Name = 
REMARK  4 active torsions:
REMARK  status: ('A' for Active; 'I' for Inactive)
REMARK    1  A    between atoms: C_2  and  C_5
REMARK    2  A    between atoms: N_3  and  O_4
REMARK    3  A    between atoms: C_8  and  C_9
REMARK    4  A    between atoms: C_9  and  N_10
REMARK                            x       y       z     vdW  Elec       q    Type
REMARK                         _______ _______ _______ _____ _____    ______ ____
ROOT
ATOM      1  C   UNL     1      45.414   4.637  12.018  0.00  0.00    +0.000 A 
ATOM      2  C   UNL     1      45.804   5.690  11.183  0.00  0.00    +0.000 A 
ATOM      3  C   UNL     1      46.777   6.593  11.604  0.00  0.00    +0.000 A 
ATOM      4  C   UNL     1      47.378   6.455  12.866  0.00  0.00    +0.000 A 
ATOM      5  C   UNL     1      46.980   5.395  13.699  0.00  0.00    +0.000 A 
ATOM      6  C   UNL     1      45.996   4.493  13.280  0.00  0.00    +0.000 A 
ENDROOT
BRANCH   1   8
ATOM      7  N   UNL     1      43.954   3.744  10.237  0.00  0.00    +0.000 N 
ATOM      8  C   UNL     1      44.367   3.682  11.549  0.00  0.00    +0.000 C 
ATOM      9  N   UNL     1      43.875   2.820  12.393  0.00  0.00    +0.000 NA
ATOM     10  H   UNL     1      43.407   2.916  10.017  0.00  0.00    +0.000 HD
ATOM     11  H   UNL     1      44.694   3.909   9.566  0.00  0.00    +0.000 HD
BRANCH   9  12
ATOM     12  O   UNL     1      42.902   2.017  11.773  0.00  0.00    +0.000 OA
ATOM     13  H   UNL     1      42.598   1.460  12.513  0.00  0.00    +0.000 HD
ENDBRANCH   9  12
ENDBRANCH   1   8
BRANCH   4  14
ATOM     14  C   UNL     1      48.460   7.421  13.299  0.00  0.00    +0.000 C 
BRANCH  14  15
ATOM     15  N   UNL     1      48.636   7.534  14.764  0.00  0.00    +0.000 NA
ATOM     16  C   UNL     1      50.040   7.274  15.138  0.00  0.00    +0.000 C 
ATOM     17  C   UNL     1      50.370   7.628  16.591  0.00  0.00    +0.000 C 
ATOM     18  C   UNL     1      49.967   9.060  16.908  0.00  0.00    +0.000 C 
ATOM     19  C   UNL     1      48.480   9.222  16.633  0.00  0.00    +0.000 C 
ATOM     20  C   UNL     1      48.158   8.863  15.184  0.00  0.00    +0.000 C 
ENDBRANCH  14  15
ENDBRANCH   4  14
TORSDOF 4
ENDMDL
MODEL 8
REMARK VINA RESULT:    -5.394      3.687      5.781
REMARK INTER + INTRA:          -6.514
REMARK INTER:                  -6.206
REMARK INTRA:                  -0.308
REMARK UNBOUND:                -0.016
REMARK  Name = 
REMARK  4 active torsions:
REMARK  status: ('A' for Active; 'I' for Inactive)
REMARK    1  A    between atoms: C_2  and  C_5
REMARK    2  A    between atoms: N_3  and  O_4
REMARK    3  A    between atoms: C_8  and  C_9
REMARK    4  A    between atoms: C_9  and  N_10
REMARK                            x       y       z     vdW  Elec       q    Type
REMARK                         _______ _______ _______ _____ _____    ______ ____
ROOT
ATOM      1  C   UNL     1      44.872   4.668  11.754  0.00  0.00    +0.000 A 
ATOM      2  C   UNL     1      44.208   5.758  11.182  0.00  0.00    +0.000 A 
ATOM      3  C   UNL     1      44.522   7.055  11.579  0.00  0.00    +0.000 A 
ATOM      4  C   UNL     1      45.508   7.283  12.554  0.00  0.00    +0.000 A 
ATOM      5  C   UNL     1      46.169   6.181  13.125  0.00  0.00    +0.000 A 
ATOM      6  C   UNL     1      45.847   4.877  12.732  0.00  0.00    +0.000 A 
ENDROOT
BRANCH   1   8
ATOM      7  N   UNL     1      44.048   2.394  12.256  0.00  0.00    +0.000 N 
ATOM      8  C   UNL     1      44.518   3.285  11.317  0.00  0.00    +0.000 C 
ATOM      9  N   UNL     1      44.663   2.962  10.064  0.00  0.00    +0.000 NA
ATOM     10  H   UNL     1      43.658   1.582  11.784  0.00  0.00    +0.000 HD
ATOM     11  H   UNL     1      43.409   2.790  12.935  0.00  0.00    +0.000 HD
BRANCH   9  12
ATOM     12  O   UNL     1      44.288   1.624   9.849  0.00  0.00    +0.000 OA
ATOM     13  H   UNL     1      45.115   1.236   9.507  0.00  0.00    +0.000 HD
ENDBRANCH   9  12
ENDBRANCH   1   8
BRANCH   4  14
ATOM     14  C   UNL     1      45.866   8.698  12.953  0.00  0.00    +0.000 C 
BRANCH  14  15
ATOM     15  N   UNL     1      46.511   9.495  11.885  0.00  0.00    +0.000 NA
ATOM     16  C   UNL     1      45.914  10.843  11.812  0.00  0.00    +0.000 C 
ATOM     17  C   UNL     1      46.693  11.818  10.925  0.00  0.00    +0.000 C 
ATOM     18  C   UNL     1      48.156  11.881  11.337  0.00  0.00    +0.000 C 
ATOM     19  C   UNL     1      48.747  10.483  11.257  0.00  0.00    +0.000 C 
ATOM     20  C   UNL     1      47.963   9.514  12.141  0.00  0.00    +0.000 C 
ENDBRANCH  14  15
ENDBRANCH   4  14
TORSDOF 4
ENDMDL
MODEL 9
REMARK VINA RESULT:    -5.266      6.329      8.834
REMARK INTER + INTRA:          -6.359
REMARK INTER:                  -6.040
REMARK INTRA:                  -0.319
REMARK UNBOUND:                -0.016
REMARK  Name = 
REMARK  4 active torsions:
REMARK  status: ('A' for Active; 'I' for Inactive)
REMARK    1  A    between atoms: C_2  and  C_5
REMARK    2  A    between atoms: N_3  and  O_4
REMARK    3  A    between atoms: C_8  and  C_9
REMARK    4  A    between atoms: C_9  and  N_10
REMARK                            x       y       z     vdW  Elec       q    Type
REMARK                         _______ _______ _______ _____ _____    ______ ____
ROOT
ATOM      1  C   UNL     1      50.693   2.477  17.460  0.00  0.00    +0.000 A 
ATOM      2  C   UNL     1      49.683   1.841  16.730  0.00  0.00    +0.000 A 
ATOM      3  C   UNL     1      48.603   2.573  16.245  0.00  0.00    +0.000 A 
ATOM      4  C   UNL     1      48.517   3.956  16.480  0.00  0.00    +0.000 A 
ATOM      5  C   UNL     1      49.536   4.587  17.215  0.00  0.00    +0.000 A 
ATOM      6  C   UNL     1      50.617   3.849  17.710  0.00  0.00    +0.000 A 
ENDROOT
BRANCH   1   8
ATOM      7  N   UNL     1      51.706   0.305  18.056  0.00  0.00    +0.000 N 
ATOM      8  C   UNL     1      51.841   1.673  17.974  0.00  0.00    +0.000 C 
ATOM      9  N   UNL     1      52.933   2.286  18.330  0.00  0.00    +0.000 NA
ATOM     10  H   UNL     1      52.619  -0.114  18.218  0.00  0.00    +0.000 HD
ATOM     11  H   UNL     1      51.217  -0.122  17.278  0.00  0.00    +0.000 HD
BRANCH   9  12
ATOM     12  O   UNL     1      53.892   1.367  18.792  0.00  0.00    +0.000 OA
ATOM     13  H   UNL     1      54.015   0.794  18.013  0.00  0.00    +0.000 HD
ENDBRANCH   9  12
ENDBRANCH   1   8
BRANCH   4  14
ATOM     14  C   UNL     1      47.357   4.748  15.918  0.00  0.00    +0.000 C 
BRANCH  14  15
ATOM     15  N   UNL     1      47.386   4.927  14.449  0.00  0.00    +0.000 NA
ATOM     16  C   UNL     1      46.035   4.755  13.879  0.00  0.00    +0.000 C 
ATOM     17  C   UNL     1      45.922   5.183  12.413  0.00  0.00    +0.000 C 
ATOM     18  C   UNL     1      46.429   6.603  12.219  0.00  0.00    +0.000 C 
ATOM     19  C   UNL     1      47.871   6.678  12.697  0.00  0.00    +0.000 C 
ATOM     20  C   UNL     1      47.977   6.246  14.159  0.00  0.00    +0.000 C 
ENDBRANCH  14  15
ENDBRANCH   4  14
TORSDOF 4
ENDMDL
