MODEL 1
REMARK VINA RESULT:    -7.321      0.000      0.000
REMARK INTER + INTRA:         -10.427
REMARK INTER:                  -9.461
REMARK INTRA:                  -0.966
REMARK UNBOUND:                -0.966
REMARK  Name = 
REMARK  6 active torsions:
REMARK  status: ('A' for Active; 'I' for Inactive)
REMARK    1  A    between atoms: C_1  and  C_2
REMARK    2  A    between atoms: C_3  and  C_4
REMARK    3  A    between atoms: C_4  and  C_5
REMARK    4  A    between atoms: C_5  and  C_6
REMARK    5  A    between atoms: C_10  and  C_11
REMARK    6  A    between atoms: C_21  and  C_22
REMARK                            x       y       z     vdW  Elec       q    Type
REMARK                         _______ _______ _______ _____ _____    ______ ____
ROOT
ATOM      1  C   UNL     1      45.036   7.055  12.440  0.00  0.00    +0.000 C 
ENDROOT
BRANCH   1   4
ATOM      2  C   UNL     1      47.853   6.109  13.007  0.00  0.00    +0.000 C 
ATOM      3  C   UNL     1      47.584   7.491  12.465  0.00  0.00    +0.000 A 
ATOM      4  C   UNL     1      46.256   7.978  12.340  0.00  0.00    +0.000 A 
ATOM      5  C   UNL     1      46.074   9.359  12.135  0.00  0.00    +0.000 A 
ATOM      6  C   UNL     1      47.152  10.216  11.923  0.00  0.00    +0.000 A 
ATOM      7  C   UNL     1      48.438   9.702  11.863  0.00  0.00    +0.000 A 
ATOM      8  C   UNL     1      48.662   8.341  12.104  0.00  0.00    +0.000 A 
BRANCH   8   9
ATOM      9  C   UNL     1      50.058   7.815  11.912  0.00  0.00    +0.000 C 
ATOM     10  N   UNL     1      50.806   7.661  13.054  0.00  0.00    +0.000 N 
ATOM     11  O   UNL     1      50.557   7.575  10.823  0.00  0.00    +0.000 OA
ATOM     12  H   UNL     1      50.526   8.057  13.940  0.00  0.00    +0.000 HD
ATOM     13  H   UNL     1      51.783   7.440  12.926  0.00  0.00    +0.000 HD
ENDBRANCH   8   9
ENDBRANCH   1   4
BRANCH   1  14
ATOM     14  C   UNL     1      44.501   6.559  11.074  0.00  0.00    +0.000 C 
BRANCH  14  15
ATOM     15  C   UNL     1      44.556   5.070  10.786  0.00  0.00    +0.000 A 
ATOM     16  C   UNL     1      43.793   4.176  11.545  0.00  0.00    +0.000 A 
ATOM     17  C   UNL     1      43.655   2.850  11.142  0.00  0.00    +0.000 A 
ATOM     18  C   UNL     1      44.297   2.394   9.990  0.00  0.00    +0.000 A 
ATOM     19  C   UNL     1      45.120   3.239   9.226  0.00  0.00    +0.000 A 
ATOM     20  C   UNL     1      45.225   4.585   9.640  0.00  0.00    +0.000 A 
BRANCH  19  21
ATOM     21  C   UNL     1      45.854   2.701   8.057  0.00  0.00    +0.000 A 
ATOM     22  C   UNL     1      46.403   1.408   8.061  0.00  0.00    +0.000 A 
ATOM     23  C   UNL     1      47.182   0.990   6.991  0.00  0.00    +0.000 A 
ATOM     24  N   UNL     1      47.440   1.752   5.909  0.00  0.00    +0.000 NA
ATOM     25  C   UNL     1      46.891   2.984   5.901  0.00  0.00    +0.000 A 
ATOM     26  C   UNL     1      46.103   3.489   6.928  0.00  0.00    +0.000 A 
ENDBRANCH  19  21
ENDBRANCH  14  15
ENDBRANCH   1  14
TORSDOF 5
ENDMDL
MODEL 2
REMARK VINA RESULT:    -7.138      1.527      2.376
REMARK INTER + INTRA:         -10.190
REMARK INTER:                  -9.190
REMARK INTRA:                  -1.000
REMARK UNBOUND:                -0.966
REMARK  Name = 
REMARK  6 active torsions:
REMARK  status: ('A' for Active; 'I' for Inactive)
REMARK    1  A    between atoms: C_1  and  C_2
REMARK    2  A    between atoms: C_3  and  C_4
REMARK    3  A    between atoms: C_4  and  C_5
REMARK    4  A    between atoms: C_5  and  C_6
REMARK    5  A    between atoms: C_10  and  C_11
REMARK    6  A    between atoms: C_21  and  C_22
REMARK                            x       y       z     vdW  Elec       q    Type
REMARK                         _______ _______ _______ _____ _____    ______ ____
ROOT
ATOM      1  C   UNL     1      44.937   7.089  12.335  0.00  0.00    +0.000 C 
ENDROOT
BRANCH   1   4
ATOM      2  C   UNL     1      45.258  10.082  12.042  0.00  0.00    +0.000 C 
ATOM      3  C   UNL     1      46.457   9.168  12.117  0.00  0.00    +0.000 A 
ATOM      4  C   UNL     1      46.297   7.757  12.107  0.00  0.00    +0.000 A 
ATOM      5  C   UNL     1      47.435   6.965  11.861  0.00  0.00    +0.000 A 
ATOM      6  C   UNL     1      48.708   7.522  11.764  0.00  0.00    +0.000 A 
ATOM      7  C   UNL     1      48.880   8.884  11.959  0.00  0.00    +0.000 A 
ATOM      8  C   UNL     1      47.768   9.709  12.162  0.00  0.00    +0.000 A 
BRANCH   8   9
ATOM      9  C   UNL     1      48.019  11.157  12.484  0.00  0.00    +0.000 C 
ATOM     10  N   UNL     1      48.184  11.459  13.814  0.00  0.00    +0.000 N 
ATOM     11  O   UNL     1      48.032  12.053  11.652  0.00  0.00    +0.000 OA
ATOM     12  H   UNL     1      47.956  10.804  14.549  0.00  0.00    +0.000 HD
ATOM     13  H   UNL     1      48.218  12.440  14.052  0.00  0.00    +0.000 HD
ENDBRANCH   8   9
ENDBRANCH   1   4
BRANCH   1  14
ATOM     14  C   UNL     1      44.278   6.533  11.049  0.00  0.00    +0.000 C 
BRANCH  14  15
ATOM     15  C   UNL     1      44.401   5.046  10.772  0.00  0.00    +0.000 A 
ATOM     16  C   UNL     1      43.635   4.128  11.500  0.00  0.00    +0.000 A 
ATOM     17  C   UNL     1      43.564   2.796  11.098  0.00  0.00    +0.000 A 
ATOM     18  C   UNL     1      44.275   2.359   9.980  0.00  0.00    +0.000 A 
ATOM     19  C   UNL     1      45.102   3.230   9.251  0.00  0.00    +0.000 A 
ATOM     20  C   UNL     1      45.140   4.581   9.661  0.00  0.00    +0.000 A 
BRANCH  19  21
ATOM     21  C   UNL     1      45.910   2.714   8.121  0.00  0.00    +0.000 A 
ATOM     22  C   UNL     1      46.175   3.497   6.985  0.00  0.00    +0.000 A 
ATOM     23  C   UNL     1      46.836   2.932   5.903  0.00  0.00    +0.000 A 
ATOM     24  N   UNL     1      47.270   1.656   5.872  0.00  0.00    +0.000 NA
ATOM     25  C   UNL     1      47.032   0.917   6.974  0.00  0.00    +0.000 A 
ATOM     26  C   UNL     1      46.375   1.394   8.101  0.00  0.00    +0.000 A 
ENDBRANCH  19  21
ENDBRANCH  14  15
ENDBRANCH   1  14
TORSDOF 5
ENDMDL
MODEL 3
REMARK VINA RESULT:    -7.081      2.217      3.011
REMARK INTER + INTRA:         -10.117
REMARK INTER:                  -9.019
REMARK INTRA:                  -1.098
REMARK UNBOUND:                -0.966
REMARK  Name = 
REMARK  6 active torsions:
REMARK  status: ('A' for Active; 'I' for Inactive)
REMARK    1  A    between atoms: C_1  and  C_2
REMARK    2  A    between atoms: C_3  and  C_4
REMARK    3  A    between atoms: C_4  and  C_5
REMARK    4  A    between atoms: C_5  and  C_6
REMARK    5  A    between atoms: C_10  and  C_11
REMARK    6  A    between atoms: C_21  and  C_22
REMARK                            x       y       z     vdW  Elec       q    Type
REMARK                         _______ _______ _______ _____ _____    ______ ____
ROOT
ATOM      1  C   UNL     1      44.157   6.702  11.433  0.00  0.00    +0.000 C 
ENDROOT
BRANCH   1   4
ATOM      2  C   UNL     1      44.316   4.644  13.644  0.00  0.00    +0.000 C 
ATOM      3  C   UNL     1      45.489   5.535  13.316  0.00  0.00    +0.000 A 
ATOM      4  C   UNL     1      45.359   6.593  12.378  0.00  0.00    +0.000 A 
ATOM      5  C   UNL     1      46.368   7.575  12.344  0.00  0.00    +0.000 A 
ATOM      6  C   UNL     1      47.531   7.456  13.101  0.00  0.00    +0.000 A 
ATOM      7  C   UNL     1      47.735   6.324  13.876  0.00  0.00    +0.000 A 
ATOM      8  C   UNL     1      46.735   5.348  13.969  0.00  0.00    +0.000 A 
BRANCH   8   9
ATOM      9  C   UNL     1      47.053   4.089  14.728  0.00  0.00    +0.000 C 
ATOM     10  N   UNL     1      46.954   4.169  16.096  0.00  0.00    +0.000 N 
ATOM     11  O   UNL     1      47.432   3.050  14.207  0.00  0.00    +0.000 OA
ATOM     12  H   UNL     1      46.871   5.052  16.581  0.00  0.00    +0.000 HD
ATOM     13  H   UNL     1      47.293   3.376  16.619  0.00  0.00    +0.000 HD
ENDBRANCH   8   9
ENDBRANCH   1   4
BRANCH   1  14
ATOM     14  C   UNL     1      44.429   6.188   9.998  0.00  0.00    +0.000 C 
BRANCH  14  15
ATOM     15  C   UNL     1      44.677   4.703   9.808  0.00  0.00    +0.000 A 
ATOM     16  C   UNL     1      43.967   3.767  10.568  0.00  0.00    +0.000 A 
ATOM     17  C   UNL     1      44.013   2.414  10.241  0.00  0.00    +0.000 A 
ATOM     18  C   UNL     1      44.788   1.976   9.166  0.00  0.00    +0.000 A 
ATOM     19  C   UNL     1      45.563   2.870   8.408  0.00  0.00    +0.000 A 
ATOM     20  C   UNL     1      45.481   4.240   8.743  0.00  0.00    +0.000 A 
BRANCH  19  21
ATOM     21  C   UNL     1      46.440   2.361   7.328  0.00  0.00    +0.000 A 
ATOM     22  C   UNL     1      46.861   3.183   6.270  0.00  0.00    +0.000 A 
ATOM     23  C   UNL     1      47.585   2.632   5.221  0.00  0.00    +0.000 A 
ATOM     24  N   UNL     1      47.938   1.333   5.154  0.00  0.00    +0.000 NA
ATOM     25  C   UNL     1      47.551   0.555   6.185  0.00  0.00    +0.000 A 
ATOM     26  C   UNL     1      46.821   1.015   7.273  0.00  0.00    +0.000 A 
ENDBRANCH  19  21
ENDBRANCH  14  15
ENDBRANCH   1  14
TORSDOF 5
ENDMDL
MODEL 4
REMARK VINA RESULT:    -6.997      1.480      2.384
REMARK INTER + INTRA:         -10.009
REMARK INTER:                  -9.046
REMARK INTRA:                  -0.962
REMARK UNBOUND:                -0.966
REMARK  Name = 
REMARK  6 active torsions:
REMARK  status: ('A' for Active; 'I' for Inactive)
REMARK    1  A    between atoms: C_1  and  C_2
REMARK    2  A    between atoms: C_3  and  C_4
REMARK    3  A    between atoms: C_4  and  C_5
REMARK    4  A    between atoms: C_5  and  C_6
REMARK    5  A    between atoms: C_10  and  C_11
REMARK    6  A    between atoms: C_21  and  C_22
REMARK                            x       y       z     vdW  Elec       q    Type
REMARK                         _______ _______ _______ _____ _____    ______ ____
ROOT
ATOM      1  C   UNL     1      44.571   6.629  12.156  0.00  0.00    +0.000 C 
ENDROOT
BRANCH   1   4
ATOM      2  C   UNL     1      47.179   8.157  12.029  0.00  0.00    +0.000 C 
ATOM      3  C   UNL     1      46.978   7.028  13.011  0.00  0.00    +0.000 A 
ATOM      4  C   UNL     1      45.808   6.224  12.965  0.00  0.00    +0.000 A 
ATOM      5  C   UNL     1      45.812   5.010  13.678  0.00  0.00    +0.000 A 
ATOM      6  C   UNL     1      46.867   4.657  14.516  0.00  0.00    +0.000 A 
ATOM      7  C   UNL     1      47.924   5.535  14.700  0.00  0.00    +0.000 A 
ATOM      8  C   UNL     1      47.975   6.731  13.975  0.00  0.00    +0.000 A 
BRANCH   8   9
ATOM      9  C   UNL     1      49.081   7.699  14.298  0.00  0.00    +0.000 C 
ATOM     10  N   UNL     1      50.309   7.415  13.750  0.00  0.00    +0.000 N 
ATOM     11  O   UNL     1      48.956   8.663  15.038  0.00  0.00    +0.000 OA
ATOM     12  H   UNL     1      50.518   6.521  13.327  0.00  0.00    +0.000 HD
ATOM     13  H   UNL     1      51.084   7.978  14.067  0.00  0.00    +0.000 HD
ENDBRANCH   8   9
ENDBRANCH   1   4
BRANCH   1  14
ATOM     14  C   UNL     1      44.634   6.241  10.659  0.00  0.00    +0.000 C 
BRANCH  14  15
ATOM     15  C   UNL     1      44.737   4.768  10.309  0.00  0.00    +0.000 A 
ATOM     16  C   UNL     1      43.959   3.826  10.991  0.00  0.00    +0.000 A 
ATOM     17  C   UNL     1      43.871   2.516  10.524  0.00  0.00    +0.000 A 
ATOM     18  C   UNL     1      44.578   2.125   9.386  0.00  0.00    +0.000 A 
ATOM     19  C   UNL     1      45.417   3.020   8.701  0.00  0.00    +0.000 A 
ATOM     20  C   UNL     1      45.471   4.348   9.177  0.00  0.00    +0.000 A 
BRANCH  19  21
ATOM     21  C   UNL     1      46.218   2.550   7.547  0.00  0.00    +0.000 A 
ATOM     22  C   UNL     1      46.781   1.263   7.514  0.00  0.00    +0.000 A 
ATOM     23  C   UNL     1      47.620   0.908   6.466  0.00  0.00    +0.000 A 
ATOM     24  N   UNL     1      47.927   1.728   5.441  0.00  0.00    +0.000 NA
ATOM     25  C   UNL     1      47.366   2.954   5.467  0.00  0.00    +0.000 A 
ATOM     26  C   UNL     1      46.519   3.398   6.475  0.00  0.00    +0.000 A 
ENDBRANCH  19  21
ENDBRANCH  14  15
ENDBRANCH   1  14
TORSDOF 5
ENDMDL
MODEL 5
REMARK VINA RESULT:    -6.983      2.990      3.882
REMARK INTER + INTRA:          -9.990
REMARK INTER:                  -8.989
REMARK INTRA:                  -1.001
REMARK UNBOUND:                -0.966
REMARK  Name = 
REMARK  6 active torsions:
REMARK  status: ('A' for Active; 'I' for Inactive)
REMARK    1  A    between atoms: C_1  and  C_2
REMARK    2  A    between atoms: C_3  and  C_4
REMARK    3  A    between atoms: C_4  and  C_5
REMARK    4  A    between atoms: C_5  and  C_6
REMARK    5  A    between atoms: C_10  and  C_11
REMARK    6  A    between atoms: C_21  and  C_22
REMARK                            x       y       z     vdW  Elec       q    Type
REMARK                         _______ _______ _______ _____ _____    ______ ____
ROOT
ATOM      1  C   UNL     1      47.712   6.728  12.899  0.00  0.00    +0.000 C 
ENDROOT
BRANCH   1   4
ATOM      2  C   UNL     1      46.817   4.191  14.282  0.00  0.00    +0.000 C 
ATOM      3  C   UNL     1      47.681   5.207  14.989  0.00  0.00    +0.000 A 
ATOM      4  C   UNL     1      47.975   6.458  14.385  0.00  0.00    +0.000 A 
ATOM      5  C   UNL     1      48.507   7.476  15.199  0.00  0.00    +0.000 A 
ATOM      6  C   UNL     1      48.869   7.241  16.523  0.00  0.00    +0.000 A 
ATOM      7  C   UNL     1      48.752   5.965  17.052  0.00  0.00    +0.000 A 
ATOM      8  C   UNL     1      48.186   4.938  16.287  0.00  0.00    +0.000 A 
BRANCH   8   9
ATOM      9  C   UNL     1      48.189   3.550  16.867  0.00  0.00    +0.000 C 
ATOM     10  N   UNL     1      47.219   3.286  17.803  0.00  0.00    +0.000 N 
ATOM     11  O   UNL     1      49.014   2.692  16.591  0.00  0.00    +0.000 OA
ATOM     12  H   UNL     1      46.666   4.017  18.229  0.00  0.00    +0.000 HD
ATOM     13  H   UNL     1      47.294   2.407  18.294  0.00  0.00    +0.000 HD
ENDBRANCH   8   9
ENDBRANCH   1   4
BRANCH   1  14
ATOM     14  C   UNL     1      46.267   7.183  12.581  0.00  0.00    +0.000 C 
BRANCH  14  15
ATOM     15  C   UNL     1      45.345   6.195  11.890  0.00  0.00    +0.000 A 
ATOM     16  C   UNL     1      43.967   6.228  12.133  0.00  0.00    +0.000 A 
ATOM     17  C   UNL     1      43.094   5.491  11.336  0.00  0.00    +0.000 A 
ATOM     18  C   UNL     1      43.587   4.693  10.303  0.00  0.00    +0.000 A 
ATOM     19  C   UNL     1      44.966   4.583  10.056  0.00  0.00    +0.000 A 
ATOM     20  C   UNL     1      45.831   5.358  10.861  0.00  0.00    +0.000 A 
BRANCH  19  21
ATOM     21  C   UNL     1      45.461   3.662   9.006  0.00  0.00    +0.000 A 
ATOM     22  C   UNL     1      45.407   2.267   9.163  0.00  0.00    +0.000 A 
ATOM     23  C   UNL     1      45.988   1.447   8.205  0.00  0.00    +0.000 A 
ATOM     24  N   UNL     1      46.601   1.907   7.097  0.00  0.00    +0.000 NA
ATOM     25  C   UNL     1      46.630   3.246   6.941  0.00  0.00    +0.000 A 
ATOM     26  C   UNL     1      46.080   4.145   7.847  0.00  0.00    +0.000 A 
ENDBRANCH  19  21
ENDBRANCH  14  15
ENDBRANCH   1  14
TORSDOF 5
ENDMDL
MODEL 6
REMARK VINA RESULT:    -6.583      3.558      5.635
REMARK INTER + INTRA:          -9.473
REMARK INTER:                  -8.430
REMARK INTRA:                  -1.043
REMARK UNBOUND:                -0.966
REMARK  Name = 
REMARK  6 active torsions:
REMARK  status: ('A' for Active; 'I' for Inactive)
REMARK    1  A    between atoms: C_1  and  C_2
REMARK    2  A    between atoms: C_3  and  C_4
REMARK    3  A    between atoms: C_4  and  C_5
REMARK    4  A    between atoms: C_5  and  C_6
REMARK    5  A    between atoms: C_10  and  C_11
REMARK    6  A    between atoms: C_21  and  C_22
REMARK                            x       y       z     vdW  Elec       q    Type
REMARK                         _______ _______ _______ _____ _____    ______ ____
ROOT
ATOM      1  C   UNL     1      48.657   7.341  14.112  0.00  0.00    +0.000 C 
ENDROOT
BRANCH   1   4
ATOM      2  C   UNL     1      47.292   4.662  14.443  0.00  0.00    +0.000 C 
ATOM      3  C   UNL     1      48.053   5.301  15.580  0.00  0.00    +0.000 A 
ATOM      4  C   UNL     1      48.564   6.620  15.461  0.00  0.00    +0.000 A 
ATOM      5  C   UNL     1      48.979   7.277  16.636  0.00  0.00    +0.000 A 
ATOM      6  C   UNL     1      49.021   6.622  17.865  0.00  0.00    +0.000 A 
ATOM      7  C   UNL     1      48.695   5.277  17.939  0.00  0.00    +0.000 A 
ATOM      8  C   UNL     1      48.237   4.602  16.801  0.00  0.00    +0.000 A 
BRANCH   8   9
ATOM      9  C   UNL     1      48.009   3.119  16.910  0.00  0.00    +0.000 C 
ATOM     10  N   UNL     1      46.937   2.730  17.676  0.00  0.00    +0.000 N 
ATOM     11  O   UNL     1      48.734   2.274  16.408  0.00  0.00    +0.000 OA
ATOM     12  H   UNL     1      46.451   3.368  18.290  0.00  0.00    +0.000 HD
ATOM     13  H   UNL     1      46.855   1.741  17.866  0.00  0.00    +0.000 HD
ENDBRANCH   8   9
ENDBRANCH   1   4
BRANCH   1  14
ATOM     14  C   UNL     1      47.650   8.504  13.942  0.00  0.00    +0.000 C 
BRANCH  14  15
ATOM     15  C   UNL     1      46.405   8.254  13.111  0.00  0.00    +0.000 A 
ATOM     16  C   UNL     1      45.699   9.328  12.558  0.00  0.00    +0.000 A 
ATOM     17  C   UNL     1      44.704   9.102  11.610  0.00  0.00    +0.000 A 
ATOM     18  C   UNL     1      44.384   7.801  11.221  0.00  0.00    +0.000 A 
ATOM     19  C   UNL     1      45.026   6.687  11.789  0.00  0.00    +0.000 A 
ATOM     20  C   UNL     1      46.048   6.941  12.730  0.00  0.00    +0.000 A 
BRANCH  19  21
ATOM     21  C   UNL     1      44.604   5.317  11.416  0.00  0.00    +0.000 A 
ATOM     22  C   UNL     1      44.908   4.767  10.159  0.00  0.00    +0.000 A 
ATOM     23  C   UNL     1      44.392   3.526   9.811  0.00  0.00    +0.000 A 
ATOM     24  N   UNL     1      43.615   2.783  10.623  0.00  0.00    +0.000 NA
ATOM     25  C   UNL     1      43.347   3.306  11.837  0.00  0.00    +0.000 A 
ATOM     26  C   UNL     1      43.814   4.540  12.271  0.00  0.00    +0.000 A 
ENDBRANCH  19  21
ENDBRANCH  14  15
ENDBRANCH   1  14
TORSDOF 5
ENDMDL
MODEL 7
REMARK VINA RESULT:    -6.403      4.648      7.064
REMARK INTER + INTRA:          -9.240
REMARK INTER:                  -8.186
REMARK INTRA:                  -1.055
REMARK UNBOUND:                -0.966
REMARK  Name = 
REMARK  6 active torsions:
REMARK  status: ('A' for Active; 'I' for Inactive)
REMARK    1  A    between atoms: C_1  and  C_2
REMARK    2  A    between atoms: C_3  and  C_4
REMARK    3  A    between atoms: C_4  and  C_5
REMARK    4  A    between atoms: C_5  and  C_6
REMARK    5  A    between atoms: C_10  and  C_11
REMARK    6  A    between atoms: C_21  and  C_22
REMARK                            x       y       z     vdW  Elec       q    Type
REMARK                         _______ _______ _______ _____ _____    ______ ____
ROOT
ATOM      1  C   UNL     1      48.866   6.732  17.302  0.00  0.00    +0.000 C 
ENDROOT
BRANCH   1   4
ATOM      2  C   UNL     1      48.193   3.783  17.354  0.00  0.00    +0.000 C 
ATOM      3  C   UNL     1      49.622   4.263  17.430  0.00  0.00    +0.000 A 
ATOM      4  C   UNL     1      49.919   5.646  17.552  0.00  0.00    +0.000 A 
ATOM      5  C   UNL     1      51.225   6.011  17.932  0.00  0.00    +0.000 A 
ATOM      6  C   UNL     1      52.242   5.068  18.056  0.00  0.00    +0.000 A 
ATOM      7  C   UNL     1      51.989   3.739  17.755  0.00  0.00    +0.000 A 
ATOM      8  C   UNL     1      50.693   3.332  17.415  0.00  0.00    +0.000 A 
BRANCH   8   9
ATOM      9  C   UNL     1      50.497   1.903  16.986  0.00  0.00    +0.000 C 
ATOM     10  N   UNL     1      51.128   0.952  17.750  0.00  0.00    +0.000 N 
ATOM     11  O   UNL     1      49.866   1.564  15.995  0.00  0.00    +0.000 OA
ATOM     12  H   UNL     1      51.837   1.189  18.430  0.00  0.00    +0.000 HD
ATOM     13  H   UNL     1      51.115   0.008  17.395  0.00  0.00    +0.000 HD
ENDBRANCH   8   9
ENDBRANCH   1   4
BRANCH   1  14
ATOM     14  C   UNL     1      49.346   7.884  16.386  0.00  0.00    +0.000 C 
BRANCH  14  15
ATOM     15  C   UNL     1      49.086   7.764  14.896  0.00  0.00    +0.000 A 
ATOM     16  C   UNL     1      49.988   8.312  13.977  0.00  0.00    +0.000 A 
ATOM     17  C   UNL     1      49.886   8.007  12.622  0.00  0.00    +0.000 A 
ATOM     18  C   UNL     1      48.867   7.171  12.164  0.00  0.00    +0.000 A 
ATOM     19  C   UNL     1      47.904   6.642  13.039  0.00  0.00    +0.000 A 
ATOM     20  C   UNL     1      48.042   6.944  14.412  0.00  0.00    +0.000 A 
BRANCH  19  21
ATOM     21  C   UNL     1      46.786   5.827  12.508  0.00  0.00    +0.000 A 
ATOM     22  C   UNL     1      46.307   4.696  13.191  0.00  0.00    +0.000 A 
ATOM     23  C   UNL     1      45.338   3.898  12.598  0.00  0.00    +0.000 A 
ATOM     24  N   UNL     1      44.796   4.148  11.390  0.00  0.00    +0.000 NA
ATOM     25  C   UNL     1      45.243   5.248  10.751  0.00  0.00    +0.000 A 
ATOM     26  C   UNL     1      46.212   6.103  11.261  0.00  0.00    +0.000 A 
ENDBRANCH  19  21
ENDBRANCH  14  15
ENDBRANCH   1  14
TORSDOF 5
ENDMDL
MODEL 8
REMARK VINA RESULT:    -6.398      3.186      4.256
REMARK INTER + INTRA:          -9.234
REMARK INTER:                  -8.255
REMARK INTRA:                  -0.979
REMARK UNBOUND:                -0.966
REMARK  Name = 
REMARK  6 active torsions:
REMARK  status: ('A' for Active; 'I' for Inactive)
REMARK    1  A    between atoms: C_1  and  C_2
REMARK    2  A    between atoms: C_3  and  C_4
REMARK    3  A    between atoms: C_4  and  C_5
REMARK    4  A    between atoms: C_5  and  C_6
REMARK    5  A    between atoms: C_10  and  C_11
REMARK    6  A    between atoms: C_21  and  C_22
REMARK                            x       y       z     vdW  Elec       q    Type
REMARK                         _______ _______ _______ _____ _____    ______ ____
ROOT
ATOM      1  C   UNL     1      47.592   6.178  13.459  0.00  0.00    +0.000 C 
ENDROOT
BRANCH   1   4
ATOM      2  C   UNL     1      49.452   7.370  15.526  0.00  0.00    +0.000 C 
ATOM      3  C   UNL     1      48.554   6.202  15.858  0.00  0.00    +0.000 A 
ATOM      4  C   UNL     1      47.795   5.558  14.846  0.00  0.00    +0.000 A 
ATOM      5  C   UNL     1      47.232   4.301  15.141  0.00  0.00    +0.000 A 
ATOM      6  C   UNL     1      47.293   3.754  16.420  0.00  0.00    +0.000 A 
ATOM      7  C   UNL     1      47.877   4.475  17.451  0.00  0.00    +0.000 A 
ATOM      8  C   UNL     1      48.484   5.708  17.187  0.00  0.00    +0.000 A 
BRANCH   8   9
ATOM      9  C   UNL     1      48.999   6.501  18.357  0.00  0.00    +0.000 C 
ATOM     10  N   UNL     1      48.135   7.431  18.882  0.00  0.00    +0.000 N 
ATOM     11  O   UNL     1      50.127   6.395  18.815  0.00  0.00    +0.000 OA
ATOM     12  H   UNL     1      47.291   7.714  18.404  0.00  0.00    +0.000 HD
ATOM     13  H   UNL     1      48.515   8.058  19.575  0.00  0.00    +0.000 HD
ENDBRANCH   8   9
ENDBRANCH   1   4
BRANCH   1  14
ATOM     14  C   UNL     1      46.150   6.672  13.189  0.00  0.00    +0.000 C 
BRANCH  14  15
ATOM     15  C   UNL     1      45.230   5.776  12.381  0.00  0.00    +0.000 A 
ATOM     16  C   UNL     1      43.851   5.779  12.624  0.00  0.00    +0.000 A 
ATOM     17  C   UNL     1      42.980   5.146  11.741  0.00  0.00    +0.000 A 
ATOM     18  C   UNL     1      43.475   4.481  10.619  0.00  0.00    +0.000 A 
ATOM     19  C   UNL     1      44.854   4.402  10.362  0.00  0.00    +0.000 A 
ATOM     20  C   UNL     1      45.717   5.072  11.257  0.00  0.00    +0.000 A 
BRANCH  19  21
ATOM     21  C   UNL     1      45.351   3.616   9.209  0.00  0.00    +0.000 A 
ATOM     22  C   UNL     1      45.367   2.211   9.224  0.00  0.00    +0.000 A 
ATOM     23  C   UNL     1      45.949   1.521   8.169  0.00  0.00    +0.000 A 
ATOM     24  N   UNL     1      46.498   2.120   7.094  0.00  0.00    +0.000 NA
ATOM     25  C   UNL     1      46.459   3.467   7.075  0.00  0.00    +0.000 A 
ATOM     26  C   UNL     1      45.903   4.242   8.085  0.00  0.00    +0.000 A 
ENDBRANCH  19  21
ENDBRANCH  14  15
ENDBRANCH   1  14
TORSDOF 5
ENDMDL
MODEL 9
REMARK VINA RESULT:    -6.316      4.183      6.272
REMARK INTER + INTRA:          -9.129
REMARK INTER:                  -8.106
REMARK INTRA:                  -1.023
REMARK UNBOUND:                -0.966
REMARK  Name = 
REMARK  6 active torsions:
REMARK  status: ('A' for Active; 'I' for Inactive)
REMARK    1  A    between atoms: C_1  and  C_2
REMARK    2  A    between atoms: C_3  and  C_4
REMARK    3  A    between atoms: C_4  and  C_5
REMARK    4  A    between atoms: C_5  and  C_6
REMARK    5  A    between atoms: C_10  and  C_11
REMARK    6  A    between atoms: C_21  and  C_22
REMARK                            x       y       z     vdW  Elec       q    Type
REMARK                         _______ _______ _______ _____ _____    ______ ____
ROOT
ATOM      1  C   UNL     1      48.838   7.189  15.936  0.00  0.00    +0.000 C 
ENDROOT
BRANCH   1   4
ATOM      2  C   UNL     1      51.583   6.189  16.722  0.00  0.00    +0.000 C 
ATOM      3  C   UNL     1      50.343   5.368  16.984  0.00  0.00    +0.000 A 
ATOM      4  C   UNL     1      49.080   5.778  16.483  0.00  0.00    +0.000 A 
ATOM      5  C   UNL     1      48.032   4.837  16.481  0.00  0.00    +0.000 A 
ATOM      6  C   UNL     1      48.173   3.583  17.071  0.00  0.00    +0.000 A 
ATOM      7  C   UNL     1      49.352   3.258  17.724  0.00  0.00    +0.000 A 
ATOM      8  C   UNL     1      50.431   4.151  17.709  0.00  0.00    +0.000 A 
BRANCH   8   9
ATOM      9  C   UNL     1      51.643   3.800  18.528  0.00  0.00    +0.000 C 
ATOM     10  N   UNL     1      51.654   4.270  19.819  0.00  0.00    +0.000 N 
ATOM     11  O   UNL     1      52.605   3.181  18.100  0.00  0.00    +0.000 OA
ATOM     12  H   UNL     1      51.002   4.969  20.145  0.00  0.00    +0.000 HD
ATOM     13  H   UNL     1      52.516   4.157  20.332  0.00  0.00    +0.000 HD
ENDBRANCH   8   9
ENDBRANCH   1   4
BRANCH   1  14
ATOM     14  C   UNL     1      48.791   7.273  14.391  0.00  0.00    +0.000 C 
BRANCH  14  15
ATOM     15  C   UNL     1      47.430   7.333  13.722  0.00  0.00    +0.000 A 
ATOM     16  C   UNL     1      46.839   8.569  13.437  0.00  0.00    +0.000 A 
ATOM     17  C   UNL     1      45.713   8.638  12.621  0.00  0.00    +0.000 A 
ATOM     18  C   UNL     1      45.148   7.474  12.098  0.00  0.00    +0.000 A 
ATOM     19  C   UNL     1      45.672   6.206  12.402  0.00  0.00    +0.000 A 
ATOM     20  C   UNL     1      46.829   6.161  13.211  0.00  0.00    +0.000 A 
BRANCH  19  21
ATOM     21  C   UNL     1      44.999   4.985  11.900  0.00  0.00    +0.000 A 
ATOM     22  C   UNL     1      44.963   4.671  10.531  0.00  0.00    +0.000 A 
ATOM     23  C   UNL     1      44.222   3.580  10.098  0.00  0.00    +0.000 A 
ATOM     24  N   UNL     1      43.530   2.768  10.922  0.00  0.00    +0.000 NA
ATOM     25  C   UNL     1      43.587   3.062  12.237  0.00  0.00    +0.000 A 
ATOM     26  C   UNL     1      44.298   4.133  12.762  0.00  0.00    +0.000 A 
ENDBRANCH  19  21
ENDBRANCH  14  15
ENDBRANCH   1  14
TORSDOF 5
ENDMDL
