MODEL 1
REMARK VINA RESULT:    -7.036      0.000      0.000
REMARK INTER + INTRA:          -8.807
REMARK INTER:                  -8.270
REMARK INTRA:                  -0.537
REMARK UNBOUND:                -0.537
REMARK  Name = 
REMARK  3 active torsions:
REMARK  status: ('A' for Active; 'I' for Inactive)
REMARK    1  A    between atoms: C_3  and  N_4
REMARK    2  A    between atoms: N_4  and  C_5
REMARK    3  A    between atoms: C_5  and  C_6
REMARK                            x       y       z     vdW  Elec       q    Type
REMARK                         _______ _______ _______ _____ _____    ______ ____
ROOT
ATOM      1  C   UNL     1      44.868   4.418  10.459  0.00  0.00    +0.000 A 
ATOM      2  C   UNL     1      44.705   3.342  11.325  0.00  0.00    +0.000 A 
ATOM      3  C   UNL     1      45.311   3.412  12.568  0.00  0.00    +0.000 A 
ATOM      4  N   UNL     1      46.050   4.463  12.994  0.00  0.00    +0.000 NA
ATOM      5  C   UNL     1      46.193   5.530  12.180  0.00  0.00    +0.000 A 
ATOM      6  N   UNL     1      47.028   6.554  12.553  0.00  0.00    +0.000 N 
ATOM      7  C   UNL     1      46.806   7.948  12.152  0.00  0.00    +0.000 C 
ATOM      8  C   UNL     1      48.174   8.621  11.957  0.00  0.00    +0.000 C 
ATOM      9  O   UNL     1      48.985   8.530  13.141  0.00  0.00    +0.000 OA
ATOM     10  C   UNL     1      49.178   7.153  13.522  0.00  0.00    +0.000 C 
ATOM     11  C   UNL     1      47.836   6.438  13.776  0.00  0.00    +0.000 C 
ATOM     12  C   UNL     1      45.594   5.524  10.919  0.00  0.00    +0.000 A 
ENDROOT
BRANCH   1  13
ATOM     13  C   UNL     1      44.370   4.398   9.035  0.00  0.00    +0.000 C 
BRANCH  13  14
ATOM     14  N   UNL     1      44.471   3.069   8.461  0.00  0.00    +0.000 N 
ATOM     15  H   UNL     1      43.965   2.354   8.978  0.00  0.00    +0.000 HD
BRANCH  14  18
ATOM     16  C   UNL     1      47.728   2.787   6.694  0.00  0.00    +0.000 A 
ATOM     17  C   UNL     1      46.571   3.372   7.195  0.00  0.00    +0.000 A 
ATOM     18  C   UNL     1      45.693   2.604   7.962  0.00  0.00    +0.000 A 
ATOM     19  C   UNL     1      46.016   1.256   8.140  0.00  0.00    +0.000 A 
ATOM     20  C   UNL     1      47.187   0.753   7.590  0.00  0.00    +0.000 A 
ATOM     21  N   UNL     1      48.058   1.493   6.876  0.00  0.00    +0.000 NA
ENDBRANCH  14  18
ENDBRANCH  13  14
ENDBRANCH   1  13
TORSDOF 3
ENDMDL
MODEL 2
REMARK VINA RESULT:    -6.915      1.370      1.915
REMARK INTER + INTRA:          -8.664
REMARK INTER:                  -8.098
REMARK INTRA:                  -0.566
REMARK UNBOUND:                -0.537
REMARK  Name = 
REMARK  3 active torsions:
REMARK  status: ('A' for Active; 'I' for Inactive)
REMARK    1  A    between atoms: C_3  and  N_4
REMARK    2  A    between atoms: N_4  and  C_5
REMARK    3  A    between atoms: C_5  and  C_6
REMARK                            x       y       z     vdW  Elec       q    Type
REMARK                         _______ _______ _______ _____ _____    ______ ____
ROOT
ATOM      1  C   UNL     1      44.625   4.678  11.709  0.00  0.00    +0.000 A 
ATOM      2  C   UNL     1      45.299   3.718  12.456  0.00  0.00    +0.000 A 
ATOM      3  C   UNL     1      46.300   4.148  13.312  0.00  0.00    +0.000 A 
ATOM      4  N   UNL     1      46.661   5.443  13.468  0.00  0.00    +0.000 NA
ATOM      5  C   UNL     1      45.997   6.391  12.774  0.00  0.00    +0.000 A 
ATOM      6  N   UNL     1      46.423   7.695  12.838  0.00  0.00    +0.000 N 
ATOM      7  C   UNL     1      45.513   8.838  12.703  0.00  0.00    +0.000 C 
ATOM      8  C   UNL     1      46.264   9.975  11.993  0.00  0.00    +0.000 C 
ATOM      9  O   UNL     1      47.470  10.334  12.692  0.00  0.00    +0.000 OA
ATOM     10  C   UNL     1      48.341   9.193  12.823  0.00  0.00    +0.000 C 
ATOM     11  C   UNL     1      47.653   8.033  13.570  0.00  0.00    +0.000 C 
ATOM     12  C   UNL     1      44.968   6.021  11.906  0.00  0.00    +0.000 A 
ENDROOT
BRANCH   1  13
ATOM     13  C   UNL     1      43.612   4.319  10.649  0.00  0.00    +0.000 C 
BRANCH  13  14
ATOM     14  N   UNL     1      44.131   4.576   9.318  0.00  0.00    +0.000 N 
ATOM     15  H   UNL     1      43.447   4.966   8.674  0.00  0.00    +0.000 HD
BRANCH  14  18
ATOM     16  C   UNL     1      45.928   1.469   8.352  0.00  0.00    +0.000 A 
ATOM     17  C   UNL     1      44.992   2.284   8.977  0.00  0.00    +0.000 A 
ATOM     18  C   UNL     1      44.983   3.652   8.700  0.00  0.00    +0.000 A 
ATOM     19  C   UNL     1      45.968   4.132   7.833  0.00  0.00    +0.000 A 
ATOM     20  C   UNL     1      46.873   3.246   7.266  0.00  0.00    +0.000 A 
ATOM     21  N   UNL     1      46.870   1.919   7.500  0.00  0.00    +0.000 NA
ENDBRANCH  14  18
ENDBRANCH  13  14
ENDBRANCH   1  13
TORSDOF 3
ENDMDL
MODEL 3
REMARK VINA RESULT:    -6.672      2.457      3.603
REMARK INTER + INTRA:          -8.380
REMARK INTER:                  -7.892
REMARK INTRA:                  -0.488
REMARK UNBOUND:                -0.537
REMARK  Name = 
REMARK  3 active torsions:
REMARK  status: ('A' for Active; 'I' for Inactive)
REMARK    1  A    between atoms: C_3  and  N_4
REMARK    2  A    between atoms: N_4  and  C_5
REMARK    3  A    between atoms: C_5  and  C_6
REMARK                            x       y       z     vdW  Elec       q    Type
REMARK                         _______ _______ _______ _____ _____    ______ ____
ROOT
ATOM      1  C   UNL     1      45.360   5.320  12.076  0.00  0.00    +0.000 A 
ATOM      2  C   UNL     1      46.003   6.380  11.445  0.00  0.00    +0.000 A 
ATOM      3  C   UNL     1      47.128   6.910  12.055  0.00  0.00    +0.000 A 
ATOM      4  N   UNL     1      47.642   6.459  13.223  0.00  0.00    +0.000 NA
ATOM      5  C   UNL     1      47.050   5.411  13.833  0.00  0.00    +0.000 A 
ATOM      6  N   UNL     1      47.493   5.014  15.070  0.00  0.00    +0.000 N 
ATOM      7  C   UNL     1      47.422   3.624  15.533  0.00  0.00    +0.000 C 
ATOM      8  C   UNL     1      47.163   3.629  17.048  0.00  0.00    +0.000 C 
ATOM      9  O   UNL     1      48.167   4.376  17.757  0.00  0.00    +0.000 OA
ATOM     10  C   UNL     1      48.226   5.733  17.276  0.00  0.00    +0.000 C 
ATOM     11  C   UNL     1      48.530   5.791  15.766  0.00  0.00    +0.000 C 
ATOM     12  C   UNL     1      45.920   4.825  13.260  0.00  0.00    +0.000 A 
ENDROOT
BRANCH   1  13
ATOM     13  C   UNL     1      44.053   4.751  11.579  0.00  0.00    +0.000 C 
BRANCH  13  14
ATOM     14  N   UNL     1      43.969   4.814  10.131  0.00  0.00    +0.000 N 
ATOM     15  H   UNL     1      43.033   4.994   9.777  0.00  0.00    +0.000 HD
BRANCH  14  18
ATOM     16  C   UNL     1      45.492   1.715   8.758  0.00  0.00    +0.000 A 
ATOM     17  C   UNL     1      44.703   2.523   9.567  0.00  0.00    +0.000 A 
ATOM     18  C   UNL     1      44.675   3.900   9.340  0.00  0.00    +0.000 A 
ATOM     19  C   UNL     1      45.498   4.393   8.324  0.00  0.00    +0.000 A 
ATOM     20  C   UNL     1      46.265   3.513   7.576  0.00  0.00    +0.000 A 
ATOM     21  N   UNL     1      46.274   2.179   7.764  0.00  0.00    +0.000 NA
ENDBRANCH  14  18
ENDBRANCH  13  14
ENDBRANCH   1  13
TORSDOF 3
ENDMDL
MODEL 4
REMARK VINA RESULT:    -5.871      3.109      4.973
REMARK INTER + INTRA:          -7.437
REMARK INTER:                  -6.926
REMARK INTRA:                  -0.511
REMARK UNBOUND:                -0.537
REMARK  Name = 
REMARK  3 active torsions:
REMARK  status: ('A' for Active; 'I' for Inactive)
REMARK    1  A    between atoms: C_3  and  N_4
REMARK    2  A    between atoms: N_4  and  C_5
REMARK    3  A    between atoms: C_5  and  C_6
REMARK                            x       y       z     vdW  Elec       q    Type
REMARK                         _______ _______ _______ _____ _____    ______ ____
ROOT
ATOM      1  C   UNL     1      47.049   7.006  12.527  0.00  0.00    +0.000 A 
ATOM      2  C   UNL     1      48.188   7.707  12.145  0.00  0.00    +0.000 A 
ATOM      3  C   UNL     1      49.298   7.640  12.971  0.00  0.00    +0.000 A 
ATOM      4  N   UNL     1      49.344   6.934  14.125  0.00  0.00    +0.000 NA
ATOM      5  C   UNL     1      48.258   6.223  14.496  0.00  0.00    +0.000 A 
ATOM      6  N   UNL     1      48.251   5.592  15.715  0.00  0.00    +0.000 N 
ATOM      7  C   UNL     1      47.507   4.353  15.966  0.00  0.00    +0.000 C 
ATOM      8  C   UNL     1      47.000   4.376  17.417  0.00  0.00    +0.000 C 
ATOM      9  O   UNL     1      48.077   4.550  18.354  0.00  0.00    +0.000 OA
ATOM     10  C   UNL     1      48.799   5.767  18.079  0.00  0.00    +0.000 C 
ATOM     11  C   UNL     1      49.372   5.779  16.649  0.00  0.00    +0.000 C 
ATOM     12  C   UNL     1      47.114   6.239  13.697  0.00  0.00    +0.000 A 
ENDROOT
BRANCH   1  13
ATOM     13  C   UNL     1      45.742   7.112  11.780  0.00  0.00    +0.000 C 
BRANCH  13  14
ATOM     14  N   UNL     1      45.656   6.116  10.728  0.00  0.00    +0.000 N 
ATOM     15  H   UNL     1      45.529   6.505   9.797  0.00  0.00    +0.000 HD
BRANCH  14  18
ATOM     16  C   UNL     1      44.080   2.778  10.294  0.00  0.00    +0.000 A 
ATOM     17  C   UNL     1      44.903   3.867  10.032  0.00  0.00    +0.000 A 
ATOM     18  C   UNL     1      44.918   4.942  10.923  0.00  0.00    +0.000 A 
ATOM     19  C   UNL     1      44.051   4.874  12.016  0.00  0.00    +0.000 A 
ATOM     20  C   UNL     1      43.253   3.753  12.190  0.00  0.00    +0.000 A 
ATOM     21  N   UNL     1      43.254   2.695  11.355  0.00  0.00    +0.000 NA
ENDBRANCH  14  18
ENDBRANCH  13  14
ENDBRANCH   1  13
TORSDOF 3
ENDMDL
MODEL 5
REMARK VINA RESULT:    -5.847      3.721      7.414
REMARK INTER + INTRA:          -7.409
REMARK INTER:                  -6.949
REMARK INTRA:                  -0.460
REMARK UNBOUND:                -0.537
REMARK  Name = 
REMARK  3 active torsions:
REMARK  status: ('A' for Active; 'I' for Inactive)
REMARK    1  A    between atoms: C_3  and  N_4
REMARK    2  A    between atoms: N_4  and  C_5
REMARK    3  A    between atoms: C_5  and  C_6
REMARK                            x       y       z     vdW  Elec       q    Type
REMARK                         _______ _______ _______ _____ _____    ______ ____
ROOT
ATOM      1  C   UNL     1      47.442   7.233  13.644  0.00  0.00    +0.000 A 
ATOM      2  C   UNL     1      47.265   8.482  13.058  0.00  0.00    +0.000 A 
ATOM      3  C   UNL     1      46.200   8.645  12.187  0.00  0.00    +0.000 A 
ATOM      4  N   UNL     1      45.320   7.665  11.874  0.00  0.00    +0.000 NA
ATOM      5  C   UNL     1      45.458   6.456  12.457  0.00  0.00    +0.000 A 
ATOM      6  N   UNL     1      44.641   5.424  12.067  0.00  0.00    +0.000 N 
ATOM      7  C   UNL     1      44.239   4.341  12.972  0.00  0.00    +0.000 C 
ATOM      8  C   UNL     1      44.114   3.046  12.154  0.00  0.00    +0.000 C 
ATOM      9  O   UNL     1      43.194   3.195  11.058  0.00  0.00    +0.000 OA
ATOM     10  C   UNL     1      43.603   4.271  10.192  0.00  0.00    +0.000 C 
ATOM     11  C   UNL     1      43.700   5.609  10.951  0.00  0.00    +0.000 C 
ATOM     12  C   UNL     1      46.504   6.235  13.354  0.00  0.00    +0.000 A 
ENDROOT
BRANCH   1  13
ATOM     13  C   UNL     1      48.639   6.900  14.500  0.00  0.00    +0.000 C 
BRANCH  13  14
ATOM     14  N   UNL     1      48.249   6.656  15.877  0.00  0.00    +0.000 N 
ATOM     15  H   UNL     1      48.491   7.409  16.517  0.00  0.00    +0.000 HD
BRANCH  14  18
ATOM     16  C   UNL     1      47.742   3.161  17.033  0.00  0.00    +0.000 A 
ATOM     17  C   UNL     1      47.492   4.356  16.370  0.00  0.00    +0.000 A 
ATOM     18  C   UNL     1      48.426   5.390  16.448  0.00  0.00    +0.000 A 
ATOM     19  C   UNL     1      49.552   5.171  17.246  0.00  0.00    +0.000 A 
ATOM     20  C   UNL     1      49.712   3.950  17.885  0.00  0.00    +0.000 A 
ATOM     21  N   UNL     1      48.834   2.932  17.789  0.00  0.00    +0.000 NA
ENDBRANCH  14  18
ENDBRANCH  13  14
ENDBRANCH   1  13
TORSDOF 3
ENDMDL
MODEL 6
REMARK VINA RESULT:    -5.786      3.289      5.281
REMARK INTER + INTRA:          -7.338
REMARK INTER:                  -6.954
REMARK INTRA:                  -0.384
REMARK UNBOUND:                -0.537
REMARK  Name = 
REMARK  3 active torsions:
REMARK  status: ('A' for Active; 'I' for Inactive)
REMARK    1  A    between atoms: C_3  and  N_4
REMARK    2  A    between atoms: N_4  and  C_5
REMARK    3  A    between atoms: C_5  and  C_6
REMARK                            x       y       z     vdW  Elec       q    Type
REMARK                         _______ _______ _______ _____ _____    ______ ____
ROOT
ATOM      1  C   UNL     1      46.601   2.136   7.576  0.00  0.00    +0.000 A 
ATOM      2  C   UNL     1      46.919   3.250   6.806  0.00  0.00    +0.000 A 
ATOM      3  C   UNL     1      46.527   4.494   7.271  0.00  0.00    +0.000 A 
ATOM      4  N   UNL     1      45.856   4.694   8.430  0.00  0.00    +0.000 NA
ATOM      5  C   UNL     1      45.566   3.629   9.205  0.00  0.00    +0.000 A 
ATOM      6  N   UNL     1      44.792   3.803  10.326  0.00  0.00    +0.000 N 
ATOM      7  C   UNL     1      44.926   2.967  11.524  0.00  0.00    +0.000 C 
ATOM      8  C   UNL     1      43.536   2.801  12.159  0.00  0.00    +0.000 C 
ATOM      9  O   UNL     1      42.934   4.072  12.461  0.00  0.00    +0.000 OA
ATOM     10  C   UNL     1      42.825   4.878  11.271  0.00  0.00    +0.000 C 
ATOM     11  C   UNL     1      44.199   5.117  10.616  0.00  0.00    +0.000 C 
ATOM     12  C   UNL     1      45.948   2.350   8.796  0.00  0.00    +0.000 A 
ENDROOT
BRANCH   1  13
ATOM     13  C   UNL     1      46.856   0.725   7.108  0.00  0.00    +0.000 C 
BRANCH  13  14
ATOM     14  N   UNL     1      47.566   0.711   5.842  0.00  0.00    +0.000 N 
ATOM     15  H   UNL     1      48.103   1.555   5.657  0.00  0.00    +0.000 HD
BRANCH  14  18
ATOM     16  C   UNL     1      46.332  -1.529   3.145  0.00  0.00    +0.000 A 
ATOM     17  C   UNL     1      46.914  -1.147   4.348  0.00  0.00    +0.000 A 
ATOM     18  C   UNL     1      46.949   0.206   4.691  0.00  0.00    +0.000 A 
ATOM     19  C   UNL     1      46.431   1.112   3.761  0.00  0.00    +0.000 A 
ATOM     20  C   UNL     1      45.883   0.640   2.577  0.00  0.00    +0.000 A 
ATOM     21  N   UNL     1      45.813  -0.666   2.251  0.00  0.00    +0.000 NA
ENDBRANCH  14  18
ENDBRANCH  13  14
ENDBRANCH   1  13
TORSDOF 3
ENDMDL
MODEL 7
REMARK VINA RESULT:    -5.728      3.423      6.998
REMARK INTER + INTRA:          -7.270
REMARK INTER:                  -6.760
REMARK INTRA:                  -0.510
REMARK UNBOUND:                -0.537
REMARK  Name = 
REMARK  3 active torsions:
REMARK  status: ('A' for Active; 'I' for Inactive)
REMARK    1  A    between atoms: C_3  and  N_4
REMARK    2  A    between atoms: N_4  and  C_5
REMARK    3  A    between atoms: C_5  and  C_6
REMARK                            x       y       z     vdW  Elec       q    Type
REMARK                         _______ _______ _______ _____ _____    ______ ____
ROOT
ATOM      1  C   UNL     1      47.204   7.971  12.650  0.00  0.00    +0.000 A 
ATOM      2  C   UNL     1      47.966   7.532  13.728  0.00  0.00    +0.000 A 
ATOM      3  C   UNL     1      47.867   6.199  14.091  0.00  0.00    +0.000 A 
ATOM      4  N   UNL     1      47.078   5.297  13.462  0.00  0.00    +0.000 NA
ATOM      5  C   UNL     1      46.355   5.698  12.395  0.00  0.00    +0.000 A 
ATOM      6  N   UNL     1      45.469   4.824  11.816  0.00  0.00    +0.000 N 
ATOM      7  C   UNL     1      45.132   4.861  10.389  0.00  0.00    +0.000 C 
ATOM      8  C   UNL     1      43.660   4.450  10.227  0.00  0.00    +0.000 C 
ATOM      9  O   UNL     1      43.402   3.157  10.802  0.00  0.00    +0.000 OA
ATOM     10  C   UNL     1      43.752   3.142  12.199  0.00  0.00    +0.000 C 
ATOM     11  C   UNL     1      45.235   3.503  12.420  0.00  0.00    +0.000 C 
ATOM     12  C   UNL     1      46.424   7.026  11.972  0.00  0.00    +0.000 A 
ENDROOT
BRANCH   1  13
ATOM     13  C   UNL     1      47.127   9.423  12.248  0.00  0.00    +0.000 C 
BRANCH  13  14
ATOM     14  N   UNL     1      45.812   9.975  12.521  0.00  0.00    +0.000 N 
ATOM     15  H   UNL     1      45.282   9.460  13.220  0.00  0.00    +0.000 HD
BRANCH  14  18
ATOM     16  C   UNL     1      43.160  10.312   9.940  0.00  0.00    +0.000 A 
ATOM     17  C   UNL     1      43.845   9.801  11.035  0.00  0.00    +0.000 A 
ATOM     18  C   UNL     1      45.008  10.437  11.473  0.00  0.00    +0.000 A 
ATOM     19  C   UNL     1      45.443  11.542  10.736  0.00  0.00    +0.000 A 
ATOM     20  C   UNL     1      44.702  11.974   9.646  0.00  0.00    +0.000 A 
ATOM     21  N   UNL     1      43.561  11.388   9.235  0.00  0.00    +0.000 NA
ENDBRANCH  14  18
ENDBRANCH  13  14
ENDBRANCH   1  13
TORSDOF 3
ENDMDL
MODEL 8
REMARK VINA RESULT:    -5.652      4.140      8.440
REMARK INTER + INTRA:          -7.180
REMARK INTER:                  -6.884
REMARK INTRA:                  -0.296
REMARK UNBOUND:                -0.537
REMARK  Name = 
REMARK  3 active torsions:
REMARK  status: ('A' for Active; 'I' for Inactive)
REMARK    1  A    between atoms: C_3  and  N_4
REMARK    2  A    between atoms: N_4  and  C_5
REMARK    3  A    between atoms: C_5  and  C_6
REMARK                            x       y       z     vdW  Elec       q    Type
REMARK                         _______ _______ _______ _____ _____    ______ ____
ROOT
ATOM      1  C   UNL     1      47.700   5.723  14.525  0.00  0.00    +0.000 A 
ATOM      2  C   UNL     1      48.294   6.745  13.792  0.00  0.00    +0.000 A 
ATOM      3  C   UNL     1      47.760   7.048  12.551  0.00  0.00    +0.000 A 
ATOM      4  N   UNL     1      46.694   6.415  12.007  0.00  0.00    +0.000 NA
ATOM      5  C   UNL     1      46.085   5.442  12.718  0.00  0.00    +0.000 A 
ATOM      6  N   UNL     1      45.073   4.718  12.137  0.00  0.00    +0.000 N 
ATOM      7  C   UNL     1      43.964   4.141  12.905  0.00  0.00    +0.000 C 
ATOM      8  C   UNL     1      43.555   2.814  12.246  0.00  0.00    +0.000 C 
ATOM      9  O   UNL     1      43.208   2.993  10.861  0.00  0.00    +0.000 OA
ATOM     10  C   UNL     1      44.308   3.571  10.132  0.00  0.00    +0.000 C 
ATOM     11  C   UNL     1      44.733   4.930  10.722  0.00  0.00    +0.000 C 
ATOM     12  C   UNL     1      46.569   5.101  13.982  0.00  0.00    +0.000 A 
ENDROOT
BRANCH   1  13
ATOM     13  C   UNL     1      48.274   5.216  15.824  0.00  0.00    +0.000 C 
BRANCH  13  14
ATOM     14  N   UNL     1      47.229   4.982  16.805  0.00  0.00    +0.000 N 
ATOM     15  H   UNL     1      46.334   5.401  16.566  0.00  0.00    +0.000 HD
BRANCH  14  18
ATOM     16  C   UNL     1      47.392   6.068  20.355  0.00  0.00    +0.000 A 
ATOM     17  C   UNL     1      46.990   6.040  19.025  0.00  0.00    +0.000 A 
ATOM     18  C   UNL     1      47.512   5.065  18.173  0.00  0.00    +0.000 A 
ATOM     19  C   UNL     1      48.462   4.193  18.712  0.00  0.00    +0.000 A 
ATOM     20  C   UNL     1      48.815   4.304  20.049  0.00  0.00    +0.000 A 
ATOM     21  N   UNL     1      48.293   5.220  20.888  0.00  0.00    +0.000 NA
ENDBRANCH  14  18
ENDBRANCH  13  14
ENDBRANCH   1  13
TORSDOF 3
ENDMDL
MODEL 9
REMARK VINA RESULT:    -5.560      3.759      7.786
REMARK INTER + INTRA:          -7.072
REMARK INTER:                  -6.775
REMARK INTRA:                  -0.297
REMARK UNBOUND:                -0.537
REMARK  Name = 
REMARK  3 active torsions:
REMARK  status: ('A' for Active; 'I' for Inactive)
REMARK    1  A    between atoms: C_3  and  N_4
REMARK    2  A    between atoms: N_4  and  C_5
REMARK    3  A    between atoms: C_5  and  C_6
REMARK                            x       y       z     vdW  Elec       q    Type
REMARK                         _______ _______ _______ _____ _____    ______ ____
ROOT
ATOM      1  C   UNL     1      46.380   5.160  13.502  0.00  0.00    +0.000 A 
ATOM      2  C   UNL     1      46.584   6.515  13.267  0.00  0.00    +0.000 A 
ATOM      3  C   UNL     1      46.253   7.014  12.018  0.00  0.00    +0.000 A 
ATOM      4  N   UNL     1      45.741   6.266  11.013  0.00  0.00    +0.000 NA
ATOM      5  C   UNL     1      45.507   4.955  11.233  0.00  0.00    +0.000 A 
ATOM      6  N   UNL     1      45.092   4.161  10.192  0.00  0.00    +0.000 N 
ATOM      7  C   UNL     1      44.233   2.987  10.380  0.00  0.00    +0.000 C 
ATOM      8  C   UNL     1      44.630   1.924   9.342  0.00  0.00    +0.000 C 
ATOM      9  O   UNL     1      44.549   2.435   8.000  0.00  0.00    +0.000 OA
ATOM     10  C   UNL     1      45.391   3.594   7.845  0.00  0.00    +0.000 C 
ATOM     11  C   UNL     1      45.007   4.714   8.832  0.00  0.00    +0.000 C 
ATOM     12  C   UNL     1      45.808   4.397  12.477  0.00  0.00    +0.000 A 
ENDROOT
BRANCH   1  13
ATOM     13  C   UNL     1      46.827   4.479  14.772  0.00  0.00    +0.000 C 
BRANCH  13  14
ATOM     14  N   UNL     1      47.580   5.387  15.618  0.00  0.00    +0.000 N 
ATOM     15  H   UNL     1      48.313   5.897  15.132  0.00  0.00    +0.000 HD
BRANCH  14  18
ATOM     16  C   UNL     1      48.884   5.365  19.098  0.00  0.00    +0.000 A 
ATOM     17  C   UNL     1      48.472   5.872  17.871  0.00  0.00    +0.000 A 
ATOM     18  C   UNL     1      47.963   5.000  16.908  0.00  0.00    +0.000 A 
ATOM     19  C   UNL     1      47.946   3.639  17.227  0.00  0.00    +0.000 A 
ATOM     20  C   UNL     1      48.393   3.222  18.472  0.00  0.00    +0.000 A 
ATOM     21  N   UNL     1      48.855   4.058  19.423  0.00  0.00    +0.000 NA
ENDBRANCH  14  18
ENDBRANCH  13  14
ENDBRANCH   1  13
TORSDOF 3
ENDMDL
