MODEL 1
REMARK VINA RESULT:    -7.768      0.000      0.000
REMARK INTER + INTRA:         -12.365
REMARK INTER:                 -11.401
REMARK INTRA:                  -0.963
REMARK UNBOUND:                -0.963
REMARK  Name = 
REMARK  9 active torsions:
REMARK  status: ('A' for Active; 'I' for Inactive)
REMARK    1  A    between atoms: C_1  and  N_2
REMARK    2  A    between atoms: N_2  and  C_3
REMARK    3  A    between atoms: C_3  and  C_4
REMARK    4  A    between atoms: C_4  and  N_5
REMARK    5  A    between atoms: N_5  and  C_6
REMARK    6  A    between atoms: C_6  and  C_7
REMARK    7  A    between atoms: C_11  and  C_12
REMARK    8  A    between atoms: C_12  and  C_13
REMARK    9  A    between atoms: C_20  and  C_22
REMARK                            x       y       z     vdW  Elec       q    Type
REMARK                         _______ _______ _______ _____ _____    ______ ____
ROOT
ATOM      1  N   UNL     1      47.113   6.780  12.736  0.00  0.00    +0.000 N 
ATOM      2  C   UNL     1      47.050   8.085  13.276  0.00  0.00    +0.000 C 
ATOM      3  O   UNL     1      47.480   8.319  14.408  0.00  0.00    +0.000 OA
ENDROOT
BRANCH   2   4
ATOM      4  C   UNL     1      46.446   9.195  12.498  0.00  0.00    +0.000 A 
ATOM      5  C   UNL     1      45.109   9.568  12.524  0.00  0.00    +0.000 A 
ATOM      6  S   UNL     1      44.730  10.885  11.506  0.00  0.00    +0.000 S 
ATOM      7  C   UNL     1      46.371  11.136  11.151  0.00  0.00    +0.000 A 
ATOM      8  N   UNL     1      46.760  12.209  10.415  0.00  0.00    +0.000 NA
ATOM      9  C   UNL     1      48.038  12.325  10.292  0.00  0.00    +0.000 A 
ATOM     10  N   UNL     1      48.957  11.441  10.799  0.00  0.00    +0.000 N 
ATOM     11  C   UNL     1      48.596  10.261  11.419  0.00  0.00    +0.000 A 
ATOM     12  O   UNL     1      49.429   9.386  11.632  0.00  0.00    +0.000 OA
ATOM     13  C   UNL     1      47.178  10.157  11.702  0.00  0.00    +0.000 A 
ATOM     14  H   UNL     1      49.939  11.552  10.604  0.00  0.00    +0.000 HD
ENDBRANCH   2   4
BRANCH   1  15
ATOM     15  C   UNL     1      47.747   5.726  13.557  0.00  0.00    +0.000 C 
BRANCH  15  16
ATOM     16  C   UNL     1      46.753   4.692  14.148  0.00  0.00    +0.000 C 
BRANCH  16  18
ATOM     17  C   UNL     1      47.472   3.905  16.344  0.00  0.00    +0.000 C 
ATOM     18  N   UNL     1      47.351   3.588  14.922  0.00  0.00    +0.000 NA
ATOM     19  H   UNL     1      46.733   2.779  14.835  0.00  0.00    +0.000 HD
ENDBRANCH  16  18
ENDBRANCH  15  16
ENDBRANCH   1  15
BRANCH   1  20
ATOM     20  C   UNL     1      46.612   6.503  11.403  0.00  0.00    +0.000 C 
BRANCH  20  21
ATOM     21  C   UNL     1      45.300   5.833  11.094  0.00  0.00    +0.000 A 
ATOM     22  C   UNL     1      44.141   6.145  11.813  0.00  0.00    +0.000 A 
ATOM     23  C   UNL     1      43.051   5.270  11.792  0.00  0.00    +0.000 A 
ATOM     24  C   UNL     1      43.117   4.075  11.071  0.00  0.00    +0.000 A 
ATOM     25  C   UNL     1      44.261   3.759  10.331  0.00  0.00    +0.000 A 
ATOM     26  C   UNL     1      45.323   4.670  10.307  0.00  0.00    +0.000 A 
BRANCH  25  27
ATOM     27  C   UNL     1      44.392   2.430   9.619  0.00  0.00    +0.000 C 
BRANCH  27  28
ATOM     28  C   UNL     1      45.425   2.425   8.522  0.00  0.00    +0.000 A 
ATOM     29  C   UNL     1      45.564   3.523   7.674  0.00  0.00    +0.000 A 
ATOM     30  C   UNL     1      46.489   3.459   6.639  0.00  0.00    +0.000 A 
ATOM     31  C   UNL     1      47.264   2.316   6.490  0.00  0.00    +0.000 A 
ATOM     32  C   UNL     1      47.088   1.283   7.395  0.00  0.00    +0.000 A 
ATOM     33  N   UNL     1      46.190   1.311   8.404  0.00  0.00    +0.000 NA
ENDBRANCH  27  28
ENDBRANCH  25  27
ENDBRANCH  20  21
ENDBRANCH   1  20
TORSDOF 8
ENDMDL
MODEL 2
REMARK VINA RESULT:    -7.638      1.513      2.000
REMARK INTER + INTRA:         -12.173
REMARK INTER:                 -11.203
REMARK INTRA:                  -0.970
REMARK UNBOUND:                -0.963
REMARK  Name = 
REMARK  9 active torsions:
REMARK  status: ('A' for Active; 'I' for Inactive)
REMARK    1  A    between atoms: C_1  and  N_2
REMARK    2  A    between atoms: N_2  and  C_3
REMARK    3  A    between atoms: C_3  and  C_4
REMARK    4  A    between atoms: C_4  and  N_5
REMARK    5  A    between atoms: N_5  and  C_6
REMARK    6  A    between atoms: C_6  and  C_7
REMARK    7  A    between atoms: C_11  and  C_12
REMARK    8  A    between atoms: C_12  and  C_13
REMARK    9  A    between atoms: C_20  and  C_22
REMARK                            x       y       z     vdW  Elec       q    Type
REMARK                         _______ _______ _______ _____ _____    ______ ____
ROOT
ATOM      1  N   UNL     1      47.149   6.132  13.172  0.00  0.00    +0.000 N 
ATOM      2  C   UNL     1      48.137   6.996  13.698  0.00  0.00    +0.000 C 
ATOM      3  O   UNL     1      48.489   6.906  14.876  0.00  0.00    +0.000 OA
ENDROOT
BRANCH   2   4
ATOM      4  C   UNL     1      48.754   8.044  12.847  0.00  0.00    +0.000 A 
ATOM      5  C   UNL     1      50.038   8.007  12.320  0.00  0.00    +0.000 A 
ATOM      6  S   UNL     1      50.450   9.376  11.386  0.00  0.00    +0.000 S 
ATOM      7  C   UNL     1      48.863   9.970  11.481  0.00  0.00    +0.000 A 
ATOM      8  N   UNL     1      48.498  11.074  10.779  0.00  0.00    +0.000 NA
ATOM      9  C   UNL     1      47.245  11.366  10.875  0.00  0.00    +0.000 A 
ATOM     10  N   UNL     1      46.339  10.683  11.646  0.00  0.00    +0.000 N 
ATOM     11  C   UNL     1      46.703   9.653  12.492  0.00  0.00    +0.000 A 
ATOM     12  O   UNL     1      45.922   9.238  13.343  0.00  0.00    +0.000 OA
ATOM     13  C   UNL     1      48.069   9.201  12.312  0.00  0.00    +0.000 A 
ATOM     14  H   UNL     1      45.390  11.008  11.734  0.00  0.00    +0.000 HD
ENDBRANCH   2   4
BRANCH   1  15
ATOM     15  C   UNL     1      46.593   5.097  14.070  0.00  0.00    +0.000 C 
BRANCH  15  16
ATOM     16  C   UNL     1      47.221   3.690  13.889  0.00  0.00    +0.000 C 
BRANCH  16  18
ATOM     17  C   UNL     1      47.536   3.861  16.303  0.00  0.00    +0.000 C 
ATOM     18  N   UNL     1      47.623   2.997  15.128  0.00  0.00    +0.000 NA
ATOM     19  H   UNL     1      46.979   2.216  15.268  0.00  0.00    +0.000 HD
ENDBRANCH  16  18
ENDBRANCH  15  16
ENDBRANCH   1  15
BRANCH   1  20
ATOM     20  C   UNL     1      46.737   6.234  11.785  0.00  0.00    +0.000 C 
BRANCH  20  21
ATOM     21  C   UNL     1      45.428   5.735  11.234  0.00  0.00    +0.000 A 
ATOM     22  C   UNL     1      44.207   6.200  11.735  0.00  0.00    +0.000 A 
ATOM     23  C   UNL     1      43.036   5.473  11.504  0.00  0.00    +0.000 A 
ATOM     24  C   UNL     1      43.078   4.272  10.789  0.00  0.00    +0.000 A 
ATOM     25  C   UNL     1      44.288   3.805  10.265  0.00  0.00    +0.000 A 
ATOM     26  C   UNL     1      45.444   4.571  10.446  0.00  0.00    +0.000 A 
BRANCH  25  27
ATOM     27  C   UNL     1      44.375   2.464   9.568  0.00  0.00    +0.000 C 
BRANCH  27  28
ATOM     28  C   UNL     1      45.409   2.411   8.474  0.00  0.00    +0.000 A 
ATOM     29  C   UNL     1      45.531   3.458   7.562  0.00  0.00    +0.000 A 
ATOM     30  C   UNL     1      46.458   3.348   6.532  0.00  0.00    +0.000 A 
ATOM     31  C   UNL     1      47.252   2.211   6.453  0.00  0.00    +0.000 A 
ATOM     32  C   UNL     1      47.093   1.232   7.418  0.00  0.00    +0.000 A 
ATOM     33  N   UNL     1      46.193   1.305   8.423  0.00  0.00    +0.000 NA
ENDBRANCH  27  28
ENDBRANCH  25  27
ENDBRANCH  20  21
ENDBRANCH   1  20
TORSDOF 8
ENDMDL
MODEL 3
REMARK VINA RESULT:    -7.279      2.727      4.399
REMARK INTER + INTRA:         -11.647
REMARK INTER:                 -10.126
REMARK INTRA:                  -1.521
REMARK UNBOUND:                -0.963
REMARK  Name = 
REMARK  9 active torsions:
REMARK  status: ('A' for Active; 'I' for Inactive)
REMARK    1  A    between atoms: C_1  and  N_2
REMARK    2  A    between atoms: N_2  and  C_3
REMARK    3  A    between atoms: C_3  and  C_4
REMARK    4  A    between atoms: C_4  and  N_5
REMARK    5  A    between atoms: N_5  and  C_6
REMARK    6  A    between atoms: C_6  and  C_7
REMARK    7  A    between atoms: C_11  and  C_12
REMARK    8  A    between atoms: C_12  and  C_13
REMARK    9  A    between atoms: C_20  and  C_22
REMARK                            x       y       z     vdW  Elec       q    Type
REMARK                         _______ _______ _______ _____ _____    ______ ____
ROOT
ATOM      1  N   UNL     1      46.634   8.975  12.161  0.00  0.00    +0.000 N 
ATOM      2  C   UNL     1      47.642   9.928  12.435  0.00  0.00    +0.000 C 
ATOM      3  O   UNL     1      47.348  11.089  12.726  0.00  0.00    +0.000 OA
ENDROOT
BRANCH   2   4
ATOM      4  C   UNL     1      49.076   9.553  12.354  0.00  0.00    +0.000 A 
ATOM      5  C   UNL     1      49.937   9.865  11.311  0.00  0.00    +0.000 A 
ATOM      6  S   UNL     1      51.528   9.281  11.519  0.00  0.00    +0.000 S 
ATOM      7  C   UNL     1      51.178   8.769  13.099  0.00  0.00    +0.000 A 
ATOM      8  N   UNL     1      52.161   8.280  13.899  0.00  0.00    +0.000 NA
ATOM      9  C   UNL     1      51.775   8.008  15.099  0.00  0.00    +0.000 A 
ATOM     10  N   UNL     1      50.487   8.135  15.554  0.00  0.00    +0.000 N 
ATOM     11  C   UNL     1      49.433   8.481  14.731  0.00  0.00    +0.000 A 
ATOM     12  O   UNL     1      48.273   8.342  15.107  0.00  0.00    +0.000 OA
ATOM     13  C   UNL     1      49.841   8.930  13.414  0.00  0.00    +0.000 A 
ATOM     14  H   UNL     1      50.237   7.836  16.483  0.00  0.00    +0.000 HD
ENDBRANCH   2   4
BRANCH   1  15
ATOM     15  C   UNL     1      45.226   9.412  12.280  0.00  0.00    +0.000 C 
BRANCH  15  16
ATOM     16  C   UNL     1      44.516   9.657  10.922  0.00  0.00    +0.000 C 
BRANCH  16  18
ATOM     17  C   UNL     1      42.100   9.933  10.714  0.00  0.00    +0.000 C 
ATOM     18  N   UNL     1      43.214   8.987  10.742  0.00  0.00    +0.000 NA
ATOM     19  H   UNL     1      43.236   8.506   9.841  0.00  0.00    +0.000 HD
ENDBRANCH  16  18
ENDBRANCH  15  16
ENDBRANCH   1  15
BRANCH   1  20
ATOM     20  C   UNL     1      46.978   7.607  11.821  0.00  0.00    +0.000 C 
BRANCH  20  21
ATOM     21  C   UNL     1      46.079   6.416  12.019  0.00  0.00    +0.000 A 
ATOM     22  C   UNL     1      46.191   5.604  13.152  0.00  0.00    +0.000 A 
ATOM     23  C   UNL     1      45.644   4.318  13.146  0.00  0.00    +0.000 A 
ATOM     24  C   UNL     1      44.999   3.829  12.007  0.00  0.00    +0.000 A 
ATOM     25  C   UNL     1      44.861   4.636  10.873  0.00  0.00    +0.000 A 
ATOM     26  C   UNL     1      45.356   5.944  10.910  0.00  0.00    +0.000 A 
BRANCH  25  27
ATOM     27  C   UNL     1      44.250   4.098   9.598  0.00  0.00    +0.000 C 
BRANCH  27  28
ATOM     28  C   UNL     1      45.239   3.425   8.682  0.00  0.00    +0.000 A 
ATOM     29  C   UNL     1      45.471   2.053   8.776  0.00  0.00    +0.000 A 
ATOM     30  C   UNL     1      46.432   1.476   7.953  0.00  0.00    +0.000 A 
ATOM     31  C   UNL     1      47.118   2.276   7.048  0.00  0.00    +0.000 A 
ATOM     32  C   UNL     1      46.804   3.623   6.995  0.00  0.00    +0.000 A 
ATOM     33  N   UNL     1      45.884   4.213   7.788  0.00  0.00    +0.000 NA
ENDBRANCH  27  28
ENDBRANCH  25  27
ENDBRANCH  20  21
ENDBRANCH   1  20
TORSDOF 8
ENDMDL
MODEL 4
REMARK VINA RESULT:    -7.210      2.889      5.481
REMARK INTER + INTRA:         -11.545
REMARK INTER:                 -10.726
REMARK INTRA:                  -0.819
REMARK UNBOUND:                -0.963
REMARK  Name = 
REMARK  9 active torsions:
REMARK  status: ('A' for Active; 'I' for Inactive)
REMARK    1  A    between atoms: C_1  and  N_2
REMARK    2  A    between atoms: N_2  and  C_3
REMARK    3  A    between atoms: C_3  and  C_4
REMARK    4  A    between atoms: C_4  and  N_5
REMARK    5  A    between atoms: N_5  and  C_6
REMARK    6  A    between atoms: C_6  and  C_7
REMARK    7  A    between atoms: C_11  and  C_12
REMARK    8  A    between atoms: C_12  and  C_13
REMARK    9  A    between atoms: C_20  and  C_22
REMARK                            x       y       z     vdW  Elec       q    Type
REMARK                         _______ _______ _______ _____ _____    ______ ____
ROOT
ATOM      1  N   UNL     1      47.446   5.859  13.787  0.00  0.00    +0.000 N 
ATOM      2  C   UNL     1      48.353   5.883  14.871  0.00  0.00    +0.000 C 
ATOM      3  O   UNL     1      49.390   6.549  14.810  0.00  0.00    +0.000 OA
ENDROOT
BRANCH   2   4
ATOM      4  C   UNL     1      48.087   5.089  16.096  0.00  0.00    +0.000 A 
ATOM      5  C   UNL     1      47.871   3.718  16.142  0.00  0.00    +0.000 A 
ATOM      6  S   UNL     1      47.584   3.107  17.710  0.00  0.00    +0.000 S 
ATOM      7  C   UNL     1      47.940   4.614  18.407  0.00  0.00    +0.000 A 
ATOM      8  N   UNL     1      48.002   4.751  19.757  0.00  0.00    +0.000 NA
ATOM      9  C   UNL     1      48.364   5.925  20.149  0.00  0.00    +0.000 A 
ATOM     10  N   UNL     1      48.623   6.983  19.315  0.00  0.00    +0.000 N 
ATOM     11  C   UNL     1      48.423   6.926  17.950  0.00  0.00    +0.000 A 
ATOM     12  O   UNL     1      48.422   7.950  17.274  0.00  0.00    +0.000 OA
ATOM     13  C   UNL     1      48.153   5.591  17.452  0.00  0.00    +0.000 A 
ATOM     14  H   UNL     1      48.830   7.895  19.690  0.00  0.00    +0.000 HD
ENDBRANCH   2   4
BRANCH   1  15
ATOM     15  C   UNL     1      47.764   6.691  12.606  0.00  0.00    +0.000 C 
BRANCH  15  16
ATOM     16  C   UNL     1      47.169   8.123  12.656  0.00  0.00    +0.000 C 
BRANCH  16  18
ATOM     17  C   UNL     1      48.201   9.722  14.184  0.00  0.00    +0.000 C 
ATOM     18  N   UNL     1      47.121   8.758  13.987  0.00  0.00    +0.000 NA
ATOM     19  H   UNL     1      46.236   9.264  14.055  0.00  0.00    +0.000 HD
ENDBRANCH  16  18
ENDBRANCH  15  16
ENDBRANCH   1  15
BRANCH   1  20
ATOM     20  C   UNL     1      46.225   5.079  13.858  0.00  0.00    +0.000 C 
BRANCH  20  21
ATOM     21  C   UNL     1      45.167   5.030  12.789  0.00  0.00    +0.000 A 
ATOM     22  C   UNL     1      43.966   5.734  12.925  0.00  0.00    +0.000 A 
ATOM     23  C   UNL     1      42.862   5.386  12.142  0.00  0.00    +0.000 A 
ATOM     24  C   UNL     1      42.942   4.327  11.235  0.00  0.00    +0.000 A 
ATOM     25  C   UNL     1      44.142   3.626  11.073  0.00  0.00    +0.000 A 
ATOM     26  C   UNL     1      45.261   4.022  11.814  0.00  0.00    +0.000 A 
BRANCH  25  27
ATOM     27  C   UNL     1      44.229   2.418  10.166  0.00  0.00    +0.000 C 
BRANCH  27  28
ATOM     28  C   UNL     1      45.214   2.572   9.036  0.00  0.00    +0.000 A 
ATOM     29  C   UNL     1      45.370   3.801   8.395  0.00  0.00    +0.000 A 
ATOM     30  C   UNL     1      46.247   3.891   7.320  0.00  0.00    +0.000 A 
ATOM     31  C   UNL     1      46.958   2.765   6.928  0.00  0.00    +0.000 A 
ATOM     32  C   UNL     1      46.771   1.592   7.639  0.00  0.00    +0.000 A 
ATOM     33  N   UNL     1      45.918   1.470   8.680  0.00  0.00    +0.000 NA
ENDBRANCH  27  28
ENDBRANCH  25  27
ENDBRANCH  20  21
ENDBRANCH   1  20
TORSDOF 8
ENDMDL
MODEL 5
REMARK VINA RESULT:    -6.806      3.085      8.352
REMARK INTER + INTRA:         -10.952
REMARK INTER:                  -9.455
REMARK INTRA:                  -1.497
REMARK UNBOUND:                -0.963
REMARK  Name = 
REMARK  9 active torsions:
REMARK  status: ('A' for Active; 'I' for Inactive)
REMARK    1  A    between atoms: C_1  and  N_2
REMARK    2  A    between atoms: N_2  and  C_3
REMARK    3  A    between atoms: C_3  and  C_4
REMARK    4  A    between atoms: C_4  and  N_5
REMARK    5  A    between atoms: N_5  and  C_6
REMARK    6  A    between atoms: C_6  and  C_7
REMARK    7  A    between atoms: C_11  and  C_12
REMARK    8  A    between atoms: C_12  and  C_13
REMARK    9  A    between atoms: C_20  and  C_22
REMARK                            x       y       z     vdW  Elec       q    Type
REMARK                         _______ _______ _______ _____ _____    ______ ____
ROOT
ATOM      1  N   UNL     1      46.382   7.509  12.517  0.00  0.00    +0.000 N 
ATOM      2  C   UNL     1      45.265   7.320  11.671  0.00  0.00    +0.000 C 
ATOM      3  O   UNL     1      44.390   8.185  11.581  0.00  0.00    +0.000 OA
ENDROOT
BRANCH   2   4
ATOM      4  C   UNL     1      45.112   6.067  10.892  0.00  0.00    +0.000 A 
ATOM      5  C   UNL     1      45.732   5.784   9.682  0.00  0.00    +0.000 A 
ATOM      6  S   UNL     1      45.341   4.253   9.036  0.00  0.00    +0.000 S 
ATOM      7  C   UNL     1      44.493   3.830  10.444  0.00  0.00    +0.000 A 
ATOM      8  N   UNL     1      43.999   2.574  10.599  0.00  0.00    +0.000 NA
ATOM      9  C   UNL     1      43.452   2.364  11.748  0.00  0.00    +0.000 A 
ATOM     10  N   UNL     1      43.313   3.308  12.734  0.00  0.00    +0.000 N 
ATOM     11  C   UNL     1      43.662   4.632  12.555  0.00  0.00    +0.000 A 
ATOM     12  O   UNL     1      43.297   5.489  13.354  0.00  0.00    +0.000 OA
ATOM     13  C   UNL     1      44.407   4.883  11.336  0.00  0.00    +0.000 A 
ATOM     14  H   UNL     1      42.809   3.098  13.580  0.00  0.00    +0.000 HD
ENDBRANCH   2   4
BRANCH   1  15
ATOM     15  C   UNL     1      46.481   8.791  13.248  0.00  0.00    +0.000 C 
BRANCH  15  16
ATOM     16  C   UNL     1      47.675   9.682  12.814  0.00  0.00    +0.000 C 
BRANCH  16  18
ATOM     17  C   UNL     1      46.163  11.234  11.691  0.00  0.00    +0.000 C 
ATOM     18  N   UNL     1      47.356  11.093  12.522  0.00  0.00    +0.000 NA
ATOM     19  H   UNL     1      47.173  11.559  13.413  0.00  0.00    +0.000 HD
ENDBRANCH  16  18
ENDBRANCH  15  16
ENDBRANCH   1  15
BRANCH   1  20
ATOM     20  C   UNL     1      47.414   6.495  12.622  0.00  0.00    +0.000 C 
BRANCH  20  21
ATOM     21  C   UNL     1      47.704   5.682  13.854  0.00  0.00    +0.000 A 
ATOM     22  C   UNL     1      46.983   4.517  14.141  0.00  0.00    +0.000 A 
ATOM     23  C   UNL     1      46.985   3.997  15.437  0.00  0.00    +0.000 A 
ATOM     24  C   UNL     1      47.689   4.643  16.458  0.00  0.00    +0.000 A 
ATOM     25  C   UNL     1      48.431   5.797  16.183  0.00  0.00    +0.000 A 
ATOM     26  C   UNL     1      48.475   6.274  14.869  0.00  0.00    +0.000 A 
BRANCH  25  27
ATOM     27  C   UNL     1      49.125   6.564  17.287  0.00  0.00    +0.000 C 
BRANCH  27  28
ATOM     28  C   UNL     1      48.754   6.107  18.674  0.00  0.00    +0.000 A 
ATOM     29  C   UNL     1      47.581   6.558  19.279  0.00  0.00    +0.000 A 
ATOM     30  C   UNL     1      47.300   6.160  20.581  0.00  0.00    +0.000 A 
ATOM     31  C   UNL     1      48.182   5.308  21.235  0.00  0.00    +0.000 A 
ATOM     32  C   UNL     1      49.306   4.879  20.552  0.00  0.00    +0.000 A 
ATOM     33  N   UNL     1      49.612   5.257  19.291  0.00  0.00    +0.000 NA
ENDBRANCH  27  28
ENDBRANCH  25  27
ENDBRANCH  20  21
ENDBRANCH   1  20
TORSDOF 8
ENDMDL
MODEL 6
REMARK VINA RESULT:    -6.767      3.162      5.315
REMARK INTER + INTRA:         -10.895
REMARK INTER:                  -8.997
REMARK INTRA:                  -1.898
REMARK UNBOUND:                -0.963
REMARK  Name = 
REMARK  9 active torsions:
REMARK  status: ('A' for Active; 'I' for Inactive)
REMARK    1  A    between atoms: C_1  and  N_2
REMARK    2  A    between atoms: N_2  and  C_3
REMARK    3  A    between atoms: C_3  and  C_4
REMARK    4  A    between atoms: C_4  and  N_5
REMARK    5  A    between atoms: N_5  and  C_6
REMARK    6  A    between atoms: C_6  and  C_7
REMARK    7  A    between atoms: C_11  and  C_12
REMARK    8  A    between atoms: C_12  and  C_13
REMARK    9  A    between atoms: C_20  and  C_22
REMARK                            x       y       z     vdW  Elec       q    Type
REMARK                         _______ _______ _______ _____ _____    ______ ____
ROOT
ATOM      1  N   UNL     1      49.484   8.648  12.456  0.00  0.00    +0.000 N 
ATOM      2  C   UNL     1      50.119   9.201  13.591  0.00  0.00    +0.000 C 
ATOM      3  O   UNL     1      50.377  10.405  13.645  0.00  0.00    +0.000 OA
ENDROOT
BRANCH   2   4
ATOM      4  C   UNL     1      50.508   8.337  14.734  0.00  0.00    +0.000 A 
ATOM      5  C   UNL     1      51.750   7.744  14.915  0.00  0.00    +0.000 A 
ATOM      6  S   UNL     1      51.876   6.800  16.332  0.00  0.00    +0.000 S 
ATOM      7  C   UNL     1      50.346   7.315  16.859  0.00  0.00    +0.000 A 
ATOM      8  N   UNL     1      49.889   6.967  18.090  0.00  0.00    +0.000 NA
ATOM      9  C   UNL     1      48.752   7.493  18.395  0.00  0.00    +0.000 A 
ATOM     10  N   UNL     1      48.012   8.296  17.564  0.00  0.00    +0.000 N 
ATOM     11  C   UNL     1      48.370   8.547  16.254  0.00  0.00    +0.000 A 
ATOM     12  O   UNL     1      47.571   9.054  15.473  0.00  0.00    +0.000 OA
ATOM     13  C   UNL     1      49.705   8.093  15.913  0.00  0.00    +0.000 A 
ATOM     14  H   UNL     1      47.097   8.616  17.837  0.00  0.00    +0.000 HD
ENDBRANCH   2   4
BRANCH   1  15
ATOM     15  C   UNL     1      49.105   9.570  11.364  0.00  0.00    +0.000 C 
BRANCH  15  16
ATOM     16  C   UNL     1      47.914  10.505  11.702  0.00  0.00    +0.000 C 
BRANCH  16  18
ATOM     17  C   UNL     1      45.573   9.983  12.153  0.00  0.00    +0.000 C 
ATOM     18  N   UNL     1      46.937   9.981  12.676  0.00  0.00    +0.000 NA
ATOM     19  H   UNL     1      47.192   9.012  12.878  0.00  0.00    +0.000 HD
ENDBRANCH  16  18
ENDBRANCH  15  16
ENDBRANCH   1  15
BRANCH   1  20
ATOM     20  C   UNL     1      49.177   7.231  12.393  0.00  0.00    +0.000 C 
BRANCH  20  21
ATOM     21  C   UNL     1      47.837   6.624  12.708  0.00  0.00    +0.000 A 
ATOM     22  C   UNL     1      47.654   5.814  13.835  0.00  0.00    +0.000 A 
ATOM     23  C   UNL     1      46.550   4.961  13.910  0.00  0.00    +0.000 A 
ATOM     24  C   UNL     1      45.633   4.897  12.858  0.00  0.00    +0.000 A 
ATOM     25  C   UNL     1      45.790   5.714  11.733  0.00  0.00    +0.000 A 
ATOM     26  C   UNL     1      46.863   6.611  11.695  0.00  0.00    +0.000 A 
BRANCH  25  27
ATOM     27  C   UNL     1      44.864   5.596  10.543  0.00  0.00    +0.000 C 
BRANCH  27  28
ATOM     28  C   UNL     1      45.257   4.516   9.568  0.00  0.00    +0.000 A 
ATOM     29  C   UNL     1      44.897   3.189   9.798  0.00  0.00    +0.000 A 
ATOM     30  C   UNL     1      45.326   2.213   8.906  0.00  0.00    +0.000 A 
ATOM     31  C   UNL     1      46.079   2.587   7.801  0.00  0.00    +0.000 A 
ATOM     32  C   UNL     1      46.363   3.930   7.626  0.00  0.00    +0.000 A 
ATOM     33  N   UNL     1      45.971   4.900   8.481  0.00  0.00    +0.000 NA
ENDBRANCH  27  28
ENDBRANCH  25  27
ENDBRANCH  20  21
ENDBRANCH   1  20
TORSDOF 8
ENDMDL
MODEL 7
REMARK VINA RESULT:    -6.583      3.443      8.242
REMARK INTER + INTRA:         -10.626
REMARK INTER:                  -8.833
REMARK INTRA:                  -1.793
REMARK UNBOUND:                -0.963
REMARK  Name = 
REMARK  9 active torsions:
REMARK  status: ('A' for Active; 'I' for Inactive)
REMARK    1  A    between atoms: C_1  and  N_2
REMARK    2  A    between atoms: N_2  and  C_3
REMARK    3  A    between atoms: C_3  and  C_4
REMARK    4  A    between atoms: C_4  and  N_5
REMARK    5  A    between atoms: N_5  and  C_6
REMARK    6  A    between atoms: C_6  and  C_7
REMARK    7  A    between atoms: C_11  and  C_12
REMARK    8  A    between atoms: C_12  and  C_13
REMARK    9  A    between atoms: C_20  and  C_22
REMARK                            x       y       z     vdW  Elec       q    Type
REMARK                         _______ _______ _______ _____ _____    ______ ____
ROOT
ATOM      1  N   UNL     1      46.409   6.968  12.641  0.00  0.00    +0.000 N 
ATOM      2  C   UNL     1      45.109   6.696  12.156  0.00  0.00    +0.000 C 
ATOM      3  O   UNL     1      44.314   7.612  11.937  0.00  0.00    +0.000 OA
ENDROOT
BRANCH   2   4
ATOM      4  C   UNL     1      44.668   5.298  11.922  0.00  0.00    +0.000 A 
ATOM      5  C   UNL     1      43.917   4.528  12.799  0.00  0.00    +0.000 A 
ATOM      6  S   UNL     1      43.581   2.952  12.235  0.00  0.00    +0.000 S 
ATOM      7  C   UNL     1      44.248   3.309  10.716  0.00  0.00    +0.000 A 
ATOM      8  N   UNL     1      44.167   2.410   9.700  0.00  0.00    +0.000 NA
ATOM      9  C   UNL     1      44.638   2.842   8.580  0.00  0.00    +0.000 A 
ATOM     10  N   UNL     1      45.223   4.069   8.397  0.00  0.00    +0.000 N 
ATOM     11  C   UNL     1      45.461   4.946   9.437  0.00  0.00    +0.000 A 
ATOM     12  O   UNL     1      46.202   5.912   9.284  0.00  0.00    +0.000 OA
ATOM     13  C   UNL     1      44.825   4.565  10.683  0.00  0.00    +0.000 A 
ATOM     14  H   UNL     1      45.637   4.316   7.513  0.00  0.00    +0.000 HD
ENDBRANCH   2   4
BRANCH   1  15
ATOM     15  C   UNL     1      46.789   8.384  12.831  0.00  0.00    +0.000 C 
BRANCH  15  16
ATOM     16  C   UNL     1      48.027   8.829  12.008  0.00  0.00    +0.000 C 
BRANCH  16  18
ATOM     17  C   UNL     1      50.343   8.206  12.463  0.00  0.00    +0.000 C 
ATOM     18  N   UNL     1      49.249   9.119  12.784  0.00  0.00    +0.000 NA
ATOM     19  H   UNL     1      49.551  10.065  12.540  0.00  0.00    +0.000 HD
ENDBRANCH  16  18
ENDBRANCH  15  16
ENDBRANCH   1  15
BRANCH   1  20
ATOM     20  C   UNL     1      47.347   5.890  12.895  0.00  0.00    +0.000 C 
BRANCH  20  21
ATOM     21  C   UNL     1      47.716   5.371  14.258  0.00  0.00    +0.000 A 
ATOM     22  C   UNL     1      46.971   4.360  14.875  0.00  0.00    +0.000 A 
ATOM     23  C   UNL     1      47.074   4.160  16.254  0.00  0.00    +0.000 A 
ATOM     24  C   UNL     1      47.905   4.976  17.028  0.00  0.00    +0.000 A 
ATOM     25  C   UNL     1      48.672   5.978  16.423  0.00  0.00    +0.000 A 
ATOM     26  C   UNL     1      48.611   6.129  15.033  0.00  0.00    +0.000 A 
BRANCH  25  27
ATOM     27  C   UNL     1      49.506   6.932  17.248  0.00  0.00    +0.000 C 
BRANCH  27  28
ATOM     28  C   UNL     1      48.700   7.797  18.183  0.00  0.00    +0.000 A 
ATOM     29  C   UNL     1      48.100   8.968  17.723  0.00  0.00    +0.000 A 
ATOM     30  C   UNL     1      47.411   9.770  18.626  0.00  0.00    +0.000 A 
ATOM     31  C   UNL     1      47.322   9.373  19.954  0.00  0.00    +0.000 A 
ATOM     32  C   UNL     1      47.917   8.179  20.322  0.00  0.00    +0.000 A 
ATOM     33  N   UNL     1      48.602   7.385  19.471  0.00  0.00    +0.000 NA
ENDBRANCH  27  28
ENDBRANCH  25  27
ENDBRANCH  20  21
ENDBRANCH   1  20
TORSDOF 8
ENDMDL
MODEL 8
REMARK VINA RESULT:    -6.555      3.869      7.451
REMARK INTER + INTRA:         -10.584
REMARK INTER:                  -8.522
REMARK INTRA:                  -2.062
REMARK UNBOUND:                -0.963
REMARK  Name = 
REMARK  9 active torsions:
REMARK  status: ('A' for Active; 'I' for Inactive)
REMARK    1  A    between atoms: C_1  and  N_2
REMARK    2  A    between atoms: N_2  and  C_3
REMARK    3  A    between atoms: C_3  and  C_4
REMARK    4  A    between atoms: C_4  and  N_5
REMARK    5  A    between atoms: N_5  and  C_6
REMARK    6  A    between atoms: C_6  and  C_7
REMARK    7  A    between atoms: C_11  and  C_12
REMARK    8  A    between atoms: C_12  and  C_13
REMARK    9  A    between atoms: C_20  and  C_22
REMARK                            x       y       z     vdW  Elec       q    Type
REMARK                         _______ _______ _______ _____ _____    ______ ____
ROOT
ATOM      1  N   UNL     1      49.436   7.471  16.759  0.00  0.00    +0.000 N 
ATOM      2  C   UNL     1      48.773   6.559  17.612  0.00  0.00    +0.000 C 
ATOM      3  O   UNL     1      48.280   6.937  18.677  0.00  0.00    +0.000 OA
ENDROOT
BRANCH   2   4
ATOM      4  C   UNL     1      48.678   5.122  17.253  0.00  0.00    +0.000 A 
ATOM      5  C   UNL     1      47.634   4.530  16.554  0.00  0.00    +0.000 A 
ATOM      6  S   UNL     1      47.822   2.851  16.307  0.00  0.00    +0.000 S 
ATOM      7  C   UNL     1      49.395   2.891  16.943  0.00  0.00    +0.000 A 
ATOM      8  N   UNL     1      50.180   1.783  16.910  0.00  0.00    +0.000 NA
ATOM      9  C   UNL     1      51.378   1.975  17.348  0.00  0.00    +0.000 A 
ATOM     10  N   UNL     1      51.844   3.160  17.858  0.00  0.00    +0.000 N 
ATOM     11  C   UNL     1      51.033   4.262  18.050  0.00  0.00    +0.000 A 
ATOM     12  O   UNL     1      51.415   5.208  18.732  0.00  0.00    +0.000 OA
ATOM     13  C   UNL     1      49.721   4.138  17.445  0.00  0.00    +0.000 A 
ATOM     14  H   UNL     1      52.769   3.223  18.251  0.00  0.00    +0.000 HD
ENDBRANCH   2   4
BRANCH   1  15
ATOM     15  C   UNL     1      49.476   8.891  17.170  0.00  0.00    +0.000 C 
BRANCH  15  16
ATOM     16  C   UNL     1      48.267   9.731  16.678  0.00  0.00    +0.000 C 
BRANCH  16  18
ATOM     17  C   UNL     1      49.807  11.027  15.298  0.00  0.00    +0.000 C 
ATOM     18  N   UNL     1      48.462  10.468  15.415  0.00  0.00    +0.000 NA
ATOM     19  H   UNL     1      48.333   9.805  14.648  0.00  0.00    +0.000 HD
ENDBRANCH  16  18
ENDBRANCH  15  16
ENDBRANCH   1  15
BRANCH   1  20
ATOM     20  C   UNL     1      50.014   7.028  15.504  0.00  0.00    +0.000 C 
BRANCH  20  21
ATOM     21  C   UNL     1      49.430   7.293  14.143  0.00  0.00    +0.000 A 
ATOM     22  C   UNL     1      50.149   7.996  13.170  0.00  0.00    +0.000 A 
ATOM     23  C   UNL     1      49.480   8.564  12.082  0.00  0.00    +0.000 A 
ATOM     24  C   UNL     1      48.092   8.451  11.968  0.00  0.00    +0.000 A 
ATOM     25  C   UNL     1      47.361   7.735  12.922  0.00  0.00    +0.000 A 
ATOM     26  C   UNL     1      48.046   7.116  13.973  0.00  0.00    +0.000 A 
BRANCH  25  27
ATOM     27  C   UNL     1      45.850   7.677  12.870  0.00  0.00    +0.000 C 
BRANCH  27  28
ATOM     28  C   UNL     1      45.305   6.343  12.428  0.00  0.00    +0.000 A 
ATOM     29  C   UNL     1      45.436   5.927  11.104  0.00  0.00    +0.000 A 
ATOM     30  C   UNL     1      44.871   4.717  10.721  0.00  0.00    +0.000 A 
ATOM     31  C   UNL     1      44.213   3.944  11.669  0.00  0.00    +0.000 A 
ATOM     32  C   UNL     1      44.157   4.413  12.971  0.00  0.00    +0.000 A 
ATOM     33  N   UNL     1      44.686   5.590  13.371  0.00  0.00    +0.000 NA
ENDBRANCH  27  28
ENDBRANCH  25  27
ENDBRANCH  20  21
ENDBRANCH   1  20
TORSDOF 8
ENDMDL
MODEL 9
REMARK VINA RESULT:    -6.526      3.340      5.269
REMARK INTER + INTRA:         -10.542
REMARK INTER:                  -8.874
REMARK INTRA:                  -1.668
REMARK UNBOUND:                -0.963
REMARK  Name = 
REMARK  9 active torsions:
REMARK  status: ('A' for Active; 'I' for Inactive)
REMARK    1  A    between atoms: C_1  and  N_2
REMARK    2  A    between atoms: N_2  and  C_3
REMARK    3  A    between atoms: C_3  and  C_4
REMARK    4  A    between atoms: C_4  and  N_5
REMARK    5  A    between atoms: N_5  and  C_6
REMARK    6  A    between atoms: C_6  and  C_7
REMARK    7  A    between atoms: C_11  and  C_12
REMARK    8  A    between atoms: C_12  and  C_13
REMARK    9  A    between atoms: C_20  and  C_22
REMARK                            x       y       z     vdW  Elec       q    Type
REMARK                         _______ _______ _______ _____ _____    ______ ____
ROOT
ATOM      1  N   UNL     1      49.233   7.052  13.654  0.00  0.00    +0.000 N 
ATOM      2  C   UNL     1      49.922   7.245  14.874  0.00  0.00    +0.000 C 
ATOM      3  O   UNL     1      51.059   7.722  14.886  0.00  0.00    +0.000 OA
ENDROOT
BRANCH   2   4
ATOM      4  C   UNL     1      49.297   6.857  16.163  0.00  0.00    +0.000 A 
ATOM      5  C   UNL     1      49.400   5.612  16.770  0.00  0.00    +0.000 A 
ATOM      6  S   UNL     1      48.556   5.483  18.249  0.00  0.00    +0.000 S 
ATOM      7  C   UNL     1      48.192   7.142  18.233  0.00  0.00    +0.000 A 
ATOM      8  N   UNL     1      47.579   7.722  19.297  0.00  0.00    +0.000 NA
ATOM      9  C   UNL     1      47.439   9.000  19.189  0.00  0.00    +0.000 A 
ATOM     10  N   UNL     1      47.814   9.739  18.095  0.00  0.00    +0.000 N 
ATOM     11  C   UNL     1      48.298   9.165  16.936  0.00  0.00    +0.000 A 
ATOM     12  O   UNL     1      48.385   9.821  15.902  0.00  0.00    +0.000 OA
ATOM     13  C   UNL     1      48.602   7.753  17.062  0.00  0.00    +0.000 A 
ATOM     14  H   UNL     1      47.609  10.723  18.045  0.00  0.00    +0.000 HD
ENDBRANCH   2   4
BRANCH   1  15
ATOM     15  C   UNL     1      49.907   7.481  12.410  0.00  0.00    +0.000 C 
BRANCH  15  16
ATOM     16  C   UNL     1      49.807   9.003  12.123  0.00  0.00    +0.000 C 
BRANCH  16  18
ATOM     17  C   UNL     1      50.557  10.983  13.337  0.00  0.00    +0.000 C 
ATOM     18  N   UNL     1      50.960   9.819  12.551  0.00  0.00    +0.000 NA
ATOM     19  H   UNL     1      51.550   9.232  13.143  0.00  0.00    +0.000 HD
ENDBRANCH  16  18
ENDBRANCH  15  16
ENDBRANCH   1  15
BRANCH   1  20
ATOM     20  C   UNL     1      47.894   6.494  13.638  0.00  0.00    +0.000 C 
BRANCH  20  21
ATOM     21  C   UNL     1      46.821   6.853  12.646  0.00  0.00    +0.000 A 
ATOM     22  C   UNL     1      46.275   8.140  12.603  0.00  0.00    +0.000 A 
ATOM     23  C   UNL     1      45.048   8.357  11.971  0.00  0.00    +0.000 A 
ATOM     24  C   UNL     1      44.350   7.291  11.395  0.00  0.00    +0.000 A 
ATOM     25  C   UNL     1      44.892   6.002  11.413  0.00  0.00    +0.000 A 
ATOM     26  C   UNL     1      46.150   5.805  11.991  0.00  0.00    +0.000 A 
BRANCH  25  27
ATOM     27  C   UNL     1      44.115   4.818  10.879  0.00  0.00    +0.000 C 
BRANCH  27  28
ATOM     28  C   UNL     1      44.842   4.042   9.812  0.00  0.00    +0.000 A 
ATOM     29  C   UNL     1      45.520   4.707   8.790  0.00  0.00    +0.000 A 
ATOM     30  C   UNL     1      46.132   3.958   7.792  0.00  0.00    +0.000 A 
ATOM     31  C   UNL     1      46.070   2.571   7.849  0.00  0.00    +0.000 A 
ATOM     32  C   UNL     1      45.407   1.989   8.915  0.00  0.00    +0.000 A 
ATOM     33  N   UNL     1      44.793   2.689   9.894  0.00  0.00    +0.000 NA
ENDBRANCH  27  28
ENDBRANCH  25  27
ENDBRANCH  20  21
ENDBRANCH   1  20
TORSDOF 8
ENDMDL
