MODEL 1
REMARK VINA RESULT:    -7.944      0.000      0.000
REMARK INTER + INTRA:         -11.917
REMARK INTER:                 -10.730
REMARK INTRA:                  -1.188
REMARK UNBOUND:                -1.188
REMARK  Name = 
REMARK  6 active torsions:
REMARK  status: ('A' for Active; 'I' for Inactive)
REMARK    1  A    between atoms: C_2  and  C_20
REMARK    2  A    between atoms: N_3  and  C_4
REMARK    3  A    between atoms: C_4  and  C_5
REMARK    4  A    between atoms: C_8  and  C_9
REMARK    5  A    between atoms: C_9  and  C_10
REMARK    6  A    between atoms: C_10  and  N_11
REMARK                            x       y       z     vdW  Elec       q    Type
REMARK                         _______ _______ _______ _____ _____    ______ ____
ROOT
ATOM      1  C   UNL     1      47.218   8.440  12.936  0.00  0.00    +0.000 C 
ENDROOT
BRANCH   1   2
ATOM      2  C   UNL     1      46.287   7.403  12.366  0.00  0.00    +0.000 A 
ATOM      3  C   UNL     1      45.006   7.262  12.900  0.00  0.00    +0.000 A 
ATOM      4  C   UNL     1      44.137   6.287  12.410  0.00  0.00    +0.000 A 
ATOM      5  C   UNL     1      44.523   5.415  11.379  0.00  0.00    +0.000 A 
ATOM      6  C   UNL     1      45.826   5.531  10.874  0.00  0.00    +0.000 A 
ATOM      7  C   UNL     1      46.700   6.511  11.363  0.00  0.00    +0.000 A 
BRANCH   5   8
ATOM      8  C   UNL     1      43.587   4.370  10.788  0.00  0.00    +0.000 C 
BRANCH   8   9
ATOM      9  C   UNL     1      44.296   3.294   9.958  0.00  0.00    +0.000 C 
BRANCH   9  10
ATOM     10  N   UNL     1      44.362   3.623   8.542  0.00  0.00    +0.000 N 
ATOM     11  C   UNL     1      45.415   2.946   7.916  0.00  0.00    +0.000 A 
ATOM     12  N   UNL     1      45.790   1.735   8.359  0.00  0.00    +0.000 NA
ATOM     13  C   UNL     1      46.839   1.148   7.750  0.00  0.00    +0.000 A 
ATOM     14  C   UNL     1      47.516   1.717   6.707  0.00  0.00    +0.000 A 
ATOM     15  C   UNL     1      47.056   2.952   6.321  0.00  0.00    +0.000 A 
ATOM     16  N   UNL     1      46.020   3.587   6.910  0.00  0.00    +0.000 NA
ATOM     17  H   UNL     1      44.502   4.602   8.316  0.00  0.00    +0.000 HD
ENDBRANCH   9  10
ENDBRANCH   8   9
ENDBRANCH   5   8
ENDBRANCH   1   2
BRANCH   1  20
ATOM     18  O   UNL     1      49.546   6.944  13.695  0.00  0.00    +0.000 OA
ATOM     19  C   UNL     1      48.696   7.251  14.521  0.00  0.00    +0.000 C 
ATOM     20  N   UNL     1      47.604   8.045  14.260  0.00  0.00    +0.000 N 
ATOM     21  H   UNL     1      46.869   8.078  14.950  0.00  0.00    +0.000 HD
BRANCH  19  22
ATOM     22  C   UNL     1      48.592   6.642  15.839  0.00  0.00    +0.000 A 
ATOM     23  C   UNL     1      49.081   7.248  16.980  0.00  0.00    +0.000 A 
ATOM     24  S   UNL     1      49.350   6.106  18.233  0.00  0.00    +0.000 S 
ATOM     25  C   UNL     1      48.690   4.840  17.298  0.00  0.00    +0.000 A 
ATOM     26  N   UNL     1      48.745   3.537  17.686  0.00  0.00    +0.000 NA
ATOM     27  C   UNL     1      48.160   2.719  16.871  0.00  0.00    +0.000 A 
ATOM     28  N   UNL     1      47.478   3.090  15.735  0.00  0.00    +0.000 N 
ATOM     29  C   UNL     1      47.375   4.392  15.320  0.00  0.00    +0.000 A 
ATOM     30  O   UNL     1      46.688   4.718  14.358  0.00  0.00    +0.000 OA
ATOM     31  C   UNL     1      48.137   5.315  16.131  0.00  0.00    +0.000 A 
ATOM     32  H   UNL     1      46.969   2.403  15.192  0.00  0.00    +0.000 HD
ENDBRANCH  19  22
ENDBRANCH   1  20
TORSDOF 6
ENDMDL
MODEL 2
REMARK VINA RESULT:    -7.797      1.606      2.030
REMARK INTER + INTRA:         -11.719
REMARK INTER:                 -10.805
REMARK INTRA:                  -0.914
REMARK UNBOUND:                -1.188
REMARK  Name = 
REMARK  6 active torsions:
REMARK  status: ('A' for Active; 'I' for Inactive)
REMARK    1  A    between atoms: C_2  and  C_20
REMARK    2  A    between atoms: N_3  and  C_4
REMARK    3  A    between atoms: C_4  and  C_5
REMARK    4  A    between atoms: C_8  and  C_9
REMARK    5  A    between atoms: C_9  and  C_10
REMARK    6  A    between atoms: C_10  and  N_11
REMARK                            x       y       z     vdW  Elec       q    Type
REMARK                         _______ _______ _______ _____ _____    ______ ____
ROOT
ATOM      1  C   UNL     1      48.697   6.849  13.604  0.00  0.00    +0.000 C 
ENDROOT
BRANCH   1   2
ATOM      2  C   UNL     1      47.418   6.354  12.983  0.00  0.00    +0.000 A 
ATOM      3  C   UNL     1      46.988   6.894  11.771  0.00  0.00    +0.000 A 
ATOM      4  C   UNL     1      45.790   6.475  11.194  0.00  0.00    +0.000 A 
ATOM      5  C   UNL     1      44.978   5.510  11.813  0.00  0.00    +0.000 A 
ATOM      6  C   UNL     1      45.392   5.000  13.051  0.00  0.00    +0.000 A 
ATOM      7  C   UNL     1      46.596   5.419  13.633  0.00  0.00    +0.000 A 
BRANCH   5   8
ATOM      8  C   UNL     1      43.688   4.994  11.189  0.00  0.00    +0.000 C 
BRANCH   8   9
ATOM      9  C   UNL     1      43.887   3.821  10.223  0.00  0.00    +0.000 C 
BRANCH   9  10
ATOM     10  N   UNL     1      44.193   4.252   8.867  0.00  0.00    +0.000 N 
ATOM     11  C   UNL     1      45.191   3.453   8.298  0.00  0.00    +0.000 A 
ATOM     12  N   UNL     1      45.297   2.161   8.650  0.00  0.00    +0.000 NA
ATOM     13  C   UNL     1      46.304   1.449   8.107  0.00  0.00    +0.000 A 
ATOM     14  C   UNL     1      47.198   1.974   7.215  0.00  0.00    +0.000 A 
ATOM     15  C   UNL     1      47.006   3.299   6.911  0.00  0.00    +0.000 A 
ATOM     16  N   UNL     1      46.022   4.057   7.441  0.00  0.00    +0.000 NA
ATOM     17  H   UNL     1      44.523   5.205   8.764  0.00  0.00    +0.000 HD
ENDBRANCH   9  10
ENDBRANCH   8   9
ENDBRANCH   5   8
ENDBRANCH   1   2
BRANCH   1  20
ATOM     18  O   UNL     1      50.523   6.536  15.794  0.00  0.00    +0.000 OA
ATOM     19  C   UNL     1      49.367   6.892  15.982  0.00  0.00    +0.000 C 
ATOM     20  N   UNL     1      48.459   7.158  14.984  0.00  0.00    +0.000 N 
ATOM     21  H   UNL     1      47.489   7.255  15.242  0.00  0.00    +0.000 HD
BRANCH  19  22
ATOM     22  C   UNL     1      48.716   6.871  17.284  0.00  0.00    +0.000 A 
ATOM     23  C   UNL     1      48.311   8.021  17.934  0.00  0.00    +0.000 A 
ATOM     24  S   UNL     1      48.132   7.762  19.620  0.00  0.00    +0.000 S 
ATOM     25  C   UNL     1      48.461   6.095  19.456  0.00  0.00    +0.000 A 
ATOM     26  N   UNL     1      48.634   5.273  20.527  0.00  0.00    +0.000 NA
ATOM     27  C   UNL     1      48.838   4.034  20.213  0.00  0.00    +0.000 A 
ATOM     28  N   UNL     1      48.831   3.534  18.932  0.00  0.00    +0.000 N 
ATOM     29  C   UNL     1      48.635   4.319  17.826  0.00  0.00    +0.000 A 
ATOM     30  O   UNL     1      48.539   3.847  16.699  0.00  0.00    +0.000 OA
ATOM     31  C   UNL     1      48.545   5.729  18.132  0.00  0.00    +0.000 A 
ATOM     32  H   UNL     1      48.910   2.537  18.768  0.00  0.00    +0.000 HD
ENDBRANCH  19  22
ENDBRANCH   1  20
TORSDOF 6
ENDMDL
MODEL 3
REMARK VINA RESULT:    -7.633      1.517      1.866
REMARK INTER + INTRA:         -11.497
REMARK INTER:                 -10.405
REMARK INTRA:                  -1.092
REMARK UNBOUND:                -1.188
REMARK  Name = 
REMARK  6 active torsions:
REMARK  status: ('A' for Active; 'I' for Inactive)
REMARK    1  A    between atoms: C_2  and  C_20
REMARK    2  A    between atoms: N_3  and  C_4
REMARK    3  A    between atoms: C_4  and  C_5
REMARK    4  A    between atoms: C_8  and  C_9
REMARK    5  A    between atoms: C_9  and  C_10
REMARK    6  A    between atoms: C_10  and  N_11
REMARK                            x       y       z     vdW  Elec       q    Type
REMARK                         _______ _______ _______ _____ _____    ______ ____
ROOT
ATOM      1  C   UNL     1      48.384   6.972  13.229  0.00  0.00    +0.000 C 
ENDROOT
BRANCH   1   2
ATOM      2  C   UNL     1      47.185   6.247  12.680  0.00  0.00    +0.000 A 
ATOM      3  C   UNL     1      46.690   5.129  13.353  0.00  0.00    +0.000 A 
ATOM      4  C   UNL     1      45.601   4.421  12.847  0.00  0.00    +0.000 A 
ATOM      5  C   UNL     1      44.976   4.800  11.647  0.00  0.00    +0.000 A 
ATOM      6  C   UNL     1      45.502   5.898  10.951  0.00  0.00    +0.000 A 
ATOM      7  C   UNL     1      46.596   6.612  11.459  0.00  0.00    +0.000 A 
BRANCH   5   8
ATOM      8  C   UNL     1      43.757   4.080  11.089  0.00  0.00    +0.000 C 
BRANCH   8   9
ATOM      9  C   UNL     1      44.006   3.375   9.750  0.00  0.00    +0.000 C 
BRANCH   9  10
ATOM     10  N   UNL     1      45.028   2.344   9.837  0.00  0.00    +0.000 N 
ATOM     11  C   UNL     1      45.820   2.322   8.682  0.00  0.00    +0.000 A 
ATOM     12  N   UNL     1      46.044   3.459   8.002  0.00  0.00    +0.000 NA
ATOM     13  C   UNL     1      46.774   3.373   6.873  0.00  0.00    +0.000 A 
ATOM     14  C   UNL     1      47.302   2.201   6.407  0.00  0.00    +0.000 A 
ATOM     15  C   UNL     1      47.025   1.094   7.172  0.00  0.00    +0.000 A 
ATOM     16  N   UNL     1      46.285   1.127   8.301  0.00  0.00    +0.000 NA
ATOM     17  H   UNL     1      44.696   1.393   9.950  0.00  0.00    +0.000 HD
ENDBRANCH   9  10
ENDBRANCH   8   9
ENDBRANCH   5   8
ENDBRANCH   1   2
BRANCH   1  20
ATOM     18  O   UNL     1      48.479   8.216  15.813  0.00  0.00    +0.000 OA
ATOM     19  C   UNL     1      48.870   7.067  15.650  0.00  0.00    +0.000 C 
ATOM     20  N   UNL     1      48.771   6.367  14.471  0.00  0.00    +0.000 N 
ATOM     21  H   UNL     1      49.292   5.508  14.386  0.00  0.00    +0.000 HD
BRANCH  19  22
ATOM     22  C   UNL     1      49.697   6.351  16.611  0.00  0.00    +0.000 A 
ATOM     23  C   UNL     1      50.872   6.873  17.117  0.00  0.00    +0.000 A 
ATOM     24  S   UNL     1      51.896   5.639  17.730  0.00  0.00    +0.000 S 
ATOM     25  C   UNL     1      50.717   4.439  17.442  0.00  0.00    +0.000 A 
ATOM     26  N   UNL     1      50.975   3.110  17.582  0.00  0.00    +0.000 NA
ATOM     27  C   UNL     1      49.952   2.348  17.358  0.00  0.00    +0.000 A 
ATOM     28  N   UNL     1      48.685   2.796  17.061  0.00  0.00    +0.000 N 
ATOM     29  C   UNL     1      48.374   4.124  16.936  0.00  0.00    +0.000 A 
ATOM     30  O   UNL     1      47.225   4.512  16.763  0.00  0.00    +0.000 OA
ATOM     31  C   UNL     1      49.524   4.995  17.040  0.00  0.00    +0.000 A 
ATOM     32  H   UNL     1      47.914   2.144  16.987  0.00  0.00    +0.000 HD
ENDBRANCH  19  22
ENDBRANCH   1  20
TORSDOF 6
ENDMDL
MODEL 4
REMARK VINA RESULT:    -7.521      1.947      2.616
REMARK INTER + INTRA:         -11.347
REMARK INTER:                 -10.448
REMARK INTRA:                  -0.899
REMARK UNBOUND:                -1.188
REMARK  Name = 
REMARK  6 active torsions:
REMARK  status: ('A' for Active; 'I' for Inactive)
REMARK    1  A    between atoms: C_2  and  C_20
REMARK    2  A    between atoms: N_3  and  C_4
REMARK    3  A    between atoms: C_4  and  C_5
REMARK    4  A    between atoms: C_8  and  C_9
REMARK    5  A    between atoms: C_9  and  C_10
REMARK    6  A    between atoms: C_10  and  N_11
REMARK                            x       y       z     vdW  Elec       q    Type
REMARK                         _______ _______ _______ _____ _____    ______ ____
ROOT
ATOM      1  C   UNL     1      47.951   7.871  13.627  0.00  0.00    +0.000 C 
ENDROOT
BRANCH   1   2
ATOM      2  C   UNL     1      46.827   7.200  12.883  0.00  0.00    +0.000 A 
ATOM      3  C   UNL     1      45.755   7.964  12.424  0.00  0.00    +0.000 A 
ATOM      4  C   UNL     1      44.686   7.361  11.761  0.00  0.00    +0.000 A 
ATOM      5  C   UNL     1      44.649   5.974  11.546  0.00  0.00    +0.000 A 
ATOM      6  C   UNL     1      45.708   5.203  12.046  0.00  0.00    +0.000 A 
ATOM      7  C   UNL     1      46.783   5.807  12.711  0.00  0.00    +0.000 A 
BRANCH   5   8
ATOM      8  C   UNL     1      43.523   5.286  10.786  0.00  0.00    +0.000 C 
BRANCH   8   9
ATOM      9  C   UNL     1      43.963   4.041  10.008  0.00  0.00    +0.000 C 
BRANCH   9  10
ATOM     10  N   UNL     1      44.291   4.328   8.620  0.00  0.00    +0.000 N 
ATOM     11  C   UNL     1      45.269   3.448   8.142  0.00  0.00    +0.000 A 
ATOM     12  N   UNL     1      45.334   2.194   8.619  0.00  0.00    +0.000 NA
ATOM     13  C   UNL     1      46.323   1.403   8.159  0.00  0.00    +0.000 A 
ATOM     14  C   UNL     1      47.239   1.812   7.229  0.00  0.00    +0.000 A 
ATOM     15  C   UNL     1      47.089   3.107   6.796  0.00  0.00    +0.000 A 
ATOM     16  N   UNL     1      46.125   3.941   7.239  0.00  0.00    +0.000 NA
ATOM     17  H   UNL     1      44.651   5.256   8.428  0.00  0.00    +0.000 HD
ENDBRANCH   9  10
ENDBRANCH   8   9
ENDBRANCH   5   8
ENDBRANCH   1   2
BRANCH   1  20
ATOM     18  O   UNL     1      50.224   6.887  15.076  0.00  0.00    +0.000 OA
ATOM     19  C   UNL     1      49.100   6.848  15.561  0.00  0.00    +0.000 C 
ATOM     20  N   UNL     1      47.977   7.383  14.976  0.00  0.00    +0.000 N 
ATOM     21  H   UNL     1      47.079   7.131  15.359  0.00  0.00    +0.000 HD
BRANCH  19  22
ATOM     22  C   UNL     1      48.747   6.037  16.717  0.00  0.00    +0.000 A 
ATOM     23  C   UNL     1      48.280   4.741  16.604  0.00  0.00    +0.000 A 
ATOM     24  S   UNL     1      47.417   4.258  18.006  0.00  0.00    +0.000 S 
ATOM     25  C   UNL     1      47.785   5.721  18.806  0.00  0.00    +0.000 A 
ATOM     26  N   UNL     1      47.229   6.063  20.000  0.00  0.00    +0.000 NA
ATOM     27  C   UNL     1      47.654   7.191  20.475  0.00  0.00    +0.000 A 
ATOM     28  N   UNL     1      48.621   7.978  19.893  0.00  0.00    +0.000 N 
ATOM     29  C   UNL     1      49.226   7.659  18.705  0.00  0.00    +0.000 A 
ATOM     30  O   UNL     1      50.149   8.321  18.245  0.00  0.00    +0.000 OA
ATOM     31  C   UNL     1      48.673   6.480  18.078  0.00  0.00    +0.000 A 
ATOM     32  H   UNL     1      48.967   8.803  20.367  0.00  0.00    +0.000 HD
ENDBRANCH  19  22
ENDBRANCH   1  20
TORSDOF 6
ENDMDL
MODEL 5
REMARK VINA RESULT:    -7.449      2.318      2.812
REMARK INTER + INTRA:         -11.250
REMARK INTER:                 -10.419
REMARK INTRA:                  -0.831
REMARK UNBOUND:                -1.188
REMARK  Name = 
REMARK  6 active torsions:
REMARK  status: ('A' for Active; 'I' for Inactive)
REMARK    1  A    between atoms: C_2  and  C_20
REMARK    2  A    between atoms: N_3  and  C_4
REMARK    3  A    between atoms: C_4  and  C_5
REMARK    4  A    between atoms: C_8  and  C_9
REMARK    5  A    between atoms: C_9  and  C_10
REMARK    6  A    between atoms: C_10  and  N_11
REMARK                            x       y       z     vdW  Elec       q    Type
REMARK                         _______ _______ _______ _____ _____    ______ ____
ROOT
ATOM      1  C   UNL     1      48.602   6.705  14.275  0.00  0.00    +0.000 C 
ENDROOT
BRANCH   1   2
ATOM      2  C   UNL     1      47.321   6.379  13.554  0.00  0.00    +0.000 A 
ATOM      3  C   UNL     1      46.700   5.151  13.780  0.00  0.00    +0.000 A 
ATOM      4  C   UNL     1      45.531   4.812  13.099  0.00  0.00    +0.000 A 
ATOM      5  C   UNL     1      44.950   5.684  12.164  0.00  0.00    +0.000 A 
ATOM      6  C   UNL     1      45.600   6.900  11.908  0.00  0.00    +0.000 A 
ATOM      7  C   UNL     1      46.775   7.243  12.592  0.00  0.00    +0.000 A 
BRANCH   5   8
ATOM      8  C   UNL     1      43.651   5.369  11.437  0.00  0.00    +0.000 C 
BRANCH   8   9
ATOM      9  C   UNL     1      43.751   4.192  10.460  0.00  0.00    +0.000 C 
BRANCH   9  10
ATOM     10  N   UNL     1      44.095   4.607   9.109  0.00  0.00    +0.000 N 
ATOM     11  C   UNL     1      45.029   3.734   8.537  0.00  0.00    +0.000 A 
ATOM     12  N   UNL     1      45.030   2.435   8.879  0.00  0.00    +0.000 NA
ATOM     13  C   UNL     1      45.979   1.649   8.334  0.00  0.00    +0.000 A 
ATOM     14  C   UNL     1      46.915   2.108   7.449  0.00  0.00    +0.000 A 
ATOM     15  C   UNL     1      46.831   3.447   7.155  0.00  0.00    +0.000 A 
ATOM     16  N   UNL     1      45.909   4.277   7.688  0.00  0.00    +0.000 NA
ATOM     17  H   UNL     1      44.501   5.531   9.014  0.00  0.00    +0.000 HD
ENDBRANCH   9  10
ENDBRANCH   8   9
ENDBRANCH   5   8
ENDBRANCH   1   2
BRANCH   1  20
ATOM     18  O   UNL     1      50.113   6.875  16.709  0.00  0.00    +0.000 OA
ATOM     19  C   UNL     1      49.037   7.449  16.591  0.00  0.00    +0.000 C 
ATOM     20  N   UNL     1      48.300   7.497  15.432  0.00  0.00    +0.000 N 
ATOM     21  H   UNL     1      47.348   7.825  15.492  0.00  0.00    +0.000 HD
BRANCH  19  22
ATOM     22  C   UNL     1      48.274   7.972  17.715  0.00  0.00    +0.000 A 
ATOM     23  C   UNL     1      48.117   9.325  17.944  0.00  0.00    +0.000 A 
ATOM     24  S   UNL     1      47.706   9.644  19.579  0.00  0.00    +0.000 S 
ATOM     25  C   UNL     1      47.605   7.978  19.938  0.00  0.00    +0.000 A 
ATOM     26  N   UNL     1      47.449   7.509  21.206  0.00  0.00    +0.000 NA
ATOM     27  C   UNL     1      47.355   6.220  21.283  0.00  0.00    +0.000 A 
ATOM     28  N   UNL     1      47.349   5.364  20.206  0.00  0.00    +0.000 N 
ATOM     29  C   UNL     1      47.478   5.793  18.912  0.00  0.00    +0.000 A 
ATOM     30  O   UNL     1      47.378   5.030  17.958  0.00  0.00    +0.000 OA
ATOM     31  C   UNL     1      47.726   7.212  18.800  0.00  0.00    +0.000 A 
ATOM     32  H   UNL     1      47.182   4.373  20.338  0.00  0.00    +0.000 HD
ENDBRANCH  19  22
ENDBRANCH   1  20
TORSDOF 6
ENDMDL
MODEL 6
REMARK VINA RESULT:    -6.966      2.002      3.473
REMARK INTER + INTRA:         -10.597
REMARK INTER:                  -9.618
REMARK INTRA:                  -0.979
REMARK UNBOUND:                -1.188
REMARK  Name = 
REMARK  6 active torsions:
REMARK  status: ('A' for Active; 'I' for Inactive)
REMARK    1  A    between atoms: C_2  and  C_20
REMARK    2  A    between atoms: N_3  and  C_4
REMARK    3  A    between atoms: C_4  and  C_5
REMARK    4  A    between atoms: C_8  and  C_9
REMARK    5  A    between atoms: C_9  and  C_10
REMARK    6  A    between atoms: C_10  and  N_11
REMARK                            x       y       z     vdW  Elec       q    Type
REMARK                         _______ _______ _______ _____ _____    ______ ____
ROOT
ATOM      1  C   UNL     1      47.567   4.098  15.768  0.00  0.00    +0.000 C 
ENDROOT
BRANCH   1   2
ATOM      2  C   UNL     1      46.903   4.476  14.471  0.00  0.00    +0.000 A 
ATOM      3  C   UNL     1      46.328   3.482  13.678  0.00  0.00    +0.000 A 
ATOM      4  C   UNL     1      45.736   3.803  12.457  0.00  0.00    +0.000 A 
ATOM      5  C   UNL     1      45.709   5.125  11.983  0.00  0.00    +0.000 A 
ATOM      6  C   UNL     1      46.325   6.115  12.762  0.00  0.00    +0.000 A 
ATOM      7  C   UNL     1      46.919   5.795  13.990  0.00  0.00    +0.000 A 
BRANCH   5   8
ATOM      8  C   UNL     1      45.032   5.520  10.678  0.00  0.00    +0.000 C 
BRANCH   8   9
ATOM      9  C   UNL     1      44.161   4.416  10.067  0.00  0.00    +0.000 C 
BRANCH   9  10
ATOM     10  N   UNL     1      44.192   4.411   8.613  0.00  0.00    +0.000 N 
ATOM     11  C   UNL     1      45.092   3.454   8.131  0.00  0.00    +0.000 A 
ATOM     12  N   UNL     1      45.306   2.325   8.828  0.00  0.00    +0.000 NA
ATOM     13  C   UNL     1      46.218   1.459   8.343  0.00  0.00    +0.000 A 
ATOM     14  C   UNL     1      46.909   1.669   7.182  0.00  0.00    +0.000 A 
ATOM     15  C   UNL     1      46.618   2.847   6.537  0.00  0.00    +0.000 A 
ATOM     16  N   UNL     1      45.727   3.752   6.992  0.00  0.00    +0.000 NA
ATOM     17  H   UNL     1      44.464   5.281   8.168  0.00  0.00    +0.000 HD
ENDBRANCH   9  10
ENDBRANCH   8   9
ENDBRANCH   5   8
ENDBRANCH   1   2
BRANCH   1  20
ATOM     18  O   UNL     1      50.169   4.534  16.895  0.00  0.00    +0.000 OA
ATOM     19  C   UNL     1      49.285   5.374  17.002  0.00  0.00    +0.000 C 
ATOM     20  N   UNL     1      48.047   5.286  16.412  0.00  0.00    +0.000 N 
ATOM     21  H   UNL     1      47.331   5.928  16.718  0.00  0.00    +0.000 HD
BRANCH  19  22
ATOM     22  C   UNL     1      49.332   6.480  17.949  0.00  0.00    +0.000 A 
ATOM     23  C   UNL     1      49.605   6.300  19.291  0.00  0.00    +0.000 A 
ATOM     24  S   UNL     1      49.032   7.617  20.231  0.00  0.00    +0.000 S 
ATOM     25  C   UNL     1      48.549   8.476  18.838  0.00  0.00    +0.000 A 
ATOM     26  N   UNL     1      47.827   9.628  18.900  0.00  0.00    +0.000 NA
ATOM     27  C   UNL     1      47.584  10.161  17.746  0.00  0.00    +0.000 A 
ATOM     28  N   UNL     1      48.041   9.677  16.542  0.00  0.00    +0.000 N 
ATOM     29  C   UNL     1      48.791   8.535  16.433  0.00  0.00    +0.000 A 
ATOM     30  O   UNL     1      49.268   8.167  15.367  0.00  0.00    +0.000 OA
ATOM     31  C   UNL     1      48.962   7.840  17.689  0.00  0.00    +0.000 A 
ATOM     32  H   UNL     1      47.885  10.196  15.686  0.00  0.00    +0.000 HD
ENDBRANCH  19  22
ENDBRANCH   1  20
TORSDOF 6
ENDMDL
MODEL 7
REMARK VINA RESULT:    -6.770      4.393      9.182
REMARK INTER + INTRA:         -10.332
REMARK INTER:                  -9.524
REMARK INTRA:                  -0.808
REMARK UNBOUND:                -1.188
REMARK  Name = 
REMARK  6 active torsions:
REMARK  status: ('A' for Active; 'I' for Inactive)
REMARK    1  A    between atoms: C_2  and  C_20
REMARK    2  A    between atoms: N_3  and  C_4
REMARK    3  A    between atoms: C_4  and  C_5
REMARK    4  A    between atoms: C_8  and  C_9
REMARK    5  A    between atoms: C_9  and  C_10
REMARK    6  A    between atoms: C_10  and  N_11
REMARK                            x       y       z     vdW  Elec       q    Type
REMARK                         _______ _______ _______ _____ _____    ______ ____
ROOT
ATOM      1  C   UNL     1      47.006   3.622  16.985  0.00  0.00    +0.000 C 
ENDROOT
BRANCH   1   2
ATOM      2  C   UNL     1      48.476   3.461  17.268  0.00  0.00    +0.000 A 
ATOM      3  C   UNL     1      49.215   4.558  17.709  0.00  0.00    +0.000 A 
ATOM      4  C   UNL     1      50.584   4.442  17.946  0.00  0.00    +0.000 A 
ATOM      5  C   UNL     1      51.262   3.229  17.741  0.00  0.00    +0.000 A 
ATOM      6  C   UNL     1      50.524   2.139  17.257  0.00  0.00    +0.000 A 
ATOM      7  C   UNL     1      49.148   2.253  17.019  0.00  0.00    +0.000 A 
BRANCH   5   8
ATOM      8  C   UNL     1      52.745   3.052  18.033  0.00  0.00    +0.000 C 
BRANCH   8   9
ATOM      9  C   UNL     1      53.298   1.675  17.648  0.00  0.00    +0.000 C 
BRANCH   9  10
ATOM     10  N   UNL     1      53.750   0.906  18.798  0.00  0.00    +0.000 N 
ATOM     11  C   UNL     1      54.233  -0.348  18.406  0.00  0.00    +0.000 A 
ATOM     12  N   UNL     1      54.817  -0.496  17.206  0.00  0.00    +0.000 NA
ATOM     13  C   UNL     1      55.222  -1.734  16.860  0.00  0.00    +0.000 A 
ATOM     14  C   UNL     1      55.080  -2.824  17.673  0.00  0.00    +0.000 A 
ATOM     15  C   UNL     1      54.478  -2.573  18.882  0.00  0.00    +0.000 A 
ATOM     16  N   UNL     1      54.042  -1.355  19.266  0.00  0.00    +0.000 NA
ATOM     17  H   UNL     1      53.055   0.714  19.510  0.00  0.00    +0.000 HD
ENDBRANCH   9  10
ENDBRANCH   8   9
ENDBRANCH   5   8
ENDBRANCH   1   2
BRANCH   1  20
ATOM     18  O   UNL     1      47.316   3.165  14.169  0.00  0.00    +0.000 OA
ATOM     19  C   UNL     1      47.090   4.286  14.606  0.00  0.00    +0.000 C 
ATOM     20  N   UNL     1      46.834   4.574  15.926  0.00  0.00    +0.000 N 
ATOM     21  H   UNL     1      46.854   5.541  16.210  0.00  0.00    +0.000 HD
BRANCH  19  22
ATOM     22  C   UNL     1      47.280   5.507  13.836  0.00  0.00    +0.000 A 
ATOM     23  C   UNL     1      48.245   6.444  14.150  0.00  0.00    +0.000 A 
ATOM     24  S   UNL     1      47.872   7.981  13.483  0.00  0.00    +0.000 S 
ATOM     25  C   UNL     1      46.505   7.359  12.671  0.00  0.00    +0.000 A 
ATOM     26  N   UNL     1      45.609   8.157  12.028  0.00  0.00    +0.000 NA
ATOM     27  C   UNL     1      44.656   7.509  11.437  0.00  0.00    +0.000 A 
ATOM     28  N   UNL     1      44.549   6.139  11.384  0.00  0.00    +0.000 N 
ATOM     29  C   UNL     1      45.441   5.297  11.995  0.00  0.00    +0.000 A 
ATOM     30  O   UNL     1      45.385   4.080  11.863  0.00  0.00    +0.000 OA
ATOM     31  C   UNL     1      46.436   5.989  12.782  0.00  0.00    +0.000 A 
ATOM     32  H   UNL     1      43.825   5.700  10.828  0.00  0.00    +0.000 HD
ENDBRANCH  19  22
ENDBRANCH   1  20
TORSDOF 6
ENDMDL
MODEL 8
REMARK VINA RESULT:    -6.617      3.288      4.769
REMARK INTER + INTRA:         -10.126
REMARK INTER:                  -9.209
REMARK INTRA:                  -0.917
REMARK UNBOUND:                -1.188
REMARK  Name = 
REMARK  6 active torsions:
REMARK  status: ('A' for Active; 'I' for Inactive)
REMARK    1  A    between atoms: C_2  and  C_20
REMARK    2  A    between atoms: N_3  and  C_4
REMARK    3  A    between atoms: C_4  and  C_5
REMARK    4  A    between atoms: C_8  and  C_9
REMARK    5  A    between atoms: C_9  and  C_10
REMARK    6  A    between atoms: C_10  and  N_11
REMARK                            x       y       z     vdW  Elec       q    Type
REMARK                         _______ _______ _______ _____ _____    ______ ____
ROOT
ATOM      1  C   UNL     1      48.291   6.346  14.341  0.00  0.00    +0.000 C 
ENDROOT
BRANCH   1   2
ATOM      2  C   UNL     1      47.099   6.044  13.472  0.00  0.00    +0.000 A 
ATOM      3  C   UNL     1      46.208   5.041  13.853  0.00  0.00    +0.000 A 
ATOM      4  C   UNL     1      45.115   4.720  13.049  0.00  0.00    +0.000 A 
ATOM      5  C   UNL     1      44.883   5.385  11.833  0.00  0.00    +0.000 A 
ATOM      6  C   UNL     1      45.804   6.363  11.432  0.00  0.00    +0.000 A 
ATOM      7  C   UNL     1      46.903   6.687  12.240  0.00  0.00    +0.000 A 
BRANCH   5   8
ATOM      8  C   UNL     1      43.676   5.095  10.952  0.00  0.00    +0.000 C 
BRANCH   8   9
ATOM      9  C   UNL     1      43.859   3.893  10.017  0.00  0.00    +0.000 C 
BRANCH   9  10
ATOM     10  N   UNL     1      44.221   4.281   8.662  0.00  0.00    +0.000 N 
ATOM     11  C   UNL     1      45.237   3.461   8.158  0.00  0.00    +0.000 A 
ATOM     12  N   UNL     1      45.321   2.180   8.553  0.00  0.00    +0.000 NA
ATOM     13  C   UNL     1      46.346   1.447   8.073  0.00  0.00    +0.000 A 
ATOM     14  C   UNL     1      47.277   1.941   7.202  0.00  0.00    +0.000 A 
ATOM     15  C   UNL     1      47.105   3.258   6.851  0.00  0.00    +0.000 A 
ATOM     16  N   UNL     1      46.105   4.035   7.318  0.00  0.00    +0.000 NA
ATOM     17  H   UNL     1      44.560   5.229   8.543  0.00  0.00    +0.000 HD
ENDBRANCH   9  10
ENDBRANCH   8   9
ENDBRANCH   5   8
ENDBRANCH   1   2
BRANCH   1  20
ATOM     18  O   UNL     1      49.719   8.606  15.384  0.00  0.00    +0.000 OA
ATOM     19  C   UNL     1      49.757   8.329  14.192  0.00  0.00    +0.000 C 
ATOM     20  N   UNL     1      49.183   7.214  13.629  0.00  0.00    +0.000 N 
ATOM     21  H   UNL     1      49.105   7.180  12.624  0.00  0.00    +0.000 HD
BRANCH  19  22
ATOM     22  C   UNL     1      50.220   9.250  13.163  0.00  0.00    +0.000 A 
ATOM     23  C   UNL     1      49.399  10.203  12.592  0.00  0.00    +0.000 A 
ATOM     24  S   UNL     1      49.998  10.719  11.069  0.00  0.00    +0.000 S 
ATOM     25  C   UNL     1      51.410   9.775  11.241  0.00  0.00    +0.000 A 
ATOM     26  N   UNL     1      52.307   9.607  10.231  0.00  0.00    +0.000 NA
ATOM     27  C   UNL     1      53.336   8.891  10.554  0.00  0.00    +0.000 A 
ATOM     28  N   UNL     1      53.575   8.373  11.806  0.00  0.00    +0.000 N 
ATOM     29  C   UNL     1      52.713   8.539  12.859  0.00  0.00    +0.000 A 
ATOM     30  O   UNL     1      52.982   8.152  13.990  0.00  0.00    +0.000 OA
ATOM     31  C   UNL     1      51.488   9.214  12.495  0.00  0.00    +0.000 A 
ATOM     32  H   UNL     1      54.446   7.897  12.009  0.00  0.00    +0.000 HD
ENDBRANCH  19  22
ENDBRANCH   1  20
TORSDOF 6
ENDMDL
MODEL 9
REMARK VINA RESULT:    -6.545      3.979      6.418
REMARK INTER + INTRA:         -10.028
REMARK INTER:                  -9.709
REMARK INTRA:                  -0.319
REMARK UNBOUND:                -1.188
REMARK  Name = 
REMARK  6 active torsions:
REMARK  status: ('A' for Active; 'I' for Inactive)
REMARK    1  A    between atoms: C_2  and  C_20
REMARK    2  A    between atoms: N_3  and  C_4
REMARK    3  A    between atoms: C_4  and  C_5
REMARK    4  A    between atoms: C_8  and  C_9
REMARK    5  A    between atoms: C_9  and  C_10
REMARK    6  A    between atoms: C_10  and  N_11
REMARK                            x       y       z     vdW  Elec       q    Type
REMARK                         _______ _______ _______ _____ _____    ______ ____
ROOT
ATOM      1  C   UNL     1      46.028   4.969  13.437  0.00  0.00    +0.000 C 
ENDROOT
BRANCH   1   2
ATOM      2  C   UNL     1      45.836   6.372  12.925  0.00  0.00    +0.000 A 
ATOM      3  C   UNL     1      44.819   6.635  12.008  0.00  0.00    +0.000 A 
ATOM      4  C   UNL     1      44.642   7.919  11.494  0.00  0.00    +0.000 A 
ATOM      5  C   UNL     1      45.482   8.980  11.872  0.00  0.00    +0.000 A 
ATOM      6  C   UNL     1      46.530   8.703  12.762  0.00  0.00    +0.000 A 
ATOM      7  C   UNL     1      46.709   7.413  13.280  0.00  0.00    +0.000 A 
BRANCH   5   8
ATOM      8  C   UNL     1      45.291  10.404  11.369  0.00  0.00    +0.000 C 
BRANCH   8   9
ATOM      9  C   UNL     1      43.835  10.763  11.049  0.00  0.00    +0.000 C 
BRANCH   9  10
ATOM     10  N   UNL     1      43.013  10.906  12.240  0.00  0.00    +0.000 N 
ATOM     11  C   UNL     1      41.664  11.068  11.905  0.00  0.00    +0.000 A 
ATOM     12  N   UNL     1      41.175  10.488  10.796  0.00  0.00    +0.000 NA
ATOM     13  C   UNL     1      39.881  10.715  10.495  0.00  0.00    +0.000 A 
ATOM     14  C   UNL     1      39.055  11.485  11.267  0.00  0.00    +0.000 A 
ATOM     15  C   UNL     1      39.643  12.030  12.382  0.00  0.00    +0.000 A 
ATOM     16  N   UNL     1      40.937  11.845  12.716  0.00  0.00    +0.000 NA
ATOM     17  H   UNL     1      43.234  11.689  12.845  0.00  0.00    +0.000 HD
ENDBRANCH   9  10
ENDBRANCH   8   9
ENDBRANCH   5   8
ENDBRANCH   1   2
BRANCH   1  20
ATOM     18  O   UNL     1      47.501   2.806  14.613  0.00  0.00    +0.000 OA
ATOM     19  C   UNL     1      47.433   3.897  15.164  0.00  0.00    +0.000 C 
ATOM     20  N   UNL     1      46.831   5.009  14.624  0.00  0.00    +0.000 N 
ATOM     21  H   UNL     1      46.660   5.795  15.232  0.00  0.00    +0.000 HD
BRANCH  19  22
ATOM     22  C   UNL     1      47.779   4.120  16.561  0.00  0.00    +0.000 A 
ATOM     23  C   UNL     1      47.045   4.950  17.387  0.00  0.00    +0.000 A 
ATOM     24  S   UNL     1      47.969   5.474  18.734  0.00  0.00    +0.000 S 
ATOM     25  C   UNL     1      49.289   4.490  18.284  0.00  0.00    +0.000 A 
ATOM     26  N   UNL     1      50.499   4.557  18.904  0.00  0.00    +0.000 NA
ATOM     27  C   UNL     1      51.369   3.710  18.455  0.00  0.00    +0.000 A 
ATOM     28  N   UNL     1      51.124   2.768  17.482  0.00  0.00    +0.000 N 
ATOM     29  C   UNL     1      49.914   2.647  16.849  0.00  0.00    +0.000 A 
ATOM     30  O   UNL     1      49.682   1.746  16.052  0.00  0.00    +0.000 OA
ATOM     31  C   UNL     1      48.965   3.670  17.227  0.00  0.00    +0.000 A 
ATOM     32  H   UNL     1      51.827   2.079  17.244  0.00  0.00    +0.000 HD
ENDBRANCH  19  22
ENDBRANCH   1  20
TORSDOF 6
ENDMDL
