MODEL 1
REMARK VINA RESULT:    -8.137      0.000      0.000
REMARK INTER + INTRA:         -12.797
REMARK INTER:                 -11.704
REMARK INTRA:                  -1.092
REMARK UNBOUND:                -1.092
REMARK  Name = 
REMARK  8 active torsions:
REMARK  status: ('A' for Active; 'I' for Inactive)
REMARK    1  A    between atoms: C_2  and  C_20
REMARK    2  A    between atoms: N_3  and  C_4
REMARK    3  A    between atoms: C_4  and  C_5
REMARK    4  A    between atoms: C_8  and  C_9
REMARK    5  A    between atoms: C_9  and  O_10
REMARK    6  A    between atoms: O_10  and  C_11
REMARK    7  A    between atoms: C_11  and  C_12
REMARK    8  A    between atoms: C_27  and  O_28
REMARK                            x       y       z     vdW  Elec       q    Type
REMARK                         _______ _______ _______ _____ _____    ______ ____
ROOT
ATOM      1  O   UNL     1      48.850   6.165  13.384  0.00  0.00    +0.000 OA
ATOM      2  C   UNL     1      48.371   6.732  14.362  0.00  0.00    +0.000 C 
ATOM      3  N   UNL     1      47.293   7.582  14.273  0.00  0.00    +0.000 N 
ATOM      4  H   UNL     1      47.052   8.163  15.068  0.00  0.00    +0.000 HD
ENDROOT
BRANCH   2   5
ATOM      5  C   UNL     1      48.888   6.513  15.708  0.00  0.00    +0.000 A 
ATOM      6  C   UNL     1      49.784   7.357  16.355  0.00  0.00    +0.000 A 
ATOM      7  N   UNL     1      50.032   6.853  17.605  0.00  0.00    +0.000 N 
ATOM      8  C   UNL     1      49.314   5.709  17.790  0.00  0.00    +0.000 A 
ATOM      9  N   UNL     1      49.315   4.966  18.907  0.00  0.00    +0.000 NA
ATOM     10  C   UNL     1      48.491   3.905  18.798  0.00  0.00    +0.000 A 
ATOM     11  N   UNL     1      47.731   3.540  17.747  0.00  0.00    +0.000 NA
ATOM     12  C   UNL     1      47.794   4.329  16.671  0.00  0.00    +0.000 A 
ATOM     13  C   UNL     1      48.591   5.463  16.633  0.00  0.00    +0.000 A 
ATOM     14  H   UNL     1      50.646   7.258  18.303  0.00  0.00    +0.000 HD
BRANCH  12  15
ATOM     15  O   UNL     1      47.022   3.925  15.618  0.00  0.00    +0.000 OA
ATOM     16  H   UNL     1      46.131   4.103  15.970  0.00  0.00    +0.000 HD
ENDBRANCH  12  15
ENDBRANCH   2   5
BRANCH   3  17
ATOM     17  C   UNL     1      46.748   7.925  12.988  0.00  0.00    +0.000 C 
BRANCH  17  18
ATOM     18  C   UNL     1      45.897   6.829  12.405  0.00  0.00    +0.000 A 
ATOM     19  C   UNL     1      46.086   6.402  11.083  0.00  0.00    +0.000 A 
ATOM     20  C   UNL     1      45.333   5.346  10.563  0.00  0.00    +0.000 A 
ATOM     21  C   UNL     1      44.370   4.705  11.355  0.00  0.00    +0.000 A 
ATOM     22  C   UNL     1      44.168   5.143  12.669  0.00  0.00    +0.000 A 
ATOM     23  C   UNL     1      44.919   6.200  13.187  0.00  0.00    +0.000 A 
BRANCH  21  24
ATOM     24  C   UNL     1      43.604   3.517  10.828  0.00  0.00    +0.000 C 
BRANCH  24  25
ATOM     25  O   UNL     1      43.943   3.215   9.474  0.00  0.00    +0.000 OA
BRANCH  25  26
ATOM     26  C   UNL     1      44.698   2.009   9.352  0.00  0.00    +0.000 C 
BRANCH  26  27
ATOM     27  C   UNL     1      45.696   2.152   8.236  0.00  0.00    +0.000 A 
ATOM     28  C   UNL     1      45.799   3.354   7.519  0.00  0.00    +0.000 A 
ATOM     29  C   UNL     1      46.759   3.499   6.518  0.00  0.00    +0.000 A 
ATOM     30  C   UNL     1      47.626   2.448   6.225  0.00  0.00    +0.000 A 
ATOM     31  C   UNL     1      47.522   1.244   6.920  0.00  0.00    +0.000 A 
ATOM     32  C   UNL     1      46.559   1.095   7.920  0.00  0.00    +0.000 A 
ENDBRANCH  26  27
ENDBRANCH  25  26
ENDBRANCH  24  25
ENDBRANCH  21  24
ENDBRANCH  17  18
ENDBRANCH   3  17
TORSDOF 8
ENDMDL
MODEL 2
REMARK VINA RESULT:    -7.988      1.953      2.544
REMARK INTER + INTRA:         -12.582
REMARK INTER:                 -11.649
REMARK INTRA:                  -0.934
REMARK UNBOUND:                -1.092
REMARK  Name = 
REMARK  8 active torsions:
REMARK  status: ('A' for Active; 'I' for Inactive)
REMARK    1  A    between atoms: C_2  and  C_20
REMARK    2  A    between atoms: N_3  and  C_4
REMARK    3  A    between atoms: C_4  and  C_5
REMARK    4  A    between atoms: C_8  and  C_9
REMARK    5  A    between atoms: C_9  and  O_10
REMARK    6  A    between atoms: O_10  and  C_11
REMARK    7  A    between atoms: C_11  and  C_12
REMARK    8  A    between atoms: C_27  and  O_28
REMARK                            x       y       z     vdW  Elec       q    Type
REMARK                         _______ _______ _______ _____ _____    ______ ____
ROOT
ATOM      1  O   UNL     1      49.968   6.156  15.898  0.00  0.00    +0.000 OA
ATOM      2  C   UNL     1      48.848   5.833  16.284  0.00  0.00    +0.000 C 
ATOM      3  N   UNL     1      47.761   5.779  15.444  0.00  0.00    +0.000 N 
ATOM      4  H   UNL     1      46.832   5.688  15.840  0.00  0.00    +0.000 HD
ENDROOT
BRANCH   2   5
ATOM      5  C   UNL     1      48.594   5.440  17.666  0.00  0.00    +0.000 A 
ATOM      6  C   UNL     1      48.788   4.158  18.169  0.00  0.00    +0.000 A 
ATOM      7  N   UNL     1      48.470   4.162  19.502  0.00  0.00    +0.000 N 
ATOM      8  C   UNL     1      48.083   5.413  19.880  0.00  0.00    +0.000 A 
ATOM      9  N   UNL     1      47.716   5.770  21.120  0.00  0.00    +0.000 NA
ATOM     10  C   UNL     1      47.407   7.080  21.189  0.00  0.00    +0.000 A 
ATOM     11  N   UNL     1      47.420   7.996  20.201  0.00  0.00    +0.000 NA
ATOM     12  C   UNL     1      47.791   7.557  18.995  0.00  0.00    +0.000 A 
ATOM     13  C   UNL     1      48.146   6.237  18.766  0.00  0.00    +0.000 A 
ATOM     14  H   UNL     1      48.516   3.367  20.130  0.00  0.00    +0.000 HD
BRANCH  12  15
ATOM     15  O   UNL     1      47.782   8.507  18.013  0.00  0.00    +0.000 OA
ATOM     16  H   UNL     1      46.891   8.375  17.642  0.00  0.00    +0.000 HD
ENDBRANCH  12  15
ENDBRANCH   2   5
BRANCH   3  17
ATOM     17  C   UNL     1      47.880   6.212  14.079  0.00  0.00    +0.000 C 
BRANCH  17  18
ATOM     18  C   UNL     1      46.829   5.612  13.184  0.00  0.00    +0.000 A 
ATOM     19  C   UNL     1      46.371   4.304  13.396  0.00  0.00    +0.000 A 
ATOM     20  C   UNL     1      45.355   3.769  12.600  0.00  0.00    +0.000 A 
ATOM     21  C   UNL     1      44.787   4.532  11.569  0.00  0.00    +0.000 A 
ATOM     22  C   UNL     1      45.257   5.832  11.346  0.00  0.00    +0.000 A 
ATOM     23  C   UNL     1      46.273   6.364  12.140  0.00  0.00    +0.000 A 
BRANCH  21  24
ATOM     24  C   UNL     1      43.639   3.992  10.752  0.00  0.00    +0.000 C 
BRANCH  24  25
ATOM     25  O   UNL     1      44.039   3.652   9.423  0.00  0.00    +0.000 OA
BRANCH  25  26
ATOM     26  C   UNL     1      44.641   2.359   9.345  0.00  0.00    +0.000 C 
BRANCH  26  27
ATOM     27  C   UNL     1      45.670   2.351   8.248  0.00  0.00    +0.000 A 
ATOM     28  C   UNL     1      45.859   3.480   7.436  0.00  0.00    +0.000 A 
ATOM     29  C   UNL     1      46.849   3.487   6.453  0.00  0.00    +0.000 A 
ATOM     30  C   UNL     1      47.660   2.368   6.273  0.00  0.00    +0.000 A 
ATOM     31  C   UNL     1      47.471   1.235   7.063  0.00  0.00    +0.000 A 
ATOM     32  C   UNL     1      46.479   1.225   8.045  0.00  0.00    +0.000 A 
ENDBRANCH  26  27
ENDBRANCH  25  26
ENDBRANCH  24  25
ENDBRANCH  21  24
ENDBRANCH  17  18
ENDBRANCH   3  17
TORSDOF 8
ENDMDL
MODEL 3
REMARK VINA RESULT:    -7.872      1.848      2.209
REMARK INTER + INTRA:         -12.416
REMARK INTER:                 -11.222
REMARK INTRA:                  -1.195
REMARK UNBOUND:                -1.092
REMARK  Name = 
REMARK  8 active torsions:
REMARK  status: ('A' for Active; 'I' for Inactive)
REMARK    1  A    between atoms: C_2  and  C_20
REMARK    2  A    between atoms: N_3  and  C_4
REMARK    3  A    between atoms: C_4  and  C_5
REMARK    4  A    between atoms: C_8  and  C_9
REMARK    5  A    between atoms: C_9  and  O_10
REMARK    6  A    between atoms: O_10  and  C_11
REMARK    7  A    between atoms: C_11  and  C_12
REMARK    8  A    between atoms: C_27  and  O_28
REMARK                            x       y       z     vdW  Elec       q    Type
REMARK                         _______ _______ _______ _____ _____    ______ ____
ROOT
ATOM      1  O   UNL     1      49.381   4.915  16.432  0.00  0.00    +0.000 OA
ATOM      2  C   UNL     1      48.678   5.909  16.593  0.00  0.00    +0.000 C 
ATOM      3  N   UNL     1      48.053   6.552  15.551  0.00  0.00    +0.000 N 
ATOM      4  H   UNL     1      47.640   7.465  15.707  0.00  0.00    +0.000 HD
ENDROOT
BRANCH   2   5
ATOM      5  C   UNL     1      48.419   6.461  17.918  0.00  0.00    +0.000 A 
ATOM      6  C   UNL     1      48.080   7.787  18.167  0.00  0.00    +0.000 A 
ATOM      7  N   UNL     1      47.890   7.942  19.515  0.00  0.00    +0.000 N 
ATOM      8  C   UNL     1      48.090   6.751  20.148  0.00  0.00    +0.000 A 
ATOM      9  N   UNL     1      47.974   6.546  21.468  0.00  0.00    +0.000 NA
ATOM     10  C   UNL     1      48.212   5.260  21.794  0.00  0.00    +0.000 A 
ATOM     11  N   UNL     1      48.542   4.238  20.981  0.00  0.00    +0.000 NA
ATOM     12  C   UNL     1      48.644   4.528  19.680  0.00  0.00    +0.000 A 
ATOM     13  C   UNL     1      48.421   5.805  19.189  0.00  0.00    +0.000 A 
ATOM     14  H   UNL     1      47.634   8.801  19.989  0.00  0.00    +0.000 HD
BRANCH  12  15
ATOM     15  O   UNL     1      48.991   3.473  18.884  0.00  0.00    +0.000 OA
ATOM     16  H   UNL     1      49.527   3.927  18.208  0.00  0.00    +0.000 HD
ENDBRANCH  12  15
ENDBRANCH   2   5
BRANCH   3  17
ATOM     17  C   UNL     1      48.296   6.136  14.196  0.00  0.00    +0.000 C 
BRANCH  17  18
ATOM     18  C   UNL     1      47.028   5.807  13.454  0.00  0.00    +0.000 A 
ATOM     19  C   UNL     1      46.716   6.454  12.250  0.00  0.00    +0.000 A 
ATOM     20  C   UNL     1      45.567   6.107  11.534  0.00  0.00    +0.000 A 
ATOM     21  C   UNL     1      44.705   5.112  12.017  0.00  0.00    +0.000 A 
ATOM     22  C   UNL     1      45.008   4.478  13.228  0.00  0.00    +0.000 A 
ATOM     23  C   UNL     1      46.154   4.828  13.943  0.00  0.00    +0.000 A 
BRANCH  21  24
ATOM     24  C   UNL     1      43.502   4.677  11.216  0.00  0.00    +0.000 C 
BRANCH  24  25
ATOM     25  O   UNL     1      43.857   4.261   9.896  0.00  0.00    +0.000 OA
BRANCH  25  26
ATOM     26  C   UNL     1      44.316   2.910   9.850  0.00  0.00    +0.000 C 
BRANCH  26  27
ATOM     27  C   UNL     1      45.342   2.766   8.760  0.00  0.00    +0.000 A 
ATOM     28  C   UNL     1      45.782   3.887   8.039  0.00  0.00    +0.000 A 
ATOM     29  C   UNL     1      46.771   3.757   7.064  0.00  0.00    +0.000 A 
ATOM     30  C   UNL     1      47.330   2.507   6.800  0.00  0.00    +0.000 A 
ATOM     31  C   UNL     1      46.889   1.385   7.498  0.00  0.00    +0.000 A 
ATOM     32  C   UNL     1      45.897   1.512   8.472  0.00  0.00    +0.000 A 
ENDBRANCH  26  27
ENDBRANCH  25  26
ENDBRANCH  24  25
ENDBRANCH  21  24
ENDBRANCH  17  18
ENDBRANCH   3  17
TORSDOF 8
ENDMDL
MODEL 4
REMARK VINA RESULT:    -7.675      2.866      5.170
REMARK INTER + INTRA:         -12.132
REMARK INTER:                 -11.085
REMARK INTRA:                  -1.047
REMARK UNBOUND:                -1.092
REMARK  Name = 
REMARK  8 active torsions:
REMARK  status: ('A' for Active; 'I' for Inactive)
REMARK    1  A    between atoms: C_2  and  C_20
REMARK    2  A    between atoms: N_3  and  C_4
REMARK    3  A    between atoms: C_4  and  C_5
REMARK    4  A    between atoms: C_8  and  C_9
REMARK    5  A    between atoms: C_9  and  O_10
REMARK    6  A    between atoms: O_10  and  C_11
REMARK    7  A    between atoms: C_11  and  C_12
REMARK    8  A    between atoms: C_27  and  O_28
REMARK                            x       y       z     vdW  Elec       q    Type
REMARK                         _______ _______ _______ _____ _____    ______ ____
ROOT
ATOM      1  O   UNL     1      48.112   7.555  11.703  0.00  0.00    +0.000 OA
ATOM      2  C   UNL     1      47.509   8.147  12.593  0.00  0.00    +0.000 C 
ATOM      3  N   UNL     1      47.190   7.556  13.793  0.00  0.00    +0.000 N 
ATOM      4  H   UNL     1      46.538   8.018  14.417  0.00  0.00    +0.000 HD
ENDROOT
BRANCH   2   5
ATOM      5  C   UNL     1      47.117   9.545  12.458  0.00  0.00    +0.000 A 
ATOM      6  C   UNL     1      47.950  10.627  12.726  0.00  0.00    +0.000 A 
ATOM      7  N   UNL     1      47.259  11.782  12.471  0.00  0.00    +0.000 N 
ATOM      8  C   UNL     1      46.002  11.481  12.038  0.00  0.00    +0.000 A 
ATOM      9  N   UNL     1      45.066  12.376  11.690  0.00  0.00    +0.000 NA
ATOM     10  C   UNL     1      43.930  11.776  11.283  0.00  0.00    +0.000 A 
ATOM     11  N   UNL     1      43.661  10.458  11.210  0.00  0.00    +0.000 NA
ATOM     12  C   UNL     1      44.644   9.632  11.582  0.00  0.00    +0.000 A 
ATOM     13  C   UNL     1      45.875  10.099  12.017  0.00  0.00    +0.000 A 
ATOM     14  H   UNL     1      47.612  12.727  12.576  0.00  0.00    +0.000 HD
BRANCH  12  15
ATOM     15  O   UNL     1      44.335   8.304  11.508  0.00  0.00    +0.000 OA
ATOM     16  H   UNL     1      44.926   7.943  12.194  0.00  0.00    +0.000 HD
ENDBRANCH  12  15
ENDBRANCH   2   5
BRANCH   3  17
ATOM     17  C   UNL     1      47.465   6.161  14.007  0.00  0.00    +0.000 C 
BRANCH  17  18
ATOM     18  C   UNL     1      46.379   5.266  13.472  0.00  0.00    +0.000 A 
ATOM     19  C   UNL     1      45.074   5.749  13.302  0.00  0.00    +0.000 A 
ATOM     20  C   UNL     1      44.081   4.934  12.752  0.00  0.00    +0.000 A 
ATOM     21  C   UNL     1      44.375   3.616  12.374  0.00  0.00    +0.000 A 
ATOM     22  C   UNL     1      45.675   3.128  12.561  0.00  0.00    +0.000 A 
ATOM     23  C   UNL     1      46.665   3.943  13.112  0.00  0.00    +0.000 A 
BRANCH  21  24
ATOM     24  C   UNL     1      43.331   2.751  11.712  0.00  0.00    +0.000 C 
BRANCH  24  25
ATOM     25  O   UNL     1      43.730   2.331  10.406  0.00  0.00    +0.000 OA
BRANCH  25  26
ATOM     26  C   UNL     1      44.120   3.423   9.573  0.00  0.00    +0.000 C 
BRANCH  26  27
ATOM     27  C   UNL     1      45.206   2.975   8.634  0.00  0.00    +0.000 A 
ATOM     28  C   UNL     1      45.829   3.891   7.773  0.00  0.00    +0.000 A 
ATOM     29  C   UNL     1      46.871   3.482   6.939  0.00  0.00    +0.000 A 
ATOM     30  C   UNL     1      47.300   2.156   6.960  0.00  0.00    +0.000 A 
ATOM     31  C   UNL     1      46.677   1.234   7.800  0.00  0.00    +0.000 A 
ATOM     32  C   UNL     1      45.633   1.641   8.632  0.00  0.00    +0.000 A 
ENDBRANCH  26  27
ENDBRANCH  25  26
ENDBRANCH  24  25
ENDBRANCH  21  24
ENDBRANCH  17  18
ENDBRANCH   3  17
TORSDOF 8
ENDMDL
MODEL 5
REMARK VINA RESULT:    -7.362      3.674      8.028
REMARK INTER + INTRA:         -11.682
REMARK INTER:                  -9.339
REMARK INTRA:                  -2.343
REMARK UNBOUND:                -1.092
REMARK  Name = 
REMARK  8 active torsions:
REMARK  status: ('A' for Active; 'I' for Inactive)
REMARK    1  A    between atoms: C_2  and  C_20
REMARK    2  A    between atoms: N_3  and  C_4
REMARK    3  A    between atoms: C_4  and  C_5
REMARK    4  A    between atoms: C_8  and  C_9
REMARK    5  A    between atoms: C_9  and  O_10
REMARK    6  A    between atoms: O_10  and  C_11
REMARK    7  A    between atoms: C_11  and  C_12
REMARK    8  A    between atoms: C_27  and  O_28
REMARK                            x       y       z     vdW  Elec       q    Type
REMARK                         _______ _______ _______ _____ _____    ______ ____
ROOT
ATOM      1  O   UNL     1      48.449   5.454  13.023  0.00  0.00    +0.000 OA
ATOM      2  C   UNL     1      47.753   6.429  13.294  0.00  0.00    +0.000 C 
ATOM      3  N   UNL     1      48.263   7.565  13.878  0.00  0.00    +0.000 N 
ATOM      4  H   UNL     1      47.626   8.261  14.247  0.00  0.00    +0.000 HD
ENDROOT
BRANCH   2   5
ATOM      5  C   UNL     1      46.330   6.471  12.976  0.00  0.00    +0.000 A 
ATOM      6  C   UNL     1      45.617   7.633  12.704  0.00  0.00    +0.000 A 
ATOM      7  N   UNL     1      44.318   7.293  12.430  0.00  0.00    +0.000 N 
ATOM      8  C   UNL     1      44.171   5.940  12.508  0.00  0.00    +0.000 A 
ATOM      9  N   UNL     1      43.030   5.270  12.286  0.00  0.00    +0.000 NA
ATOM     10  C   UNL     1      43.201   3.940  12.418  0.00  0.00    +0.000 A 
ATOM     11  N   UNL     1      44.323   3.268  12.740  0.00  0.00    +0.000 NA
ATOM     12  C   UNL     1      45.414   4.010  12.952  0.00  0.00    +0.000 A 
ATOM     13  C   UNL     1      45.400   5.392  12.846  0.00  0.00    +0.000 A 
ATOM     14  H   UNL     1      43.568   7.933  12.195  0.00  0.00    +0.000 HD
BRANCH  12  15
ATOM     15  O   UNL     1      46.532   3.301  13.289  0.00  0.00    +0.000 OA
ATOM     16  H   UNL     1      46.239   2.394  13.083  0.00  0.00    +0.000 HD
ENDBRANCH  12  15
ENDBRANCH   2   5
BRANCH   3  17
ATOM     17  C   UNL     1      49.637   7.606  14.298  0.00  0.00    +0.000 C 
BRANCH  17  18
ATOM     18  C   UNL     1      49.798   7.396  15.780  0.00  0.00    +0.000 A 
ATOM     19  C   UNL     1      48.895   7.970  16.686  0.00  0.00    +0.000 A 
ATOM     20  C   UNL     1      49.014   7.727  18.057  0.00  0.00    +0.000 A 
ATOM     21  C   UNL     1      50.046   6.913  18.546  0.00  0.00    +0.000 A 
ATOM     22  C   UNL     1      50.958   6.354  17.642  0.00  0.00    +0.000 A 
ATOM     23  C   UNL     1      50.840   6.600  16.273  0.00  0.00    +0.000 A 
BRANCH  21  24
ATOM     24  C   UNL     1      50.140   6.583  20.015  0.00  0.00    +0.000 C 
BRANCH  24  25
ATOM     25  O   UNL     1      50.053   5.178  20.258  0.00  0.00    +0.000 OA
BRANCH  25  26
ATOM     26  C   UNL     1      48.712   4.693  20.203  0.00  0.00    +0.000 C 
BRANCH  26  27
ATOM     27  C   UNL     1      48.442   4.116  18.840  0.00  0.00    +0.000 A 
ATOM     28  C   UNL     1      47.360   4.571  18.072  0.00  0.00    +0.000 A 
ATOM     29  C   UNL     1      47.144   4.069  16.789  0.00  0.00    +0.000 A 
ATOM     30  C   UNL     1      48.006   3.110  16.261  0.00  0.00    +0.000 A 
ATOM     31  C   UNL     1      49.075   2.639  17.021  0.00  0.00    +0.000 A 
ATOM     32  C   UNL     1      49.291   3.138  18.307  0.00  0.00    +0.000 A 
ENDBRANCH  26  27
ENDBRANCH  25  26
ENDBRANCH  24  25
ENDBRANCH  21  24
ENDBRANCH  17  18
ENDBRANCH   3  17
TORSDOF 8
ENDMDL
MODEL 6
REMARK VINA RESULT:    -7.286      3.064      8.379
REMARK INTER + INTRA:         -11.572
REMARK INTER:                 -10.066
REMARK INTRA:                  -1.506
REMARK UNBOUND:                -1.092
REMARK  Name = 
REMARK  8 active torsions:
REMARK  status: ('A' for Active; 'I' for Inactive)
REMARK    1  A    between atoms: C_2  and  C_20
REMARK    2  A    between atoms: N_3  and  C_4
REMARK    3  A    between atoms: C_4  and  C_5
REMARK    4  A    between atoms: C_8  and  C_9
REMARK    5  A    between atoms: C_9  and  O_10
REMARK    6  A    between atoms: O_10  and  C_11
REMARK    7  A    between atoms: C_11  and  C_12
REMARK    8  A    between atoms: C_27  and  O_28
REMARK                            x       y       z     vdW  Elec       q    Type
REMARK                         _______ _______ _______ _____ _____    ______ ____
ROOT
ATOM      1  O   UNL     1      43.841   5.986  13.188  0.00  0.00    +0.000 OA
ATOM      2  C   UNL     1      44.586   5.646  12.272  0.00  0.00    +0.000 C 
ATOM      3  N   UNL     1      45.646   6.416  11.853  0.00  0.00    +0.000 N 
ATOM      4  H   UNL     1      46.114   6.186  10.984  0.00  0.00    +0.000 HD
ENDROOT
BRANCH   2   5
ATOM      5  C   UNL     1      44.424   4.372  11.582  0.00  0.00    +0.000 A 
ATOM      6  C   UNL     1      43.848   3.238  12.145  0.00  0.00    +0.000 A 
ATOM      7  N   UNL     1      43.844   2.240  11.206  0.00  0.00    +0.000 N 
ATOM      8  C   UNL     1      44.394   2.697  10.045  0.00  0.00    +0.000 A 
ATOM      9  N   UNL     1      44.535   1.982   8.919  0.00  0.00    +0.000 NA
ATOM     10  C   UNL     1      45.095   2.712   7.934  0.00  0.00    +0.000 A 
ATOM     11  N   UNL     1      45.507   3.993   7.973  0.00  0.00    +0.000 NA
ATOM     12  C   UNL     1      45.338   4.633   9.134  0.00  0.00    +0.000 A 
ATOM     13  C   UNL     1      44.769   4.019  10.239  0.00  0.00    +0.000 A 
ATOM     14  H   UNL     1      43.485   1.300  11.332  0.00  0.00    +0.000 HD
BRANCH  12  15
ATOM     15  O   UNL     1      45.777   5.926   9.145  0.00  0.00    +0.000 OA
ATOM     16  H   UNL     1      46.462   5.890   8.452  0.00  0.00    +0.000 HD
ENDBRANCH  12  15
ENDBRANCH   2   5
BRANCH   3  17
ATOM     17  C   UNL     1      45.856   7.723  12.415  0.00  0.00    +0.000 C 
BRANCH  17  18
ATOM     18  C   UNL     1      47.140   7.820  13.194  0.00  0.00    +0.000 A 
ATOM     19  C   UNL     1      47.348   8.870  14.100  0.00  0.00    +0.000 A 
ATOM     20  C   UNL     1      48.517   8.928  14.864  0.00  0.00    +0.000 A 
ATOM     21  C   UNL     1      49.503   7.940  14.726  0.00  0.00    +0.000 A 
ATOM     22  C   UNL     1      49.302   6.901  13.809  0.00  0.00    +0.000 A 
ATOM     23  C   UNL     1      48.136   6.847  13.045  0.00  0.00    +0.000 A 
BRANCH  21  24
ATOM     24  C   UNL     1      50.734   7.951  15.598  0.00  0.00    +0.000 C 
BRANCH  24  25
ATOM     25  O   UNL     1      51.060   6.649  16.086  0.00  0.00    +0.000 OA
BRANCH  25  26
ATOM     26  C   UNL     1      50.458   6.370  17.351  0.00  0.00    +0.000 C 
BRANCH  26  27
ATOM     27  C   UNL     1      49.599   5.140  17.237  0.00  0.00    +0.000 A 
ATOM     28  C   UNL     1      50.137   3.867  17.481  0.00  0.00    +0.000 A 
ATOM     29  C   UNL     1      49.325   2.734  17.424  0.00  0.00    +0.000 A 
ATOM     30  C   UNL     1      47.970   2.862  17.125  0.00  0.00    +0.000 A 
ATOM     31  C   UNL     1      47.428   4.120  16.866  0.00  0.00    +0.000 A 
ATOM     32  C   UNL     1      48.239   5.254  16.919  0.00  0.00    +0.000 A 
ENDBRANCH  26  27
ENDBRANCH  25  26
ENDBRANCH  24  25
ENDBRANCH  21  24
ENDBRANCH  17  18
ENDBRANCH   3  17
TORSDOF 8
ENDMDL
MODEL 7
REMARK VINA RESULT:    -7.113      3.674      8.224
REMARK INTER + INTRA:         -11.324
REMARK INTER:                  -9.173
REMARK INTRA:                  -2.150
REMARK UNBOUND:                -1.092
REMARK  Name = 
REMARK  8 active torsions:
REMARK  status: ('A' for Active; 'I' for Inactive)
REMARK    1  A    between atoms: C_2  and  C_20
REMARK    2  A    between atoms: N_3  and  C_4
REMARK    3  A    between atoms: C_4  and  C_5
REMARK    4  A    between atoms: C_8  and  C_9
REMARK    5  A    between atoms: C_9  and  O_10
REMARK    6  A    between atoms: O_10  and  C_11
REMARK    7  A    between atoms: C_11  and  C_12
REMARK    8  A    between atoms: C_27  and  O_28
REMARK                            x       y       z     vdW  Elec       q    Type
REMARK                         _______ _______ _______ _____ _____    ______ ____
ROOT
ATOM      1  O   UNL     1      48.766   6.118  12.858  0.00  0.00    +0.000 OA
ATOM      2  C   UNL     1      47.623   6.249  13.288  0.00  0.00    +0.000 C 
ATOM      3  N   UNL     1      47.225   7.349  14.010  0.00  0.00    +0.000 N 
ATOM      4  H   UNL     1      46.335   7.329  14.497  0.00  0.00    +0.000 HD
ENDROOT
BRANCH   2   5
ATOM      5  C   UNL     1      46.584   5.259  13.028  0.00  0.00    +0.000 A 
ATOM      6  C   UNL     1      46.675   3.913  13.368  0.00  0.00    +0.000 A 
ATOM      7  N   UNL     1      45.513   3.290  12.995  0.00  0.00    +0.000 N 
ATOM      8  C   UNL     1      44.667   4.197  12.428  0.00  0.00    +0.000 A 
ATOM      9  N   UNL     1      43.439   3.924  11.962  0.00  0.00    +0.000 NA
ATOM     10  C   UNL     1      42.835   5.028  11.479  0.00  0.00    +0.000 A 
ATOM     11  N   UNL     1      43.316   6.285  11.414  0.00  0.00    +0.000 NA
ATOM     12  C   UNL     1      44.550   6.470  11.893  0.00  0.00    +0.000 A 
ATOM     13  C   UNL     1      45.297   5.433  12.430  0.00  0.00    +0.000 A 
ATOM     14  H   UNL     1      45.294   2.308  13.118  0.00  0.00    +0.000 HD
BRANCH  12  15
ATOM     15  O   UNL     1      45.014   7.751  11.800  0.00  0.00    +0.000 OA
ATOM     16  H   UNL     1      44.193   8.223  11.568  0.00  0.00    +0.000 HD
ENDBRANCH  12  15
ENDBRANCH   2   5
BRANCH   3  17
ATOM     17  C   UNL     1      48.183   8.354  14.385  0.00  0.00    +0.000 C 
BRANCH  17  18
ATOM     18  C   UNL     1      48.749   8.131  15.762  0.00  0.00    +0.000 A 
ATOM     19  C   UNL     1      48.165   8.740  16.882  0.00  0.00    +0.000 A 
ATOM     20  C   UNL     1      48.658   8.487  18.165  0.00  0.00    +0.000 A 
ATOM     21  C   UNL     1      49.751   7.628  18.348  0.00  0.00    +0.000 A 
ATOM     22  C   UNL     1      50.345   7.034  17.227  0.00  0.00    +0.000 A 
ATOM     23  C   UNL     1      49.854   7.290  15.946  0.00  0.00    +0.000 A 
BRANCH  21  24
ATOM     24  C   UNL     1      50.245   7.290  19.733  0.00  0.00    +0.000 C 
BRANCH  24  25
ATOM     25  O   UNL     1      50.253   5.881  19.972  0.00  0.00    +0.000 OA
BRANCH  25  26
ATOM     26  C   UNL     1      48.940   5.341  20.116  0.00  0.00    +0.000 C 
BRANCH  26  27
ATOM     27  C   UNL     1      48.589   4.542  18.890  0.00  0.00    +0.000 A 
ATOM     28  C   UNL     1      47.405   4.800  18.183  0.00  0.00    +0.000 A 
ATOM     29  C   UNL     1      47.109   4.091  17.019  0.00  0.00    +0.000 A 
ATOM     30  C   UNL     1      47.991   3.120  16.550  0.00  0.00    +0.000 A 
ATOM     31  C   UNL     1      49.162   2.844  17.253  0.00  0.00    +0.000 A 
ATOM     32  C   UNL     1      49.460   3.550  18.420  0.00  0.00    +0.000 A 
ENDBRANCH  26  27
ENDBRANCH  25  26
ENDBRANCH  24  25
ENDBRANCH  21  24
ENDBRANCH  17  18
ENDBRANCH   3  17
TORSDOF 8
ENDMDL
MODEL 8
REMARK VINA RESULT:    -7.082      2.623      3.564
REMARK INTER + INTRA:         -11.279
REMARK INTER:                 -10.471
REMARK INTRA:                  -0.808
REMARK UNBOUND:                -1.092
REMARK  Name = 
REMARK  8 active torsions:
REMARK  status: ('A' for Active; 'I' for Inactive)
REMARK    1  A    between atoms: C_2  and  C_20
REMARK    2  A    between atoms: N_3  and  C_4
REMARK    3  A    between atoms: C_4  and  C_5
REMARK    4  A    between atoms: C_8  and  C_9
REMARK    5  A    between atoms: C_9  and  O_10
REMARK    6  A    between atoms: O_10  and  C_11
REMARK    7  A    between atoms: C_11  and  C_12
REMARK    8  A    between atoms: C_27  and  O_28
REMARK                            x       y       z     vdW  Elec       q    Type
REMARK                         _______ _______ _______ _____ _____    ______ ____
ROOT
ATOM      1  O   UNL     1      48.853   5.462  18.473  0.00  0.00    +0.000 OA
ATOM      2  C   UNL     1      49.847   5.391  17.755  0.00  0.00    +0.000 C 
ATOM      3  N   UNL     1      49.938   6.043  16.547  0.00  0.00    +0.000 N 
ATOM      4  H   UNL     1      50.693   5.809  15.912  0.00  0.00    +0.000 HD
ENDROOT
BRANCH   2   5
ATOM      5  C   UNL     1      51.030   4.636  18.152  0.00  0.00    +0.000 A 
ATOM      6  C   UNL     1      52.070   5.147  18.921  0.00  0.00    +0.000 A 
ATOM      7  N   UNL     1      52.996   4.156  19.115  0.00  0.00    +0.000 N 
ATOM      8  C   UNL     1      52.583   3.013  18.498  0.00  0.00    +0.000 A 
ATOM      9  N   UNL     1      53.248   1.848  18.498  0.00  0.00    +0.000 NA
ATOM     10  C   UNL     1      52.578   0.894  17.821  0.00  0.00    +0.000 A 
ATOM     11  N   UNL     1      51.397   0.995  17.181  0.00  0.00    +0.000 NA
ATOM     12  C   UNL     1      50.804   2.191  17.222  0.00  0.00    +0.000 A 
ATOM     13  C   UNL     1      51.364   3.271  17.887  0.00  0.00    +0.000 A 
ATOM     14  H   UNL     1      53.860   4.238  19.639  0.00  0.00    +0.000 HD
BRANCH  12  15
ATOM     15  O   UNL     1      49.615   2.264  16.554  0.00  0.00    +0.000 OA
ATOM     16  H   UNL     1      49.154   1.487  16.921  0.00  0.00    +0.000 HD
ENDBRANCH  12  15
ENDBRANCH   2   5
BRANCH   3  17
ATOM     17  C   UNL     1      48.805   6.757  16.025  0.00  0.00    +0.000 C 
BRANCH  17  18
ATOM     18  C   UNL     1      48.014   5.947  15.033  0.00  0.00    +0.000 A 
ATOM     19  C   UNL     1      47.404   4.745  15.417  0.00  0.00    +0.000 A 
ATOM     20  C   UNL     1      46.623   4.023  14.510  0.00  0.00    +0.000 A 
ATOM     21  C   UNL     1      46.449   4.488  13.199  0.00  0.00    +0.000 A 
ATOM     22  C   UNL     1      47.072   5.680  12.811  0.00  0.00    +0.000 A 
ATOM     23  C   UNL     1      47.854   6.398  13.716  0.00  0.00    +0.000 A 
BRANCH  21  24
ATOM     24  C   UNL     1      45.548   3.757  12.234  0.00  0.00    +0.000 C 
BRANCH  24  25
ATOM     25  O   UNL     1      44.681   4.646  11.528  0.00  0.00    +0.000 OA
BRANCH  25  26
ATOM     26  C   UNL     1      43.900   3.978  10.537  0.00  0.00    +0.000 C 
BRANCH  26  27
ATOM     27  C   UNL     1      44.801   3.475   9.443  0.00  0.00    +0.000 A 
ATOM     28  C   UNL     1      45.461   4.373   8.590  0.00  0.00    +0.000 A 
ATOM     29  C   UNL     1      46.335   3.903   7.609  0.00  0.00    +0.000 A 
ATOM     30  C   UNL     1      46.559   2.535   7.472  0.00  0.00    +0.000 A 
ATOM     31  C   UNL     1      45.897   1.633   8.303  0.00  0.00    +0.000 A 
ATOM     32  C   UNL     1      45.019   2.100   9.282  0.00  0.00    +0.000 A 
ENDBRANCH  26  27
ENDBRANCH  25  26
ENDBRANCH  24  25
ENDBRANCH  21  24
ENDBRANCH  17  18
ENDBRANCH   3  17
TORSDOF 8
ENDMDL
MODEL 9
REMARK VINA RESULT:    -6.750      4.651      8.053
REMARK INTER + INTRA:         -10.802
REMARK INTER:                  -9.568
REMARK INTRA:                  -1.234
REMARK UNBOUND:                -1.092
REMARK  Name = 
REMARK  8 active torsions:
REMARK  status: ('A' for Active; 'I' for Inactive)
REMARK    1  A    between atoms: C_2  and  C_20
REMARK    2  A    between atoms: N_3  and  C_4
REMARK    3  A    between atoms: C_4  and  C_5
REMARK    4  A    between atoms: C_8  and  C_9
REMARK    5  A    between atoms: C_9  and  O_10
REMARK    6  A    between atoms: O_10  and  C_11
REMARK    7  A    between atoms: C_11  and  C_12
REMARK    8  A    between atoms: C_27  and  O_28
REMARK                            x       y       z     vdW  Elec       q    Type
REMARK                         _______ _______ _______ _____ _____    ______ ____
ROOT
ATOM      1  O   UNL     1      42.646   6.053  11.494  0.00  0.00    +0.000 OA
ATOM      2  C   UNL     1      43.782   5.603  11.368  0.00  0.00    +0.000 C 
ATOM      3  N   UNL     1      44.905   6.313  11.723  0.00  0.00    +0.000 N 
ATOM      4  H   UNL     1      45.816   5.978  11.432  0.00  0.00    +0.000 HD
ENDROOT
BRANCH   2   5
ATOM      5  C   UNL     1      44.024   4.255  10.866  0.00  0.00    +0.000 A 
ATOM      6  C   UNL     1      43.469   3.100  11.408  0.00  0.00    +0.000 A 
ATOM      7  N   UNL     1      43.897   2.025  10.674  0.00  0.00    +0.000 N 
ATOM      8  C   UNL     1      44.708   2.451   9.664  0.00  0.00    +0.000 A 
ATOM      9  N   UNL     1      45.289   1.660   8.750  0.00  0.00    +0.000 NA
ATOM     10  C   UNL     1      46.016   2.372   7.867  0.00  0.00    +0.000 A 
ATOM     11  N   UNL     1      46.210   3.704   7.824  0.00  0.00    +0.000 NA
ATOM     12  C   UNL     1      45.602   4.420   8.774  0.00  0.00    +0.000 A 
ATOM     13  C   UNL     1      44.812   3.832   9.750  0.00  0.00    +0.000 A 
ATOM     14  H   UNL     1      43.653   1.055  10.836  0.00  0.00    +0.000 HD
BRANCH  12  15
ATOM     15  O   UNL     1      45.828   5.766   8.710  0.00  0.00    +0.000 OA
ATOM     16  H   UNL     1      46.720   5.780   8.318  0.00  0.00    +0.000 HD
ENDBRANCH  12  15
ENDBRANCH   2   5
BRANCH   3  17
ATOM     17  C   UNL     1      44.788   7.677  12.162  0.00  0.00    +0.000 C 
BRANCH  17  18
ATOM     18  C   UNL     1      46.094   8.422  12.096  0.00  0.00    +0.000 A 
ATOM     19  C   UNL     1      46.119   9.824  12.099  0.00  0.00    +0.000 A 
ATOM     20  C   UNL     1      47.335  10.513  12.095  0.00  0.00    +0.000 A 
ATOM     21  C   UNL     1      48.548   9.810  12.077  0.00  0.00    +0.000 A 
ATOM     22  C   UNL     1      48.523   8.410  12.057  0.00  0.00    +0.000 A 
ATOM     23  C   UNL     1      47.308   7.723  12.058  0.00  0.00    +0.000 A 
BRANCH  21  24
ATOM     24  C   UNL     1      49.866  10.541  12.148  0.00  0.00    +0.000 C 
BRANCH  24  25
ATOM     25  O   UNL     1      50.457  10.710  10.858  0.00  0.00    +0.000 OA
BRANCH  25  26
ATOM     26  C   UNL     1      51.870  10.510  10.872  0.00  0.00    +0.000 C 
BRANCH  26  27
ATOM     27  C   UNL     1      52.218   9.328  10.009  0.00  0.00    +0.000 A 
ATOM     28  C   UNL     1      52.855   9.510   8.772  0.00  0.00    +0.000 A 
ATOM     29  C   UNL     1      53.221   8.409   7.997  0.00  0.00    +0.000 A 
ATOM     30  C   UNL     1      52.956   7.118   8.451  0.00  0.00    +0.000 A 
ATOM     31  C   UNL     1      52.309   6.927   9.670  0.00  0.00    +0.000 A 
ATOM     32  C   UNL     1      51.939   8.027  10.445  0.00  0.00    +0.000 A 
ENDBRANCH  26  27
ENDBRANCH  25  26
ENDBRANCH  24  25
ENDBRANCH  21  24
ENDBRANCH  17  18
ENDBRANCH   3  17
TORSDOF 8
ENDMDL
