MODEL 1
REMARK VINA RESULT:    -8.133      0.000      0.000
REMARK INTER + INTRA:         -11.477
REMARK INTER:                 -10.511
REMARK INTRA:                  -0.967
REMARK UNBOUND:                -0.967
REMARK  Name = 
REMARK  6 active torsions:
REMARK  status: ('A' for Active; 'I' for Inactive)
REMARK    1  A    between atoms: C_1  and  C_2
REMARK    2  A    between atoms: C_6  and  C_7
REMARK    3  A    between atoms: C_7  and  C_8
REMARK    4  A    between atoms: C_11  and  C_12
REMARK    5  A    between atoms: C_12  and  N_13
REMARK    6  A    between atoms: C_14  and  C_16
REMARK                            x       y       z     vdW  Elec       q    Type
REMARK                         _______ _______ _______ _____ _____    ______ ____
ROOT
ATOM      1  C   UNL     1      46.526   7.674  12.830  0.00  0.00    +0.000 C 
ENDROOT
BRANCH   1   5
ATOM      2  C   UNL     1      44.782   4.766  10.242  0.00  0.00    +0.000 A 
ATOM      3  C   UNL     1      44.268   4.902  11.529  0.00  0.00    +0.000 A 
ATOM      4  C   UNL     1      44.842   5.835  12.391  0.00  0.00    +0.000 A 
ATOM      5  C   UNL     1      45.922   6.609  11.961  0.00  0.00    +0.000 A 
ATOM      6  C   UNL     1      46.379   6.392  10.668  0.00  0.00    +0.000 A 
ATOM      7  N   UNL     1      45.845   5.491   9.810  0.00  0.00    +0.000 NA
BRANCH   2   8
ATOM      8  C   UNL     1      44.106   3.852   9.241  0.00  0.00    +0.000 C 
BRANCH   8  14
ATOM      9  C   UNL     1      47.194   3.288   5.301  0.00  0.00    +0.000 C 
ATOM     10  C   UNL     1      46.591   2.726   6.553  0.00  0.00    +0.000 A 
ATOM     11  C   UNL     1      46.917   1.443   7.002  0.00  0.00    +0.000 A 
ATOM     12  C   UNL     1      46.323   0.930   8.157  0.00  0.00    +0.000 A 
ATOM     13  C   UNL     1      45.402   1.697   8.876  0.00  0.00    +0.000 A 
ATOM     14  C   UNL     1      45.074   2.990   8.454  0.00  0.00    +0.000 A 
ATOM     15  C   UNL     1      45.681   3.493   7.291  0.00  0.00    +0.000 A 
ENDBRANCH   8  14
ENDBRANCH   2   8
ENDBRANCH   1   5
BRANCH   1  16
ATOM     16  N   UNL     1      47.045   7.113  14.054  0.00  0.00    +0.000 N 
ATOM     17  C   UNL     1      48.352   6.714  14.165  0.00  0.00    +0.000 C 
ATOM     18  O   UNL     1      49.154   6.835  13.242  0.00  0.00    +0.000 OA
ATOM     19  H   UNL     1      46.367   6.778  14.732  0.00  0.00    +0.000 HD
BRANCH  17  20
ATOM     20  C   UNL     1      48.760   6.185  15.476  0.00  0.00    +0.000 A 
ATOM     21  C   UNL     1      49.792   6.796  16.177  0.00  0.00    +0.000 A 
ATOM     22  S   UNL     1      50.075   6.107  17.711  0.00  0.00    +0.000 S 
ATOM     23  C   UNL     1      48.871   4.930  17.467  0.00  0.00    +0.000 A 
ATOM     24  N   UNL     1      48.607   3.989  18.413  0.00  0.00    +0.000 NA
ATOM     25  C   UNL     1      47.689   3.142  18.082  0.00  0.00    +0.000 A 
ATOM     26  N   UNL     1      47.013   3.150  16.889  0.00  0.00    +0.000 N 
ATOM     27  C   UNL     1      47.230   4.094  15.914  0.00  0.00    +0.000 A 
ATOM     28  O   UNL     1      46.583   4.093  14.873  0.00  0.00    +0.000 OA
ATOM     29  C   UNL     1      48.252   5.069  16.238  0.00  0.00    +0.000 A 
ATOM     30  H   UNL     1      46.302   2.461  16.693  0.00  0.00    +0.000 HD
ENDBRANCH  17  20
ENDBRANCH   1  16
TORSDOF 5
ENDMDL
MODEL 2
REMARK VINA RESULT:    -8.080      0.502      1.307
REMARK INTER + INTRA:         -11.408
REMARK INTER:                 -10.784
REMARK INTRA:                  -0.625
REMARK UNBOUND:                -0.967
REMARK  Name = 
REMARK  6 active torsions:
REMARK  status: ('A' for Active; 'I' for Inactive)
REMARK    1  A    between atoms: C_1  and  C_2
REMARK    2  A    between atoms: C_6  and  C_7
REMARK    3  A    between atoms: C_7  and  C_8
REMARK    4  A    between atoms: C_11  and  C_12
REMARK    5  A    between atoms: C_12  and  N_13
REMARK    6  A    between atoms: C_14  and  C_16
REMARK                            x       y       z     vdW  Elec       q    Type
REMARK                         _______ _______ _______ _____ _____    ______ ____
ROOT
ATOM      1  C   UNL     1      46.311   7.518  12.844  0.00  0.00    +0.000 C 
ENDROOT
BRANCH   1   5
ATOM      2  C   UNL     1      44.985   4.416  10.236  0.00  0.00    +0.000 A 
ATOM      3  C   UNL     1      44.630   4.349  11.580  0.00  0.00    +0.000 A 
ATOM      4  C   UNL     1      45.073   5.346  12.446  0.00  0.00    +0.000 A 
ATOM      5  C   UNL     1      45.870   6.386  11.963  0.00  0.00    +0.000 A 
ATOM      6  C   UNL     1      46.189   6.361  10.611  0.00  0.00    +0.000 A 
ATOM      7  N   UNL     1      45.777   5.404   9.747  0.00  0.00    +0.000 NA
BRANCH   2   8
ATOM      8  C   UNL     1      44.421   3.418   9.244  0.00  0.00    +0.000 C 
BRANCH   8  14
ATOM      9  C   UNL     1      46.933  -0.670   7.713  0.00  0.00    +0.000 C 
ATOM     10  C   UNL     1      46.673   0.801   7.588  0.00  0.00    +0.000 A 
ATOM     11  C   UNL     1      47.366   1.584   6.661  0.00  0.00    +0.000 A 
ATOM     12  C   UNL     1      47.125   2.956   6.580  0.00  0.00    +0.000 A 
ATOM     13  C   UNL     1      46.187   3.559   7.423  0.00  0.00    +0.000 A 
ATOM     14  C   UNL     1      45.470   2.791   8.348  0.00  0.00    +0.000 A 
ATOM     15  C   UNL     1      45.721   1.410   8.416  0.00  0.00    +0.000 A 
ENDBRANCH   8  14
ENDBRANCH   2   8
ENDBRANCH   1   5
BRANCH   1  16
ATOM     16  N   UNL     1      46.925   7.026  14.053  0.00  0.00    +0.000 N 
ATOM     17  C   UNL     1      48.240   6.639  14.086  0.00  0.00    +0.000 C 
ATOM     18  O   UNL     1      48.970   6.713  13.101  0.00  0.00    +0.000 OA
ATOM     19  H   UNL     1      46.302   6.725  14.797  0.00  0.00    +0.000 HD
BRANCH  17  20
ATOM     20  C   UNL     1      48.749   6.183  15.390  0.00  0.00    +0.000 A 
ATOM     21  C   UNL     1      49.805   6.855  15.993  0.00  0.00    +0.000 A 
ATOM     22  S   UNL     1      50.209   6.245  17.533  0.00  0.00    +0.000 S 
ATOM     23  C   UNL     1      49.029   5.024  17.422  0.00  0.00    +0.000 A 
ATOM     24  N   UNL     1      48.857   4.121  18.424  0.00  0.00    +0.000 NA
ATOM     25  C   UNL     1      47.946   3.234  18.193  0.00  0.00    +0.000 A 
ATOM     26  N   UNL     1      47.193   3.168  17.049  0.00  0.00    +0.000 N 
ATOM     27  C   UNL     1      47.317   4.072  16.021  0.00  0.00    +0.000 A 
ATOM     28  O   UNL     1      46.604   4.005  15.026  0.00  0.00    +0.000 OA
ATOM     29  C   UNL     1      48.327   5.089  16.232  0.00  0.00    +0.000 A 
ATOM     30  H   UNL     1      46.493   2.451  16.931  0.00  0.00    +0.000 HD
ENDBRANCH  17  20
ENDBRANCH   1  16
TORSDOF 5
ENDMDL
MODEL 3
REMARK VINA RESULT:    -7.628      2.533      4.417
REMARK INTER + INTRA:         -10.824
REMARK INTER:                  -9.689
REMARK INTRA:                  -1.136
REMARK UNBOUND:                -0.967
REMARK  Name = 
REMARK  6 active torsions:
REMARK  status: ('A' for Active; 'I' for Inactive)
REMARK    1  A    between atoms: C_1  and  C_2
REMARK    2  A    between atoms: C_6  and  C_7
REMARK    3  A    between atoms: C_7  and  C_8
REMARK    4  A    between atoms: C_11  and  C_12
REMARK    5  A    between atoms: C_12  and  N_13
REMARK    6  A    between atoms: C_14  and  C_16
REMARK                            x       y       z     vdW  Elec       q    Type
REMARK                         _______ _______ _______ _____ _____    ______ ____
ROOT
ATOM      1  C   UNL     1      46.947   5.228  14.369  0.00  0.00    +0.000 C 
ENDROOT
BRANCH   1   5
ATOM      2  C   UNL     1      44.897   4.077  10.812  0.00  0.00    +0.000 A 
ATOM      3  C   UNL     1      45.285   5.407  10.952  0.00  0.00    +0.000 A 
ATOM      4  C   UNL     1      45.938   5.799  12.119  0.00  0.00    +0.000 A 
ATOM      5  C   UNL     1      46.185   4.866  13.128  0.00  0.00    +0.000 A 
ATOM      6  C   UNL     1      45.746   3.567  12.908  0.00  0.00    +0.000 A 
ATOM      7  N   UNL     1      45.105   3.157  11.788  0.00  0.00    +0.000 NA
BRANCH   2   8
ATOM      8  C   UNL     1      44.296   3.589   9.509  0.00  0.00    +0.000 C 
BRANCH   8  14
ATOM      9  C   UNL     1      46.816  -0.360   7.659  0.00  0.00    +0.000 C 
ATOM     10  C   UNL     1      46.525   1.109   7.625  0.00  0.00    +0.000 A 
ATOM     11  C   UNL     1      47.165   1.955   6.714  0.00  0.00    +0.000 A 
ATOM     12  C   UNL     1      46.897   3.324   6.718  0.00  0.00    +0.000 A 
ATOM     13  C   UNL     1      45.983   3.862   7.629  0.00  0.00    +0.000 A 
ATOM     14  C   UNL     1      45.318   3.031   8.538  0.00  0.00    +0.000 A 
ATOM     15  C   UNL     1      45.597   1.654   8.521  0.00  0.00    +0.000 A 
ENDBRANCH   8  14
ENDBRANCH   2   8
ENDBRANCH   1   5
BRANCH   1  16
ATOM     16  N   UNL     1      47.360   6.610  14.340  0.00  0.00    +0.000 N 
ATOM     17  C   UNL     1      48.546   7.018  14.895  0.00  0.00    +0.000 C 
ATOM     18  O   UNL     1      49.328   6.231  15.421  0.00  0.00    +0.000 OA
ATOM     19  H   UNL     1      46.644   7.302  14.142  0.00  0.00    +0.000 HD
BRANCH  17  20
ATOM     20  C   UNL     1      48.861   8.451  14.771  0.00  0.00    +0.000 A 
ATOM     21  C   UNL     1      49.008   9.227  15.914  0.00  0.00    +0.000 A 
ATOM     22  S   UNL     1      49.456  10.840  15.588  0.00  0.00    +0.000 S 
ATOM     23  C   UNL     1      49.409  10.574  13.909  0.00  0.00    +0.000 A 
ATOM     24  N   UNL     1      49.679  11.577  13.031  0.00  0.00    +0.000 NA
ATOM     25  C   UNL     1      49.578  11.241  11.787  0.00  0.00    +0.000 A 
ATOM     26  N   UNL     1      49.229   9.991  11.343  0.00  0.00    +0.000 N 
ATOM     27  C   UNL     1      48.969   8.942  12.192  0.00  0.00    +0.000 A 
ATOM     28  O   UNL     1      48.694   7.828  11.761  0.00  0.00    +0.000 OA
ATOM     29  C   UNL     1      49.070   9.269  13.600  0.00  0.00    +0.000 A 
ATOM     30  H   UNL     1      49.171   9.790  10.355  0.00  0.00    +0.000 HD
ENDBRANCH  17  20
ENDBRANCH   1  16
TORSDOF 5
ENDMDL
MODEL 4
REMARK VINA RESULT:    -7.316      2.852      4.154
REMARK INTER + INTRA:         -10.421
REMARK INTER:                  -9.581
REMARK INTRA:                  -0.841
REMARK UNBOUND:                -0.967
REMARK  Name = 
REMARK  6 active torsions:
REMARK  status: ('A' for Active; 'I' for Inactive)
REMARK    1  A    between atoms: C_1  and  C_2
REMARK    2  A    between atoms: C_6  and  C_7
REMARK    3  A    between atoms: C_7  and  C_8
REMARK    4  A    between atoms: C_11  and  C_12
REMARK    5  A    between atoms: C_12  and  N_13
REMARK    6  A    between atoms: C_14  and  C_16
REMARK                            x       y       z     vdW  Elec       q    Type
REMARK                         _______ _______ _______ _____ _____    ______ ____
ROOT
ATOM      1  C   UNL     1      46.848   5.335  14.131  0.00  0.00    +0.000 C 
ENDROOT
BRANCH   1   5
ATOM      2  C   UNL     1      44.974   4.175  10.479  0.00  0.00    +0.000 A 
ATOM      3  C   UNL     1      45.484   5.466  10.582  0.00  0.00    +0.000 A 
ATOM      4  C   UNL     1      46.082   5.864  11.776  0.00  0.00    +0.000 A 
ATOM      5  C   UNL     1      46.152   4.974  12.851  0.00  0.00    +0.000 A 
ATOM      6  C   UNL     1      45.601   3.713  12.663  0.00  0.00    +0.000 A 
ATOM      7  N   UNL     1      45.011   3.301  11.516  0.00  0.00    +0.000 NA
BRANCH   2   8
ATOM      8  C   UNL     1      44.430   3.669   9.158  0.00  0.00    +0.000 C 
BRANCH   8  14
ATOM      9  C   UNL     1      46.848  -0.497   7.685  0.00  0.00    +0.000 C 
ATOM     10  C   UNL     1      46.633   0.981   7.551  0.00  0.00    +0.000 A 
ATOM     11  C   UNL     1      47.365   1.740   6.633  0.00  0.00    +0.000 A 
ATOM     12  C   UNL     1      47.167   3.118   6.544  0.00  0.00    +0.000 A 
ATOM     13  C   UNL     1      46.232   3.751   7.368  0.00  0.00    +0.000 A 
ATOM     14  C   UNL     1      45.476   3.008   8.282  0.00  0.00    +0.000 A 
ATOM     15  C   UNL     1      45.685   1.621   8.359  0.00  0.00    +0.000 A 
ENDBRANCH   8  14
ENDBRANCH   2   8
ENDBRANCH   1   5
BRANCH   1  16
ATOM     16  N   UNL     1      47.368   6.679  14.077  0.00  0.00    +0.000 N 
ATOM     17  C   UNL     1      48.500   7.040  14.762  0.00  0.00    +0.000 C 
ATOM     18  O   UNL     1      49.143   6.237  15.434  0.00  0.00    +0.000 OA
ATOM     19  H   UNL     1      46.740   7.404  13.745  0.00  0.00    +0.000 HD
BRANCH  17  20
ATOM     20  C   UNL     1      48.940   8.436  14.600  0.00  0.00    +0.000 A 
ATOM     21  C   UNL     1      49.622   8.817  13.451  0.00  0.00    +0.000 A 
ATOM     22  S   UNL     1      49.978  10.483  13.393  0.00  0.00    +0.000 S 
ATOM     23  C   UNL     1      49.289  10.743  14.926  0.00  0.00    +0.000 A 
ATOM     24  N   UNL     1      49.281  11.980  15.492  0.00  0.00    +0.000 NA
ATOM     25  C   UNL     1      48.751  12.025  16.670  0.00  0.00    +0.000 A 
ATOM     26  N   UNL     1      48.232  10.943  17.334  0.00  0.00    +0.000 N 
ATOM     27  C   UNL     1      48.200   9.680  16.793  0.00  0.00    +0.000 A 
ATOM     28  O   UNL     1      47.696   8.741  17.400  0.00  0.00    +0.000 OA
ATOM     29  C   UNL     1      48.782   9.577  15.470  0.00  0.00    +0.000 A 
ATOM     30  H   UNL     1      47.828  11.045  18.253  0.00  0.00    +0.000 HD
ENDBRANCH  17  20
ENDBRANCH   1  16
TORSDOF 5
ENDMDL
MODEL 5
REMARK VINA RESULT:    -7.251      2.599      3.414
REMARK INTER + INTRA:         -10.338
REMARK INTER:                  -9.375
REMARK INTRA:                  -0.963
REMARK UNBOUND:                -0.967
REMARK  Name = 
REMARK  6 active torsions:
REMARK  status: ('A' for Active; 'I' for Inactive)
REMARK    1  A    between atoms: C_1  and  C_2
REMARK    2  A    between atoms: C_6  and  C_7
REMARK    3  A    between atoms: C_7  and  C_8
REMARK    4  A    between atoms: C_11  and  C_12
REMARK    5  A    between atoms: C_12  and  N_13
REMARK    6  A    between atoms: C_14  and  C_16
REMARK                            x       y       z     vdW  Elec       q    Type
REMARK                         _______ _______ _______ _____ _____    ______ ____
ROOT
ATOM      1  C   UNL     1      48.655   6.822  14.402  0.00  0.00    +0.000 C 
ENDROOT
BRANCH   1   5
ATOM      2  C   UNL     1      45.304   5.922  11.922  0.00  0.00    +0.000 A 
ATOM      3  C   UNL     1      45.932   7.154  11.766  0.00  0.00    +0.000 A 
ATOM      4  C   UNL     1      47.016   7.468  12.584  0.00  0.00    +0.000 A 
ATOM      5  C   UNL     1      47.449   6.555  13.548  0.00  0.00    +0.000 A 
ATOM      6  C   UNL     1      46.751   5.359  13.644  0.00  0.00    +0.000 A 
ATOM      7  N   UNL     1      45.692   5.029  12.867  0.00  0.00    +0.000 NA
BRANCH   2   8
ATOM      8  C   UNL     1      44.203   5.497  10.971  0.00  0.00    +0.000 C 
BRANCH   8  14
ATOM      9  C   UNL     1      46.720   3.858   6.927  0.00  0.00    +0.000 C 
ATOM     10  C   UNL     1      45.840   3.558   8.102  0.00  0.00    +0.000 A 
ATOM     11  C   UNL     1      45.398   2.258   8.364  0.00  0.00    +0.000 A 
ATOM     12  C   UNL     1      44.559   2.006   9.450  0.00  0.00    +0.000 A 
ATOM     13  C   UNL     1      44.155   3.050  10.287  0.00  0.00    +0.000 A 
ATOM     14  C   UNL     1      44.598   4.357  10.053  0.00  0.00    +0.000 A 
ATOM     15  C   UNL     1      45.446   4.595   8.957  0.00  0.00    +0.000 A 
ENDBRANCH   8  14
ENDBRANCH   2   8
ENDBRANCH   1   5
BRANCH   1  16
ATOM     16  N   UNL     1      48.348   6.650  15.801  0.00  0.00    +0.000 N 
ATOM     17  C   UNL     1      49.268   6.145  16.683  0.00  0.00    +0.000 C 
ATOM     18  O   UNL     1      50.406   5.836  16.337  0.00  0.00    +0.000 OA
ATOM     19  H   UNL     1      47.366   6.660  16.063  0.00  0.00    +0.000 HD
BRANCH  17  20
ATOM     20  C   UNL     1      48.837   6.048  18.087  0.00  0.00    +0.000 A 
ATOM     21  C   UNL     1      48.983   4.849  18.774  0.00  0.00    +0.000 A 
ATOM     22  S   UNL     1      48.512   4.941  20.410  0.00  0.00    +0.000 S 
ATOM     23  C   UNL     1      48.040   6.567  20.243  0.00  0.00    +0.000 A 
ATOM     24  N   UNL     1      47.517   7.258  21.291  0.00  0.00    +0.000 NA
ATOM     25  C   UNL     1      47.176   8.473  21.013  0.00  0.00    +0.000 A 
ATOM     26  N   UNL     1      47.308   9.058  19.780  0.00  0.00    +0.000 N 
ATOM     27  C   UNL     1      47.851   8.406  18.698  0.00  0.00    +0.000 A 
ATOM     28  O   UNL     1      47.987   8.970  17.619  0.00  0.00    +0.000 OA
ATOM     29  C   UNL     1      48.251   7.038  18.959  0.00  0.00    +0.000 A 
ATOM     30  H   UNL     1      47.026  10.015  19.628  0.00  0.00    +0.000 HD
ENDBRANCH  17  20
ENDBRANCH   1  16
TORSDOF 5
ENDMDL
MODEL 6
REMARK VINA RESULT:    -7.227      4.149      9.778
REMARK INTER + INTRA:         -10.306
REMARK INTER:                  -9.263
REMARK INTRA:                  -1.042
REMARK UNBOUND:                -0.967
REMARK  Name = 
REMARK  6 active torsions:
REMARK  status: ('A' for Active; 'I' for Inactive)
REMARK    1  A    between atoms: C_1  and  C_2
REMARK    2  A    between atoms: C_6  and  C_7
REMARK    3  A    between atoms: C_7  and  C_8
REMARK    4  A    between atoms: C_11  and  C_12
REMARK    5  A    between atoms: C_12  and  N_13
REMARK    6  A    between atoms: C_14  and  C_16
REMARK                            x       y       z     vdW  Elec       q    Type
REMARK                         _______ _______ _______ _____ _____    ______ ____
ROOT
ATOM      1  C   UNL     1      47.961   4.457  16.231  0.00  0.00    +0.000 C 
ENDROOT
BRANCH   1   5
ATOM      2  C   UNL     1      48.209   7.289  19.410  0.00  0.00    +0.000 A 
ATOM      3  C   UNL     1      47.259   6.274  19.498  0.00  0.00    +0.000 A 
ATOM      4  C   UNL     1      47.155   5.354  18.457  0.00  0.00    +0.000 A 
ATOM      5  C   UNL     1      47.990   5.465  17.343  0.00  0.00    +0.000 A 
ATOM      6  C   UNL     1      48.895   6.519  17.334  0.00  0.00    +0.000 A 
ATOM      7  N   UNL     1      49.015   7.430  18.328  0.00  0.00    +0.000 NA
BRANCH   2   8
ATOM      8  C   UNL     1      48.434   8.230  20.576  0.00  0.00    +0.000 C 
BRANCH   8  14
ATOM      9  C   UNL     1      46.851  12.557  18.540  0.00  0.00    +0.000 C 
ATOM     10  C   UNL     1      46.701  11.501  19.593  0.00  0.00    +0.000 A 
ATOM     11  C   UNL     1      45.703  11.585  20.567  0.00  0.00    +0.000 A 
ATOM     12  C   UNL     1      45.598  10.603  21.553  0.00  0.00    +0.000 A 
ATOM     13  C   UNL     1      46.487   9.525  21.572  0.00  0.00    +0.000 A 
ATOM     14  C   UNL     1      47.484   9.411  20.596  0.00  0.00    +0.000 A 
ATOM     15  C   UNL     1      47.576  10.407  19.608  0.00  0.00    +0.000 A 
ENDBRANCH   8  14
ENDBRANCH   2   8
ENDBRANCH   1   5
BRANCH   1  16
ATOM     16  N   UNL     1      47.003   4.828  15.218  0.00  0.00    +0.000 N 
ATOM     17  C   UNL     1      47.372   5.542  14.108  0.00  0.00    +0.000 C 
ATOM     18  O   UNL     1      48.535   5.881  13.903  0.00  0.00    +0.000 OA
ATOM     19  H   UNL     1      46.021   4.782  15.473  0.00  0.00    +0.000 HD
BRANCH  17  20
ATOM     20  C   UNL     1      46.303   5.832  13.137  0.00  0.00    +0.000 A 
ATOM     21  C   UNL     1      45.980   7.149  12.837  0.00  0.00    +0.000 A 
ATOM     22  S   UNL     1      44.781   7.298  11.634  0.00  0.00    +0.000 S 
ATOM     23  C   UNL     1      44.609   5.610  11.515  0.00  0.00    +0.000 A 
ATOM     24  N   UNL     1      43.710   5.054  10.660  0.00  0.00    +0.000 NA
ATOM     25  C   UNL     1      43.665   3.763  10.695  0.00  0.00    +0.000 A 
ATOM     26  N   UNL     1      44.438   2.978  11.512  0.00  0.00    +0.000 N 
ATOM     27  C   UNL     1      45.374   3.494  12.376  0.00  0.00    +0.000 A 
ATOM     28  O   UNL     1      46.074   2.762  13.067  0.00  0.00    +0.000 OA
ATOM     29  C   UNL     1      45.464   4.941  12.373  0.00  0.00    +0.000 A 
ATOM     30  H   UNL     1      44.359   1.972  11.489  0.00  0.00    +0.000 HD
ENDBRANCH  17  20
ENDBRANCH   1  16
TORSDOF 5
ENDMDL
MODEL 7
REMARK VINA RESULT:    -7.076      1.971      2.451
REMARK INTER + INTRA:         -10.110
REMARK INTER:                  -9.178
REMARK INTRA:                  -0.933
REMARK UNBOUND:                -0.967
REMARK  Name = 
REMARK  6 active torsions:
REMARK  status: ('A' for Active; 'I' for Inactive)
REMARK    1  A    between atoms: C_1  and  C_2
REMARK    2  A    between atoms: C_6  and  C_7
REMARK    3  A    between atoms: C_7  and  C_8
REMARK    4  A    between atoms: C_11  and  C_12
REMARK    5  A    between atoms: C_12  and  N_13
REMARK    6  A    between atoms: C_14  and  C_16
REMARK                            x       y       z     vdW  Elec       q    Type
REMARK                         _______ _______ _______ _____ _____    ______ ____
ROOT
ATOM      1  C   UNL     1      48.658   7.301  14.000  0.00  0.00    +0.000 C 
ENDROOT
BRANCH   1   5
ATOM      2  C   UNL     1      45.625   5.622  11.516  0.00  0.00    +0.000 A 
ATOM      3  C   UNL     1      45.752   5.149  12.820  0.00  0.00    +0.000 A 
ATOM      4  C   UNL     1      46.751   5.676  13.635  0.00  0.00    +0.000 A 
ATOM      5  C   UNL     1      47.613   6.656  13.137  0.00  0.00    +0.000 A 
ATOM      6  C   UNL     1      47.423   7.053  11.820  0.00  0.00    +0.000 A 
ATOM      7  N   UNL     1      46.464   6.557  11.003  0.00  0.00    +0.000 NA
BRANCH   2   8
ATOM      8  C   UNL     1      44.474   5.161  10.644  0.00  0.00    +0.000 C 
BRANCH   8  14
ATOM      9  C   UNL     1      46.732   3.574   6.430  0.00  0.00    +0.000 C 
ATOM     10  C   UNL     1      45.955   3.254   7.671  0.00  0.00    +0.000 A 
ATOM     11  C   UNL     1      45.580   1.942   7.974  0.00  0.00    +0.000 A 
ATOM     12  C   UNL     1      44.834   1.672   9.122  0.00  0.00    +0.000 A 
ATOM     13  C   UNL     1      44.459   2.708   9.981  0.00  0.00    +0.000 A 
ATOM     14  C   UNL     1      44.838   4.028   9.706  0.00  0.00    +0.000 A 
ATOM     15  C   UNL     1      45.591   4.285   8.547  0.00  0.00    +0.000 A 
ENDBRANCH   8  14
ENDBRANCH   2   8
ENDBRANCH   1   5
BRANCH   1  16
ATOM     16  N   UNL     1      48.418   7.028  15.396  0.00  0.00    +0.000 N 
ATOM     17  C   UNL     1      49.017   7.765  16.386  0.00  0.00    +0.000 C 
ATOM     18  O   UNL     1      49.766   8.707  16.139  0.00  0.00    +0.000 OA
ATOM     19  H   UNL     1      48.015   6.125  15.627  0.00  0.00    +0.000 HD
BRANCH  17  20
ATOM     20  C   UNL     1      48.666   7.401  17.768  0.00  0.00    +0.000 A 
ATOM     21  C   UNL     1      48.093   8.348  18.608  0.00  0.00    +0.000 A 
ATOM     22  S   UNL     1      47.674   7.733  20.142  0.00  0.00    +0.000 S 
ATOM     23  C   UNL     1      48.298   6.197  19.760  0.00  0.00    +0.000 A 
ATOM     24  N   UNL     1      48.271   5.183  20.666  0.00  0.00    +0.000 NA
ATOM     25  C   UNL     1      48.805   4.082  20.251  0.00  0.00    +0.000 A 
ATOM     26  N   UNL     1      49.366   3.904  19.012  0.00  0.00    +0.000 N 
ATOM     27  C   UNL     1      49.396   4.893  18.057  0.00  0.00    +0.000 A 
ATOM     28  O   UNL     1      49.873   4.691  16.947  0.00  0.00    +0.000 OA
ATOM     29  C   UNL     1      48.807   6.150  18.475  0.00  0.00    +0.000 A 
ATOM     30  H   UNL     1      49.764   3.016  18.746  0.00  0.00    +0.000 HD
ENDBRANCH  17  20
ENDBRANCH   1  16
TORSDOF 5
ENDMDL
MODEL 8
REMARK VINA RESULT:    -6.990      3.355      8.280
REMARK INTER + INTRA:         -10.000
REMARK INTER:                  -9.210
REMARK INTRA:                  -0.791
REMARK UNBOUND:                -0.967
REMARK  Name = 
REMARK  6 active torsions:
REMARK  status: ('A' for Active; 'I' for Inactive)
REMARK    1  A    between atoms: C_1  and  C_2
REMARK    2  A    between atoms: C_6  and  C_7
REMARK    3  A    between atoms: C_7  and  C_8
REMARK    4  A    between atoms: C_11  and  C_12
REMARK    5  A    between atoms: C_12  and  N_13
REMARK    6  A    between atoms: C_14  and  C_16
REMARK                            x       y       z     vdW  Elec       q    Type
REMARK                         _______ _______ _______ _____ _____    ______ ____
ROOT
ATOM      1  C   UNL     1      48.269   7.614  12.865  0.00  0.00    +0.000 C 
ENDROOT
BRANCH   1   5
ATOM      2  C   UNL     1      49.730   5.873  16.474  0.00  0.00    +0.000 A 
ATOM      3  C   UNL     1      50.500   6.851  15.851  0.00  0.00    +0.000 A 
ATOM      4  C   UNL     1      50.043   7.414  14.661  0.00  0.00    +0.000 A 
ATOM      5  C   UNL     1      48.834   6.987  14.107  0.00  0.00    +0.000 A 
ATOM      6  C   UNL     1      48.143   5.994  14.788  0.00  0.00    +0.000 A 
ATOM      7  N   UNL     1      48.564   5.426  15.943  0.00  0.00    +0.000 NA
BRANCH   2   8
ATOM      8  C   UNL     1      50.134   5.329  17.830  0.00  0.00    +0.000 C 
BRANCH   8  14
ATOM      9  C   UNL     1      54.414   2.739  18.419  0.00  0.00    +0.000 C 
ATOM     10  C   UNL     1      52.958   2.752  18.067  0.00  0.00    +0.000 A 
ATOM     11  C   UNL     1      52.291   1.581  17.693  0.00  0.00    +0.000 A 
ATOM     12  C   UNL     1      50.941   1.622  17.345  0.00  0.00    +0.000 A 
ATOM     13  C   UNL     1      50.241   2.832  17.371  0.00  0.00    +0.000 A 
ATOM     14  C   UNL     1      50.884   4.013  17.758  0.00  0.00    +0.000 A 
ATOM     15  C   UNL     1      52.244   3.957  18.108  0.00  0.00    +0.000 A 
ENDBRANCH   8  14
ENDBRANCH   2   8
ENDBRANCH   1   5
BRANCH   1  16
ATOM     16  N   UNL     1      47.579   6.637  12.059  0.00  0.00    +0.000 N 
ATOM     17  C   UNL     1      46.215   6.654  11.919  0.00  0.00    +0.000 C 
ATOM     18  O   UNL     1      45.513   7.512  12.449  0.00  0.00    +0.000 OA
ATOM     19  H   UNL     1      48.090   5.793  11.819  0.00  0.00    +0.000 HD
BRANCH  17  20
ATOM     20  C   UNL     1      45.639   5.619  11.045  0.00  0.00    +0.000 A 
ATOM     21  C   UNL     1      45.788   5.716   9.667  0.00  0.00    +0.000 A 
ATOM     22  S   UNL     1      45.134   4.391   8.817  0.00  0.00    +0.000 S 
ATOM     23  C   UNL     1      44.576   3.671  10.254  0.00  0.00    +0.000 A 
ATOM     24  N   UNL     1      43.896   2.494  10.231  0.00  0.00    +0.000 NA
ATOM     25  C   UNL     1      43.507   2.079  11.392  0.00  0.00    +0.000 A 
ATOM     26  N   UNL     1      43.735   2.737  12.573  0.00  0.00    +0.000 N 
ATOM     27  C   UNL     1      44.437   3.918  12.646  0.00  0.00    +0.000 A 
ATOM     28  O   UNL     1      44.654   4.462  13.723  0.00  0.00    +0.000 OA
ATOM     29  C   UNL     1      44.896   4.425  11.369  0.00  0.00    +0.000 A 
ATOM     30  H   UNL     1      43.409   2.358  13.449  0.00  0.00    +0.000 HD
ENDBRANCH  17  20
ENDBRANCH   1  16
TORSDOF 5
ENDMDL
MODEL 9
REMARK VINA RESULT:    -6.880      3.779      7.803
REMARK INTER + INTRA:          -9.858
REMARK INTER:                  -8.787
REMARK INTRA:                  -1.070
REMARK UNBOUND:                -0.967
REMARK  Name = 
REMARK  6 active torsions:
REMARK  status: ('A' for Active; 'I' for Inactive)
REMARK    1  A    between atoms: C_1  and  C_2
REMARK    2  A    between atoms: C_6  and  C_7
REMARK    3  A    between atoms: C_7  and  C_8
REMARK    4  A    between atoms: C_11  and  C_12
REMARK    5  A    between atoms: C_12  and  N_13
REMARK    6  A    between atoms: C_14  and  C_16
REMARK                            x       y       z     vdW  Elec       q    Type
REMARK                         _______ _______ _______ _____ _____    ______ ____
ROOT
ATOM      1  C   UNL     1      47.895   8.998  14.019  0.00  0.00    +0.000 C 
ENDROOT
BRANCH   1   5
ATOM      2  C   UNL     1      50.053   6.824  16.986  0.00  0.00    +0.000 A 
ATOM      3  C   UNL     1      49.054   7.700  17.402  0.00  0.00    +0.000 A 
ATOM      4  C   UNL     1      48.355   8.431  16.443  0.00  0.00    +0.000 A 
ATOM      5  C   UNL     1      48.668   8.285  15.090  0.00  0.00    +0.000 A 
ATOM      6  C   UNL     1      49.691   7.402  14.770  0.00  0.00    +0.000 A 
ATOM      7  N   UNL     1      50.391   6.683  15.679  0.00  0.00    +0.000 NA
BRANCH   2   8
ATOM      8  C   UNL     1      50.748   5.925  17.989  0.00  0.00    +0.000 C 
BRANCH   8  14
ATOM      9  C   UNL     1      52.795   1.338  17.610  0.00  0.00    +0.000 C 
ATOM     10  C   UNL     1      51.582   2.215  17.529  0.00  0.00    +0.000 A 
ATOM     11  C   UNL     1      50.329   1.692  17.201  0.00  0.00    +0.000 A 
ATOM     12  C   UNL     1      49.219   2.532  17.107  0.00  0.00    +0.000 A 
ATOM     13  C   UNL     1      49.350   3.903  17.344  0.00  0.00    +0.000 A 
ATOM     14  C   UNL     1      50.592   4.447  17.690  0.00  0.00    +0.000 A 
ATOM     15  C   UNL     1      51.701   3.588  17.783  0.00  0.00    +0.000 A 
ENDBRANCH   8  14
ENDBRANCH   2   8
ENDBRANCH   1   5
BRANCH   1  16
ATOM     16  N   UNL     1      46.755   8.221  13.597  0.00  0.00    +0.000 N 
ATOM     17  C   UNL     1      46.797   7.435  12.474  0.00  0.00    +0.000 C 
ATOM     18  O   UNL     1      47.808   7.331  11.784  0.00  0.00    +0.000 OA
ATOM     19  H   UNL     1      45.854   8.472  13.991  0.00  0.00    +0.000 HD
BRANCH  17  20
ATOM     20  C   UNL     1      45.575   6.671  12.170  0.00  0.00    +0.000 A 
ATOM     21  C   UNL     1      44.470   7.319  11.633  0.00  0.00    +0.000 A 
ATOM     22  S   UNL     1      43.178   6.269  11.265  0.00  0.00    +0.000 S 
ATOM     23  C   UNL     1      44.026   4.922  11.868  0.00  0.00    +0.000 A 
ATOM     24  N   UNL     1      43.466   3.683  11.868  0.00  0.00    +0.000 NA
ATOM     25  C   UNL     1      44.211   2.760  12.381  0.00  0.00    +0.000 A 
ATOM     26  N   UNL     1      45.465   2.966  12.896  0.00  0.00    +0.000 N 
ATOM     27  C   UNL     1      46.079   4.196  12.897  0.00  0.00    +0.000 A 
ATOM     28  O   UNL     1      47.215   4.340  13.334  0.00  0.00    +0.000 OA
ATOM     29  C   UNL     1      45.283   5.267  12.330  0.00  0.00    +0.000 A 
ATOM     30  H   UNL     1      45.999   2.201  13.280  0.00  0.00    +0.000 HD
ENDBRANCH  17  20
ENDBRANCH   1  16
TORSDOF 5
ENDMDL
