MODEL 1
REMARK VINA RESULT:    -8.276      0.000      0.000
REMARK INTER + INTRA:         -11.249
REMARK INTER:                 -10.696
REMARK INTRA:                  -0.553
REMARK UNBOUND:                -0.553
REMARK  Name = 
REMARK  5 active torsions:
REMARK  status: ('A' for Active; 'I' for Inactive)
REMARK    1  A    between atoms: C_2  and  C_4
REMARK    2  A    between atoms: C_8  and  O_9
REMARK    3  A    between atoms: O_9  and  C_10
REMARK    4  A    between atoms: C_10  and  C_11
REMARK    5  A    between atoms: C_15  and  C_16
REMARK                            x       y       z     vdW  Elec       q    Type
REMARK                         _______ _______ _______ _____ _____    ______ ____
ROOT
ATOM      1  C   UNL     1      44.246   6.432  11.390  0.00  0.00    +0.000 C 
ENDROOT
BRANCH   1   2
ATOM      2  C   UNL     1      44.179   5.008  10.920  0.00  0.00    +0.000 A 
ATOM      3  C   UNL     1      43.409   4.071  11.594  0.00  0.00    +0.000 A 
ATOM      4  N   UNL     1      43.300   2.780  11.222  0.00  0.00    +0.000 NA
ATOM      5  C   UNL     1      44.022   2.398  10.139  0.00  0.00    +0.000 A 
ATOM      6  C   UNL     1      44.863   3.227   9.392  0.00  0.00    +0.000 A 
ATOM      7  C   UNL     1      44.918   4.565   9.815  0.00  0.00    +0.000 A 
BRANCH   6   8
ATOM      8  C   UNL     1      45.674   2.727   8.261  0.00  0.00    +0.000 A 
ATOM      9  C   UNL     1      45.972   3.537   7.150  0.00  0.00    +0.000 A 
ATOM     10  C   UNL     1      46.798   3.083   6.115  0.00  0.00    +0.000 A 
ATOM     11  C   UNL     1      47.334   1.800   6.163  0.00  0.00    +0.000 A 
ATOM     12  C   UNL     1      47.034   0.968   7.236  0.00  0.00    +0.000 A 
ATOM     13  C   UNL     1      46.215   1.428   8.271  0.00  0.00    +0.000 A 
ENDBRANCH   6   8
ENDBRANCH   1   2
BRANCH   1  14
ATOM     14  O   UNL     1      45.594   6.883  11.286  0.00  0.00    +0.000 OA
BRANCH  14  19
ATOM     15  C   UNL     1      47.289   5.448  14.251  0.00  0.00    +0.000 A 
ATOM     16  C   UNL     1      48.152   6.509  14.480  0.00  0.00    +0.000 A 
ATOM     17  N   UNL     1      48.199   7.612  13.696  0.00  0.00    +0.000 NA
ATOM     18  C   UNL     1      47.328   7.656  12.659  0.00  0.00    +0.000 A 
ATOM     19  C   UNL     1      46.406   6.656  12.361  0.00  0.00    +0.000 A 
ATOM     20  C   UNL     1      46.393   5.529  13.180  0.00  0.00    +0.000 A 
BRANCH  15  22
ATOM     21  N   UNL     1      47.161   4.529  16.494  0.00  0.00    +0.000 N 
ATOM     22  C   UNL     1      47.328   4.285  15.160  0.00  0.00    +0.000 C 
ATOM     23  O   UNL     1      47.472   3.146  14.736  0.00  0.00    +0.000 OA
ATOM     24  H   UNL     1      47.078   3.712  17.088  0.00  0.00    +0.000 HD
ATOM     25  H   UNL     1      46.764   5.392  16.842  0.00  0.00    +0.000 HD
ENDBRANCH  15  22
ENDBRANCH  14  19
ENDBRANCH   1  14
TORSDOF 5
ENDMDL
MODEL 2
REMARK VINA RESULT:    -8.071      2.881      6.587
REMARK INTER + INTRA:         -10.984
REMARK INTER:                 -10.626
REMARK INTRA:                  -0.358
REMARK UNBOUND:                -0.553
REMARK  Name = 
REMARK  5 active torsions:
REMARK  status: ('A' for Active; 'I' for Inactive)
REMARK    1  A    between atoms: C_2  and  C_4
REMARK    2  A    between atoms: C_8  and  O_9
REMARK    3  A    between atoms: O_9  and  C_10
REMARK    4  A    between atoms: C_10  and  C_11
REMARK    5  A    between atoms: C_15  and  C_16
REMARK                            x       y       z     vdW  Elec       q    Type
REMARK                         _______ _______ _______ _____ _____    ______ ____
ROOT
ATOM      1  C   UNL     1      43.521   4.478  10.903  0.00  0.00    +0.000 C 
ENDROOT
BRANCH   1   2
ATOM      2  C   UNL     1      44.659   4.714  11.852  0.00  0.00    +0.000 A 
ATOM      3  C   UNL     1      44.801   3.947  13.000  0.00  0.00    +0.000 A 
ATOM      4  N   UNL     1      45.802   4.104  13.889  0.00  0.00    +0.000 NA
ATOM      5  C   UNL     1      46.691   5.097  13.634  0.00  0.00    +0.000 A 
ATOM      6  C   UNL     1      46.645   5.963  12.538  0.00  0.00    +0.000 A 
ATOM      7  C   UNL     1      45.592   5.737  11.637  0.00  0.00    +0.000 A 
BRANCH   6   8
ATOM      8  C   UNL     1      47.610   7.068  12.358  0.00  0.00    +0.000 A 
ATOM      9  C   UNL     1      47.186   8.387  12.113  0.00  0.00    +0.000 A 
ATOM     10  C   UNL     1      48.100   9.442  12.013  0.00  0.00    +0.000 A 
ATOM     11  C   UNL     1      49.464   9.198  12.142  0.00  0.00    +0.000 A 
ATOM     12  C   UNL     1      49.913   7.900  12.357  0.00  0.00    +0.000 A 
ATOM     13  C   UNL     1      48.996   6.850  12.464  0.00  0.00    +0.000 A 
ENDBRANCH   6   8
ENDBRANCH   1   2
BRANCH   1  14
ATOM     14  O   UNL     1      43.698   3.204  10.287  0.00  0.00    +0.000 OA
BRANCH  14  19
ATOM     15  C   UNL     1      46.258   2.037   7.879  0.00  0.00    +0.000 A 
ATOM     16  C   UNL     1      46.545   3.277   7.326  0.00  0.00    +0.000 A 
ATOM     17  N   UNL     1      45.919   4.419   7.696  0.00  0.00    +0.000 NA
ATOM     18  C   UNL     1      44.988   4.310   8.674  0.00  0.00    +0.000 A 
ATOM     19  C   UNL     1      44.647   3.118   9.309  0.00  0.00    +0.000 A 
ATOM     20  C   UNL     1      45.301   1.959   8.896  0.00  0.00    +0.000 A 
BRANCH  15  22
ATOM     21  N   UNL     1      47.902   1.046   6.393  0.00  0.00    +0.000 N 
ATOM     22  C   UNL     1      46.992   0.850   7.393  0.00  0.00    +0.000 C 
ATOM     23  O   UNL     1      46.816  -0.256   7.885  0.00  0.00    +0.000 OA
ATOM     24  H   UNL     1      48.474   0.245   6.151  0.00  0.00    +0.000 HD
ATOM     25  H   UNL     1      48.272   1.960   6.167  0.00  0.00    +0.000 HD
ENDBRANCH  15  22
ENDBRANCH  14  19
ENDBRANCH   1  14
TORSDOF 5
ENDMDL
MODEL 3
REMARK VINA RESULT:    -8.054      1.492      2.768
REMARK INTER + INTRA:         -10.961
REMARK INTER:                 -10.092
REMARK INTRA:                  -0.869
REMARK UNBOUND:                -0.553
REMARK  Name = 
REMARK  5 active torsions:
REMARK  status: ('A' for Active; 'I' for Inactive)
REMARK    1  A    between atoms: C_2  and  C_4
REMARK    2  A    between atoms: C_8  and  O_9
REMARK    3  A    between atoms: O_9  and  C_10
REMARK    4  A    between atoms: C_10  and  C_11
REMARK    5  A    between atoms: C_15  and  C_16
REMARK                            x       y       z     vdW  Elec       q    Type
REMARK                         _______ _______ _______ _____ _____    ______ ____
ROOT
ATOM      1  C   UNL     1      44.107   6.459  11.464  0.00  0.00    +0.000 C 
ENDROOT
BRANCH   1   2
ATOM      2  C   UNL     1      44.085   5.033  10.998  0.00  0.00    +0.000 A 
ATOM      3  C   UNL     1      43.343   4.074  11.673  0.00  0.00    +0.000 A 
ATOM      4  N   UNL     1      43.276   2.779  11.304  0.00  0.00    +0.000 NA
ATOM      5  C   UNL     1      44.011   2.417  10.223  0.00  0.00    +0.000 A 
ATOM      6  C   UNL     1      44.827   3.270   9.475  0.00  0.00    +0.000 A 
ATOM      7  C   UNL     1      44.839   4.611   9.895  0.00  0.00    +0.000 A 
BRANCH   6   8
ATOM      8  C   UNL     1      45.654   2.793   8.347  0.00  0.00    +0.000 A 
ATOM      9  C   UNL     1      46.001   3.637   7.276  0.00  0.00    +0.000 A 
ATOM     10  C   UNL     1      46.843   3.201   6.246  0.00  0.00    +0.000 A 
ATOM     11  C   UNL     1      47.346   1.904   6.257  0.00  0.00    +0.000 A 
ATOM     12  C   UNL     1      46.997   1.039   7.289  0.00  0.00    +0.000 A 
ATOM     13  C   UNL     1      46.162   1.481   8.320  0.00  0.00    +0.000 A 
ENDBRANCH   6   8
ENDBRANCH   1   2
BRANCH   1  14
ATOM     14  O   UNL     1      44.739   6.513  12.740  0.00  0.00    +0.000 OA
BRANCH  14  19
ATOM     15  C   UNL     1      48.204   7.728  12.251  0.00  0.00    +0.000 A 
ATOM     16  C   UNL     1      48.841   6.692  12.919  0.00  0.00    +0.000 A 
ATOM     17  N   UNL     1      48.177   5.675  13.518  0.00  0.00    +0.000 NA
ATOM     18  C   UNL     1      46.825   5.692  13.419  0.00  0.00    +0.000 A 
ATOM     19  C   UNL     1      46.096   6.672  12.751  0.00  0.00    +0.000 A 
ATOM     20  C   UNL     1      46.809   7.710  12.156  0.00  0.00    +0.000 A 
BRANCH  15  22
ATOM     21  N   UNL     1      50.344   8.524  11.429  0.00  0.00    +0.000 N 
ATOM     22  C   UNL     1      49.023   8.797  11.643  0.00  0.00    +0.000 C 
ATOM     23  O   UNL     1      48.534   9.869  11.316  0.00  0.00    +0.000 OA
ATOM     24  H   UNL     1      50.863   9.224  10.910  0.00  0.00    +0.000 HD
ATOM     25  H   UNL     1      50.710   7.581  11.419  0.00  0.00    +0.000 HD
ENDBRANCH  15  22
ENDBRANCH  14  19
ENDBRANCH   1  14
TORSDOF 5
ENDMDL
MODEL 4
REMARK VINA RESULT:    -7.670      1.487      1.881
REMARK INTER + INTRA:         -10.465
REMARK INTER:                  -9.696
REMARK INTRA:                  -0.769
REMARK UNBOUND:                -0.553
REMARK  Name = 
REMARK  5 active torsions:
REMARK  status: ('A' for Active; 'I' for Inactive)
REMARK    1  A    between atoms: C_2  and  C_4
REMARK    2  A    between atoms: C_8  and  O_9
REMARK    3  A    between atoms: O_9  and  C_10
REMARK    4  A    between atoms: C_10  and  C_11
REMARK    5  A    between atoms: C_15  and  C_16
REMARK                            x       y       z     vdW  Elec       q    Type
REMARK                         _______ _______ _______ _____ _____    ______ ____
ROOT
ATOM      1  C   UNL     1      45.823   7.048  12.739  0.00  0.00    +0.000 C 
ENDROOT
BRANCH   1   2
ATOM      2  C   UNL     1      45.040   6.021  11.975  0.00  0.00    +0.000 A 
ATOM      3  C   UNL     1      43.744   5.692  12.345  0.00  0.00    +0.000 A 
ATOM      4  N   UNL     1      42.985   4.784  11.699  0.00  0.00    +0.000 NA
ATOM      5  C   UNL     1      43.561   4.151  10.647  0.00  0.00    +0.000 A 
ATOM      6  C   UNL     1      44.865   4.359  10.191  0.00  0.00    +0.000 A 
ATOM      7  C   UNL     1      45.599   5.331  10.891  0.00  0.00    +0.000 A 
BRANCH   6   8
ATOM      8  C   UNL     1      45.452   3.583   9.078  0.00  0.00    +0.000 A 
ATOM      9  C   UNL     1      46.036   4.214   7.964  0.00  0.00    +0.000 A 
ATOM     10  C   UNL     1      46.653   3.477   6.947  0.00  0.00    +0.000 A 
ATOM     11  C   UNL     1      46.687   2.087   7.015  0.00  0.00    +0.000 A 
ATOM     12  C   UNL     1      46.093   1.436   8.090  0.00  0.00    +0.000 A 
ATOM     13  C   UNL     1      45.485   2.177   9.108  0.00  0.00    +0.000 A 
ENDBRANCH   6   8
ENDBRANCH   1   2
BRANCH   1  14
ATOM     14  O   UNL     1      47.180   6.618  12.822  0.00  0.00    +0.000 OA
BRANCH  14  19
ATOM     15  C   UNL     1      47.843   4.716  15.931  0.00  0.00    +0.000 A 
ATOM     16  C   UNL     1      48.648   5.667  16.540  0.00  0.00    +0.000 A 
ATOM     17  N   UNL     1      48.979   6.845  15.959  0.00  0.00    +0.000 NA
ATOM     18  C   UNL     1      48.460   7.080  14.729  0.00  0.00    +0.000 A 
ATOM     19  C   UNL     1      47.622   6.202  14.045  0.00  0.00    +0.000 A 
ATOM     20  C   UNL     1      47.312   4.995  14.667  0.00  0.00    +0.000 A 
BRANCH  15  22
ATOM     21  N   UNL     1      48.516   2.488  16.618  0.00  0.00    +0.000 N 
ATOM     22  C   UNL     1      47.554   3.458  16.648  0.00  0.00    +0.000 C 
ATOM     23  O   UNL     1      46.512   3.301  17.270  0.00  0.00    +0.000 OA
ATOM     24  H   UNL     1      48.349   1.680  17.207  0.00  0.00    +0.000 HD
ATOM     25  H   UNL     1      49.476   2.683  16.367  0.00  0.00    +0.000 HD
ENDBRANCH  15  22
ENDBRANCH  14  19
ENDBRANCH   1  14
TORSDOF 5
ENDMDL
MODEL 5
REMARK VINA RESULT:    -7.380      2.069      3.470
REMARK INTER + INTRA:         -10.091
REMARK INTER:                  -9.357
REMARK INTRA:                  -0.734
REMARK UNBOUND:                -0.553
REMARK  Name = 
REMARK  5 active torsions:
REMARK  status: ('A' for Active; 'I' for Inactive)
REMARK    1  A    between atoms: C_2  and  C_4
REMARK    2  A    between atoms: C_8  and  O_9
REMARK    3  A    between atoms: O_9  and  C_10
REMARK    4  A    between atoms: C_10  and  C_11
REMARK    5  A    between atoms: C_15  and  C_16
REMARK                            x       y       z     vdW  Elec       q    Type
REMARK                         _______ _______ _______ _____ _____    ______ ____
ROOT
ATOM      1  C   UNL     1      44.625   5.579  12.872  0.00  0.00    +0.000 C 
ENDROOT
BRANCH   1   2
ATOM      2  C   UNL     1      44.354   4.403  11.981  0.00  0.00    +0.000 A 
ATOM      3  C   UNL     1      43.415   3.444  12.331  0.00  0.00    +0.000 A 
ATOM      4  N   UNL     1      43.121   2.368  11.574  0.00  0.00    +0.000 NA
ATOM      5  C   UNL     1      43.822   2.228  10.421  0.00  0.00    +0.000 A 
ATOM      6  C   UNL     1      44.817   3.097   9.967  0.00  0.00    +0.000 A 
ATOM      7  C   UNL     1      45.064   4.210  10.788  0.00  0.00    +0.000 A 
BRANCH   6   8
ATOM      8  C   UNL     1      45.588   2.847   8.731  0.00  0.00    +0.000 A 
ATOM      9  C   UNL     1      45.883   3.878   7.821  0.00  0.00    +0.000 A 
ATOM     10  C   UNL     1      46.674   3.650   6.689  0.00  0.00    +0.000 A 
ATOM     11  C   UNL     1      47.177   2.378   6.434  0.00  0.00    +0.000 A 
ATOM     12  C   UNL     1      46.879   1.334   7.301  0.00  0.00    +0.000 A 
ATOM     13  C   UNL     1      46.095   1.567   8.436  0.00  0.00    +0.000 A 
ENDBRANCH   6   8
ENDBRANCH   1   2
BRANCH   1  14
ATOM     14  O   UNL     1      46.019   5.875  12.827  0.00  0.00    +0.000 OA
BRANCH  14  19
ATOM     15  C   UNL     1      46.008   9.499  12.062  0.00  0.00    +0.000 A 
ATOM     16  C   UNL     1      47.385   9.657  11.984  0.00  0.00    +0.000 A 
ATOM     17  N   UNL     1      48.263   8.649  12.199  0.00  0.00    +0.000 NA
ATOM     18  C   UNL     1      47.732   7.433  12.478  0.00  0.00    +0.000 A 
ATOM     19  C   UNL     1      46.368   7.167  12.553  0.00  0.00    +0.000 A 
ATOM     20  C   UNL     1      45.492   8.229  12.339  0.00  0.00    +0.000 A 
BRANCH  15  22
ATOM     21  N   UNL     1      43.806  10.517  12.076  0.00  0.00    +0.000 N 
ATOM     22  C   UNL     1      45.139  10.669  11.822  0.00  0.00    +0.000 C 
ATOM     23  O   UNL     1      45.597  11.739  11.444  0.00  0.00    +0.000 OA
ATOM     24  H   UNL     1      43.244  11.359  12.015  0.00  0.00    +0.000 HD
ATOM     25  H   UNL     1      43.443   9.764  12.646  0.00  0.00    +0.000 HD
ENDBRANCH  15  22
ENDBRANCH  14  19
ENDBRANCH   1  14
TORSDOF 5
ENDMDL
MODEL 6
REMARK VINA RESULT:    -7.316      1.368      1.833
REMARK INTER + INTRA:         -10.007
REMARK INTER:                 -10.169
REMARK INTRA:                   0.162
REMARK UNBOUND:                -0.553
REMARK  Name = 
REMARK  5 active torsions:
REMARK  status: ('A' for Active; 'I' for Inactive)
REMARK    1  A    between atoms: C_2  and  C_4
REMARK    2  A    between atoms: C_8  and  O_9
REMARK    3  A    between atoms: O_9  and  C_10
REMARK    4  A    between atoms: C_10  and  C_11
REMARK    5  A    between atoms: C_15  and  C_16
REMARK                            x       y       z     vdW  Elec       q    Type
REMARK                         _______ _______ _______ _____ _____    ______ ____
ROOT
ATOM      1  C   UNL     1      45.246   6.535  11.412  0.00  0.00    +0.000 C 
ENDROOT
BRANCH   1   2
ATOM      2  C   UNL     1      44.840   5.219  10.814  0.00  0.00    +0.000 A 
ATOM      3  C   UNL     1      43.791   4.487  11.350  0.00  0.00    +0.000 A 
ATOM      4  N   UNL     1      43.372   3.304  10.858  0.00  0.00    +0.000 NA
ATOM      5  C   UNL     1      44.055   2.813   9.794  0.00  0.00    +0.000 A 
ATOM      6  C   UNL     1      45.149   3.428   9.180  0.00  0.00    +0.000 A 
ATOM      7  C   UNL     1      45.525   4.667   9.723  0.00  0.00    +0.000 A 
BRANCH   6   8
ATOM      8  C   UNL     1      45.890   2.803   8.064  0.00  0.00    +0.000 A 
ATOM      9  C   UNL     1      46.203   3.517   6.892  0.00  0.00    +0.000 A 
ATOM     10  C   UNL     1      46.965   2.943   5.868  0.00  0.00    +0.000 A 
ATOM     11  C   UNL     1      47.420   1.633   5.988  0.00  0.00    +0.000 A 
ATOM     12  C   UNL     1      47.102   0.895   7.122  0.00  0.00    +0.000 A 
ATOM     13  C   UNL     1      46.347   1.475   8.146  0.00  0.00    +0.000 A 
ENDBRANCH   6   8
ENDBRANCH   1   2
BRANCH   1  14
ATOM     14  O   UNL     1      46.630   6.474  11.747  0.00  0.00    +0.000 OA
BRANCH  14  19
ATOM     15  C   UNL     1      48.038   5.865  15.119  0.00  0.00    +0.000 A 
ATOM     16  C   UNL     1      47.410   4.649  15.345  0.00  0.00    +0.000 A 
ATOM     17  N   UNL     1      46.556   4.078  14.463  0.00  0.00    +0.000 NA
ATOM     18  C   UNL     1      46.346   4.746  13.303  0.00  0.00    +0.000 A 
ATOM     19  C   UNL     1      46.947   5.958  12.971  0.00  0.00    +0.000 A 
ATOM     20  C   UNL     1      47.811   6.524  13.906  0.00  0.00    +0.000 A 
BRANCH  15  22
ATOM     21  N   UNL     1      48.532   7.528  16.816  0.00  0.00    +0.000 N 
ATOM     22  C   UNL     1      48.943   6.406  16.153  0.00  0.00    +0.000 C 
ATOM     23  O   UNL     1      50.000   5.857  16.429  0.00  0.00    +0.000 OA
ATOM     24  H   UNL     1      49.109   7.819  17.597  0.00  0.00    +0.000 HD
ATOM     25  H   UNL     1      47.568   7.835  16.819  0.00  0.00    +0.000 HD
ENDBRANCH  15  22
ENDBRANCH  14  19
ENDBRANCH   1  14
TORSDOF 5
ENDMDL
MODEL 7
REMARK VINA RESULT:    -6.940      2.487      4.051
REMARK INTER + INTRA:          -9.522
REMARK INTER:                  -8.751
REMARK INTRA:                  -0.770
REMARK UNBOUND:                -0.553
REMARK  Name = 
REMARK  5 active torsions:
REMARK  status: ('A' for Active; 'I' for Inactive)
REMARK    1  A    between atoms: C_2  and  C_4
REMARK    2  A    between atoms: C_8  and  O_9
REMARK    3  A    between atoms: O_9  and  C_10
REMARK    4  A    between atoms: C_10  and  C_11
REMARK    5  A    between atoms: C_15  and  C_16
REMARK                            x       y       z     vdW  Elec       q    Type
REMARK                         _______ _______ _______ _____ _____    ______ ____
ROOT
ATOM      1  C   UNL     1      48.430   7.787  13.526  0.00  0.00    +0.000 C 
ENDROOT
BRANCH   1   2
ATOM      2  C   UNL     1      47.143   7.639  12.768  0.00  0.00    +0.000 A 
ATOM      3  C   UNL     1      46.147   8.600  12.861  0.00  0.00    +0.000 A 
ATOM      4  N   UNL     1      44.973   8.531  12.203  0.00  0.00    +0.000 NA
ATOM      5  C   UNL     1      44.771   7.430  11.435  0.00  0.00    +0.000 A 
ATOM      6  C   UNL     1      45.672   6.374  11.282  0.00  0.00    +0.000 A 
ATOM      7  C   UNL     1      46.886   6.513  11.975  0.00  0.00    +0.000 A 
BRANCH   6   8
ATOM      8  C   UNL     1      45.359   5.171  10.481  0.00  0.00    +0.000 A 
ATOM      9  C   UNL     1      44.650   4.084  11.025  0.00  0.00    +0.000 A 
ATOM     10  C   UNL     1      44.294   2.979  10.244  0.00  0.00    +0.000 A 
ATOM     11  C   UNL     1      44.654   2.929   8.900  0.00  0.00    +0.000 A 
ATOM     12  C   UNL     1      45.380   3.977   8.343  0.00  0.00    +0.000 A 
ATOM     13  C   UNL     1      45.726   5.083   9.125  0.00  0.00    +0.000 A 
ENDBRANCH   6   8
ENDBRANCH   1   2
BRANCH   1  14
ATOM     14  O   UNL     1      48.840   6.501  13.984  0.00  0.00    +0.000 OA
BRANCH  14  19
ATOM     15  C   UNL     1      47.998   4.869  17.201  0.00  0.00    +0.000 A 
ATOM     16  C   UNL     1      48.248   5.965  18.015  0.00  0.00    +0.000 A 
ATOM     17  N   UNL     1      48.693   7.154  17.545  0.00  0.00    +0.000 NA
ATOM     18  C   UNL     1      48.869   7.248  16.204  0.00  0.00    +0.000 A 
ATOM     19  C   UNL     1      48.623   6.216  15.302  0.00  0.00    +0.000 A 
ATOM     20  C   UNL     1      48.178   5.002  15.820  0.00  0.00    +0.000 A 
BRANCH  15  22
ATOM     21  N   UNL     1      48.220   3.152  18.902  0.00  0.00    +0.000 N 
ATOM     22  C   UNL     1      47.528   3.612  17.818  0.00  0.00    +0.000 C 
ATOM     23  O   UNL     1      46.540   3.025  17.398  0.00  0.00    +0.000 OA
ATOM     24  H   UNL     1      47.818   2.354  19.379  0.00  0.00    +0.000 HD
ATOM     25  H   UNL     1      48.844   3.741  19.438  0.00  0.00    +0.000 HD
ENDBRANCH  15  22
ENDBRANCH  14  19
ENDBRANCH   1  14
TORSDOF 5
ENDMDL
MODEL 8
REMARK VINA RESULT:    -6.931      2.385      4.389
REMARK INTER + INTRA:          -9.510
REMARK INTER:                  -8.798
REMARK INTRA:                  -0.712
REMARK UNBOUND:                -0.553
REMARK  Name = 
REMARK  5 active torsions:
REMARK  status: ('A' for Active; 'I' for Inactive)
REMARK    1  A    between atoms: C_2  and  C_4
REMARK    2  A    between atoms: C_8  and  O_9
REMARK    3  A    between atoms: O_9  and  C_10
REMARK    4  A    between atoms: C_10  and  C_11
REMARK    5  A    between atoms: C_15  and  C_16
REMARK                            x       y       z     vdW  Elec       q    Type
REMARK                         _______ _______ _______ _____ _____    ______ ____
ROOT
ATOM      1  C   UNL     1      48.065   7.186  14.237  0.00  0.00    +0.000 C 
ENDROOT
BRANCH   1   2
ATOM      2  C   UNL     1      46.968   7.256  13.214  0.00  0.00    +0.000 A 
ATOM      3  C   UNL     1      46.153   8.375  13.119  0.00  0.00    +0.000 A 
ATOM      4  N   UNL     1      45.156   8.504  12.221  0.00  0.00    +0.000 NA
ATOM      5  C   UNL     1      44.943   7.449  11.394  0.00  0.00    +0.000 A 
ATOM      6  C   UNL     1      45.665   6.253  11.406  0.00  0.00    +0.000 A 
ATOM      7  C   UNL     1      46.703   6.186  12.349  0.00  0.00    +0.000 A 
BRANCH   6   8
ATOM      8  C   UNL     1      45.335   5.117  10.519  0.00  0.00    +0.000 A 
ATOM      9  C   UNL     1      45.699   5.110   9.160  0.00  0.00    +0.000 A 
ATOM     10  C   UNL     1      45.447   4.002   8.342  0.00  0.00    +0.000 A 
ATOM     11  C   UNL     1      44.811   2.879   8.864  0.00  0.00    +0.000 A 
ATOM     12  C   UNL     1      44.416   2.870  10.197  0.00  0.00    +0.000 A 
ATOM     13  C   UNL     1      44.677   3.975  11.013  0.00  0.00    +0.000 A 
ENDBRANCH   6   8
ENDBRANCH   1   2
BRANCH   1  14
ATOM     14  O   UNL     1      48.439   5.822  14.410  0.00  0.00    +0.000 OA
BRANCH  14  19
ATOM     15  C   UNL     1      48.153   4.841  17.970  0.00  0.00    +0.000 A 
ATOM     16  C   UNL     1      47.218   3.830  17.790  0.00  0.00    +0.000 A 
ATOM     17  N   UNL     1      46.692   3.510  16.585  0.00  0.00    +0.000 NA
ATOM     18  C   UNL     1      47.142   4.218  15.520  0.00  0.00    +0.000 A 
ATOM     19  C   UNL     1      48.094   5.232  15.592  0.00  0.00    +0.000 A 
ATOM     20  C   UNL     1      48.606   5.544  16.850  0.00  0.00    +0.000 A 
BRANCH  15  22
ATOM     21  N   UNL     1      48.711   4.066  20.201  0.00  0.00    +0.000 N 
ATOM     22  C   UNL     1      48.653   5.118  19.332  0.00  0.00    +0.000 C 
ATOM     23  O   UNL     1      49.030   6.235  19.659  0.00  0.00    +0.000 OA
ATOM     24  H   UNL     1      49.161   4.249  21.091  0.00  0.00    +0.000 HD
ATOM     25  H   UNL     1      48.683   3.103  19.891  0.00  0.00    +0.000 HD
ENDBRANCH  15  22
ENDBRANCH  14  19
ENDBRANCH   1  14
TORSDOF 5
ENDMDL
MODEL 9
REMARK VINA RESULT:    -6.924      2.376      3.163
REMARK INTER + INTRA:          -9.501
REMARK INTER:                  -8.724
REMARK INTRA:                  -0.777
REMARK UNBOUND:                -0.553
REMARK  Name = 
REMARK  5 active torsions:
REMARK  status: ('A' for Active; 'I' for Inactive)
REMARK    1  A    between atoms: C_2  and  C_4
REMARK    2  A    between atoms: C_8  and  O_9
REMARK    3  A    between atoms: O_9  and  C_10
REMARK    4  A    between atoms: C_10  and  C_11
REMARK    5  A    between atoms: C_15  and  C_16
REMARK                            x       y       z     vdW  Elec       q    Type
REMARK                         _______ _______ _______ _____ _____    ______ ____
ROOT
ATOM      1  C   UNL     1      44.866   7.277  12.285  0.00  0.00    +0.000 C 
ENDROOT
BRANCH   1   2
ATOM      2  C   UNL     1      44.437   5.943  11.746  0.00  0.00    +0.000 A 
ATOM      3  C   UNL     1      43.407   5.231  12.342  0.00  0.00    +0.000 A 
ATOM      4  N   UNL     1      42.969   4.034  11.906  0.00  0.00    +0.000 NA
ATOM      5  C   UNL     1      43.614   3.506  10.835  0.00  0.00    +0.000 A 
ATOM      6  C   UNL     1      44.686   4.098  10.162  0.00  0.00    +0.000 A 
ATOM      7  C   UNL     1      45.083   5.353  10.651  0.00  0.00    +0.000 A 
BRANCH   6   8
ATOM      8  C   UNL     1      45.386   3.434   9.042  0.00  0.00    +0.000 A 
ATOM      9  C   UNL     1      45.968   4.170   7.993  0.00  0.00    +0.000 A 
ATOM     10  C   UNL     1      46.690   3.542   6.973  0.00  0.00    +0.000 A 
ATOM     11  C   UNL     1      46.835   2.158   6.970  0.00  0.00    +0.000 A 
ATOM     12  C   UNL     1      46.247   1.403   7.979  0.00  0.00    +0.000 A 
ATOM     13  C   UNL     1      45.533   2.035   9.002  0.00  0.00    +0.000 A 
ENDBRANCH   6   8
ENDBRANCH   1   2
BRANCH   1  14
ATOM     14  O   UNL     1      46.135   7.126  12.916  0.00  0.00    +0.000 OA
BRANCH  14  19
ATOM     15  C   UNL     1      49.393   8.436  11.735  0.00  0.00    +0.000 A 
ATOM     16  C   UNL     1      48.989   9.752  11.558  0.00  0.00    +0.000 A 
ATOM     17  N   UNL     1      47.724  10.179  11.782  0.00  0.00    +0.000 NA
ATOM     18  C   UNL     1      46.840   9.249  12.222  0.00  0.00    +0.000 A 
ATOM     19  C   UNL     1      47.152   7.912  12.454  0.00  0.00    +0.000 A 
ATOM     20  C   UNL     1      48.460   7.504  12.203  0.00  0.00    +0.000 A 
BRANCH  15  22
ATOM     21  N   UNL     1      51.755   8.608  12.262  0.00  0.00    +0.000 N 
ATOM     22  C   UNL     1      50.795   8.074  11.450  0.00  0.00    +0.000 C 
ATOM     23  O   UNL     1      51.085   7.303  10.545  0.00  0.00    +0.000 OA
ATOM     24  H   UNL     1      52.698   8.261  12.123  0.00  0.00    +0.000 HD
ATOM     25  H   UNL     1      51.541   9.004  13.168  0.00  0.00    +0.000 HD
ENDBRANCH  15  22
ENDBRANCH  14  19
ENDBRANCH   1  14
TORSDOF 5
ENDMDL
