MODEL 1
REMARK VINA RESULT:    -7.708      0.000      0.000
REMARK INTER + INTRA:         -10.533
REMARK INTER:                  -9.961
REMARK INTRA:                  -0.572
REMARK UNBOUND:                -0.572
REMARK  Name = 
REMARK  5 active torsions:
REMARK  status: ('A' for Active; 'I' for Inactive)
REMARK    1  A    between atoms: C_2  and  C_3
REMARK    2  A    between atoms: C_7  and  C_8
REMARK    3  A    between atoms: C_8  and  O_9
REMARK    4  A    between atoms: O_9  and  C_10
REMARK    5  A    between atoms: C_14  and  C_15
REMARK                            x       y       z     vdW  Elec       q    Type
REMARK                         _______ _______ _______ _____ _____    ______ ____
ROOT
ATOM      1  C   UNL     1      44.010   4.833  10.544  0.00  0.00    +0.000 A 
ATOM      2  C   UNL     1      43.326   3.854  11.249  0.00  0.00    +0.000 A 
ATOM      3  N   UNL     1      43.391   2.534  10.978  0.00  0.00    +0.000 NA
ATOM      4  C   UNL     1      44.192   2.174   9.948  0.00  0.00    +0.000 A 
ATOM      5  C   UNL     1      44.952   3.056   9.172  0.00  0.00    +0.000 A 
ATOM      6  C   UNL     1      44.844   4.420   9.505  0.00  0.00    +0.000 A 
ENDROOT
BRANCH   5   7
ATOM      7  C   UNL     1      45.810   2.578   8.066  0.00  0.00    +0.000 A 
ATOM      8  C   UNL     1      46.402   1.298   8.095  0.00  0.00    +0.000 A 
ATOM      9  C   UNL     1      47.197   0.831   7.041  0.00  0.00    +0.000 A 
ATOM     10  C   UNL     1      47.423   1.642   5.935  0.00  0.00    +0.000 A 
ATOM     11  C   UNL     1      46.856   2.907   5.895  0.00  0.00    +0.000 A 
ATOM     12  F   UNL     1      47.073   3.693   4.833  0.00  0.00    +0.000 F 
ATOM     13  C   UNL     1      46.060   3.375   6.937  0.00  0.00    +0.000 A 
ENDBRANCH   5   7
BRANCH   1  14
ATOM     14  O   UNL     1      43.836   6.120  10.961  0.00  0.00    +0.000 OA
BRANCH  14  15
ATOM     15  C   UNL     1      43.821   6.322  12.377  0.00  0.00    +0.000 C 
BRANCH  15  20
ATOM     16  C   UNL     1      46.955   5.140  14.160  0.00  0.00    +0.000 A 
ATOM     17  C   UNL     1      47.835   6.165  13.820  0.00  0.00    +0.000 A 
ATOM     18  C   UNL     1      47.359   7.183  13.018  0.00  0.00    +0.000 A 
ATOM     19  N   UNL     1      46.094   7.235  12.547  0.00  0.00    +0.000 NA
ATOM     20  C   UNL     1      45.242   6.236  12.892  0.00  0.00    +0.000 A 
ATOM     21  C   UNL     1      45.641   5.170  13.691  0.00  0.00    +0.000 A 
BRANCH  16  23
ATOM     22  N   UNL     1      47.756   3.188  15.668  0.00  0.00    +0.000 NA
ATOM     23  C   UNL     1      47.398   4.059  14.989  0.00  0.00    +0.000 C 
ENDBRANCH  16  23
ENDBRANCH  15  20
ENDBRANCH  14  15
ENDBRANCH   1  14
TORSDOF 5
ENDMDL
MODEL 2
REMARK VINA RESULT:    -7.590      2.181      2.903
REMARK INTER + INTRA:         -10.380
REMARK INTER:                  -9.721
REMARK INTRA:                  -0.659
REMARK UNBOUND:                -0.572
REMARK  Name = 
REMARK  5 active torsions:
REMARK  status: ('A' for Active; 'I' for Inactive)
REMARK    1  A    between atoms: C_2  and  C_3
REMARK    2  A    between atoms: C_7  and  C_8
REMARK    3  A    between atoms: C_8  and  O_9
REMARK    4  A    between atoms: O_9  and  C_10
REMARK    5  A    between atoms: C_14  and  C_15
REMARK                            x       y       z     vdW  Elec       q    Type
REMARK                         _______ _______ _______ _____ _____    ______ ____
ROOT
ATOM      1  C   UNL     1      44.266   5.322  11.008  0.00  0.00    +0.000 A 
ATOM      2  C   UNL     1      43.382   4.459  11.637  0.00  0.00    +0.000 A 
ATOM      3  N   UNL     1      43.206   3.166  11.294  0.00  0.00    +0.000 NA
ATOM      4  C   UNL     1      43.963   2.710  10.269  0.00  0.00    +0.000 A 
ATOM      5  C   UNL     1      44.907   3.469   9.566  0.00  0.00    +0.000 A 
ATOM      6  C   UNL     1      45.046   4.809   9.972  0.00  0.00    +0.000 A 
ENDROOT
BRANCH   5   7
ATOM      7  C   UNL     1      45.700   2.891   8.460  0.00  0.00    +0.000 A 
ATOM      8  C   UNL     1      46.204   3.695   7.417  0.00  0.00    +0.000 A 
ATOM      9  C   UNL     1      46.975   3.157   6.379  0.00  0.00    +0.000 A 
ATOM     10  C   UNL     1      47.251   1.795   6.359  0.00  0.00    +0.000 A 
ATOM     11  C   UNL     1      46.754   0.988   7.371  0.00  0.00    +0.000 A 
ATOM     12  F   UNL     1      47.015  -0.326   7.355  0.00  0.00    +0.000 F 
ATOM     13  C   UNL     1      45.992   1.518   8.409  0.00  0.00    +0.000 A 
ENDBRANCH   5   7
BRANCH   1  14
ATOM     14  O   UNL     1      44.323   6.596  11.492  0.00  0.00    +0.000 OA
BRANCH  14  15
ATOM     15  C   UNL     1      45.096   6.780  12.682  0.00  0.00    +0.000 C 
BRANCH  15  20
ATOM     16  C   UNL     1      48.464   8.293  11.806  0.00  0.00    +0.000 A 
ATOM     17  C   UNL     1      48.162   9.650  11.914  0.00  0.00    +0.000 A 
ATOM     18  C   UNL     1      46.870   9.996  12.257  0.00  0.00    +0.000 A 
ATOM     19  N   UNL     1      45.891   9.096  12.491  0.00  0.00    +0.000 NA
ATOM     20  C   UNL     1      46.198   7.777  12.392  0.00  0.00    +0.000 A 
ATOM     21  C   UNL     1      47.473   7.341  12.045  0.00  0.00    +0.000 A 
BRANCH  16  23
ATOM     22  N   UNL     1      50.861   7.537  11.170  0.00  0.00    +0.000 NA
ATOM     23  C   UNL     1      49.788   7.880  11.452  0.00  0.00    +0.000 C 
ENDBRANCH  16  23
ENDBRANCH  15  20
ENDBRANCH  14  15
ENDBRANCH   1  14
TORSDOF 5
ENDMDL
MODEL 3
REMARK VINA RESULT:    -7.564      1.637      2.837
REMARK INTER + INTRA:         -10.346
REMARK INTER:                  -9.610
REMARK INTRA:                  -0.736
REMARK UNBOUND:                -0.572
REMARK  Name = 
REMARK  5 active torsions:
REMARK  status: ('A' for Active; 'I' for Inactive)
REMARK    1  A    between atoms: C_2  and  C_3
REMARK    2  A    between atoms: C_7  and  C_8
REMARK    3  A    between atoms: C_8  and  O_9
REMARK    4  A    between atoms: O_9  and  C_10
REMARK    5  A    between atoms: C_14  and  C_15
REMARK                            x       y       z     vdW  Elec       q    Type
REMARK                         _______ _______ _______ _____ _____    ______ ____
ROOT
ATOM      1  C   UNL     1      44.059   5.141  10.938  0.00  0.00    +0.000 A 
ATOM      2  C   UNL     1      43.278   4.211  11.607  0.00  0.00    +0.000 A 
ATOM      3  N   UNL     1      43.230   2.897  11.304  0.00  0.00    +0.000 NA
ATOM      4  C   UNL     1      44.015   2.492  10.279  0.00  0.00    +0.000 A 
ATOM      5  C   UNL     1      44.866   3.321   9.538  0.00  0.00    +0.000 A 
ATOM      6  C   UNL     1      44.872   4.680   9.903  0.00  0.00    +0.000 A 
ENDROOT
BRANCH   5   7
ATOM      7  C   UNL     1      45.698   2.795   8.435  0.00  0.00    +0.000 A 
ATOM      8  C   UNL     1      46.208   3.641   7.429  0.00  0.00    +0.000 A 
ATOM      9  C   UNL     1      47.015   3.152   6.394  0.00  0.00    +0.000 A 
ATOM     10  C   UNL     1      47.323   1.798   6.341  0.00  0.00    +0.000 A 
ATOM     11  C   UNL     1      46.821   0.950   7.317  0.00  0.00    +0.000 A 
ATOM     12  F   UNL     1      47.113  -0.357   7.268  0.00  0.00    +0.000 F 
ATOM     13  C   UNL     1      46.023   1.431   8.351  0.00  0.00    +0.000 A 
ENDBRANCH   5   7
BRANCH   1  14
ATOM     14  O   UNL     1      43.992   6.429  11.385  0.00  0.00    +0.000 OA
BRANCH  14  15
ATOM     15  C   UNL     1      44.424   6.648  12.731  0.00  0.00    +0.000 C 
BRANCH  15  20
ATOM     16  C   UNL     1      47.961   7.927  12.231  0.00  0.00    +0.000 A 
ATOM     17  C   UNL     1      48.687   6.863  12.764  0.00  0.00    +0.000 A 
ATOM     18  C   UNL     1      47.980   5.790  13.267  0.00  0.00    +0.000 A 
ATOM     19  N   UNL     1      46.631   5.717  13.271  0.00  0.00    +0.000 NA
ATOM     20  C   UNL     1      45.934   6.755  12.742  0.00  0.00    +0.000 A 
ATOM     21  C   UNL     1      46.567   7.878  12.220  0.00  0.00    +0.000 A 
BRANCH  16  23
ATOM     22  N   UNL     1      49.204   9.985  11.257  0.00  0.00    +0.000 NA
ATOM     23  C   UNL     1      48.645   9.066  11.697  0.00  0.00    +0.000 C 
ENDBRANCH  16  23
ENDBRANCH  15  20
ENDBRANCH  14  15
ENDBRANCH   1  14
TORSDOF 5
ENDMDL
MODEL 4
REMARK VINA RESULT:    -7.490      2.374      3.598
REMARK INTER + INTRA:         -10.251
REMARK INTER:                  -9.791
REMARK INTRA:                  -0.460
REMARK UNBOUND:                -0.572
REMARK  Name = 
REMARK  5 active torsions:
REMARK  status: ('A' for Active; 'I' for Inactive)
REMARK    1  A    between atoms: C_2  and  C_3
REMARK    2  A    between atoms: C_7  and  C_8
REMARK    3  A    between atoms: C_8  and  O_9
REMARK    4  A    between atoms: O_9  and  C_10
REMARK    5  A    between atoms: C_14  and  C_15
REMARK                            x       y       z     vdW  Elec       q    Type
REMARK                         _______ _______ _______ _____ _____    ______ ____
ROOT
ATOM      1  C   UNL     1      44.817   4.458  12.987  0.00  0.00    +0.000 A 
ATOM      2  C   UNL     1      43.498   4.874  12.893  0.00  0.00    +0.000 A 
ATOM      3  N   UNL     1      42.771   4.851  11.756  0.00  0.00    +0.000 NA
ATOM      4  C   UNL     1      43.399   4.379  10.655  0.00  0.00    +0.000 A 
ATOM      5  C   UNL     1      44.717   3.908  10.618  0.00  0.00    +0.000 A 
ATOM      6  C   UNL     1      45.422   3.955  11.835  0.00  0.00    +0.000 A 
ENDROOT
BRANCH   5   7
ATOM      7  C   UNL     1      45.327   3.400   9.370  0.00  0.00    +0.000 A 
ATOM      8  C   UNL     1      45.737   4.274   8.342  0.00  0.00    +0.000 A 
ATOM      9  C   UNL     1      46.334   3.801   7.168  0.00  0.00    +0.000 A 
ATOM     10  C   UNL     1      46.527   2.436   6.994  0.00  0.00    +0.000 A 
ATOM     11  C   UNL     1      46.121   1.561   7.990  0.00  0.00    +0.000 A 
ATOM     12  F   UNL     1      46.302   0.244   7.826  0.00  0.00    +0.000 F 
ATOM     13  C   UNL     1      45.531   2.026   9.163  0.00  0.00    +0.000 A 
ENDBRANCH   5   7
BRANCH   1  14
ATOM     14  O   UNL     1      45.397   4.541  14.219  0.00  0.00    +0.000 OA
BRANCH  14  15
ATOM     15  C   UNL     1      46.801   4.818  14.234  0.00  0.00    +0.000 C 
BRANCH  15  20
ATOM     16  C   UNL     1      48.050   4.258  17.772  0.00  0.00    +0.000 A 
ATOM     17  C   UNL     1      48.554   2.963  17.655  0.00  0.00    +0.000 A 
ATOM     18  C   UNL     1      48.448   2.340  16.427  0.00  0.00    +0.000 A 
ATOM     19  N   UNL     1      47.885   2.915  15.343  0.00  0.00    +0.000 NA
ATOM     20  C   UNL     1      47.406   4.179  15.465  0.00  0.00    +0.000 A 
ATOM     21  C   UNL     1      47.465   4.876  16.667  0.00  0.00    +0.000 A 
BRANCH  16  23
ATOM     22  N   UNL     1      48.199   5.501  20.043  0.00  0.00    +0.000 NA
ATOM     23  C   UNL     1      48.132   4.948  19.023  0.00  0.00    +0.000 C 
ENDBRANCH  16  23
ENDBRANCH  15  20
ENDBRANCH  14  15
ENDBRANCH   1  14
TORSDOF 5
ENDMDL
MODEL 5
REMARK VINA RESULT:    -7.170      2.175      3.501
REMARK INTER + INTRA:          -9.837
REMARK INTER:                  -9.351
REMARK INTRA:                  -0.486
REMARK UNBOUND:                -0.572
REMARK  Name = 
REMARK  5 active torsions:
REMARK  status: ('A' for Active; 'I' for Inactive)
REMARK    1  A    between atoms: C_2  and  C_3
REMARK    2  A    between atoms: C_7  and  C_8
REMARK    3  A    between atoms: C_8  and  O_9
REMARK    4  A    between atoms: O_9  and  C_10
REMARK    5  A    between atoms: C_14  and  C_15
REMARK                            x       y       z     vdW  Elec       q    Type
REMARK                         _______ _______ _______ _____ _____    ______ ____
ROOT
ATOM      1  C   UNL     1      44.330   5.044  10.988  0.00  0.00    +0.000 A 
ATOM      2  C   UNL     1      43.461   4.149  11.594  0.00  0.00    +0.000 A 
ATOM      3  N   UNL     1      43.285   2.871  11.198  0.00  0.00    +0.000 NA
ATOM      4  C   UNL     1      44.028   2.466  10.141  0.00  0.00    +0.000 A 
ATOM      5  C   UNL     1      44.955   3.259   9.456  0.00  0.00    +0.000 A 
ATOM      6  C   UNL     1      45.094   4.582   9.917  0.00  0.00    +0.000 A 
ENDROOT
BRANCH   5   7
ATOM      7  C   UNL     1      45.733   2.735   8.313  0.00  0.00    +0.000 A 
ATOM      8  C   UNL     1      46.231   1.415   8.305  0.00  0.00    +0.000 A 
ATOM      9  C   UNL     1      46.948   0.905   7.216  0.00  0.00    +0.000 A 
ATOM     10  C   UNL     1      47.191   1.712   6.111  0.00  0.00    +0.000 A 
ATOM     11  C   UNL     1      46.717   3.015   6.106  0.00  0.00    +0.000 A 
ATOM     12  F   UNL     1      46.951   3.798   5.045  0.00  0.00    +0.000 F 
ATOM     13  C   UNL     1      45.998   3.526   7.183  0.00  0.00    +0.000 A 
ENDBRANCH   5   7
BRANCH   1  14
ATOM     14  O   UNL     1      44.388   6.296  11.526  0.00  0.00    +0.000 OA
BRANCH  14  15
ATOM     15  C   UNL     1      45.481   6.545  12.417  0.00  0.00    +0.000 C 
BRANCH  15  20
ATOM     16  C   UNL     1      45.473  10.296  11.849  0.00  0.00    +0.000 A 
ATOM     17  C   UNL     1      46.843  10.554  11.874  0.00  0.00    +0.000 A 
ATOM     18  C   UNL     1      47.694   9.487  12.085  0.00  0.00    +0.000 A 
ATOM     19  N   UNL     1      47.272   8.217  12.269  0.00  0.00    +0.000 NA
ATOM     20  C   UNL     1      45.937   7.977  12.234  0.00  0.00    +0.000 A 
ATOM     21  C   UNL     1      45.009   8.994  12.033  0.00  0.00    +0.000 A 
BRANCH  16  23
ATOM     22  N   UNL     1      43.799  12.240  11.468  0.00  0.00    +0.000 NA
ATOM     23  C   UNL     1      44.547  11.366  11.635  0.00  0.00    +0.000 C 
ENDBRANCH  16  23
ENDBRANCH  15  20
ENDBRANCH  14  15
ENDBRANCH   1  14
TORSDOF 5
ENDMDL
MODEL 6
REMARK VINA RESULT:    -7.041      3.319      7.040
REMARK INTER + INTRA:          -9.671
REMARK INTER:                  -9.013
REMARK INTRA:                  -0.658
REMARK UNBOUND:                -0.572
REMARK  Name = 
REMARK  5 active torsions:
REMARK  status: ('A' for Active; 'I' for Inactive)
REMARK    1  A    between atoms: C_2  and  C_3
REMARK    2  A    between atoms: C_7  and  C_8
REMARK    3  A    between atoms: C_8  and  O_9
REMARK    4  A    between atoms: O_9  and  C_10
REMARK    5  A    between atoms: C_14  and  C_15
REMARK                            x       y       z     vdW  Elec       q    Type
REMARK                         _______ _______ _______ _____ _____    ______ ____
ROOT
ATOM      1  C   UNL     1      45.328   4.724  12.094  0.00  0.00    +0.000 A 
ATOM      2  C   UNL     1      46.247   4.286  13.035  0.00  0.00    +0.000 A 
ATOM      3  N   UNL     1      47.116   5.090  13.683  0.00  0.00    +0.000 NA
ATOM      4  C   UNL     1      47.054   6.407  13.376  0.00  0.00    +0.000 A 
ATOM      5  C   UNL     1      46.161   6.981  12.464  0.00  0.00    +0.000 A 
ATOM      6  C   UNL     1      45.279   6.091  11.822  0.00  0.00    +0.000 A 
ENDROOT
BRANCH   5   7
ATOM      7  C   UNL     1      46.155   8.434  12.191  0.00  0.00    +0.000 A 
ATOM      8  C   UNL     1      44.963   9.120  11.878  0.00  0.00    +0.000 A 
ATOM      9  C   UNL     1      44.948  10.499  11.641  0.00  0.00    +0.000 A 
ATOM     10  C   UNL     1      46.132  11.223  11.703  0.00  0.00    +0.000 A 
ATOM     11  C   UNL     1      47.315  10.564  12.000  0.00  0.00    +0.000 A 
ATOM     12  F   UNL     1      48.460  11.256  12.059  0.00  0.00    +0.000 F 
ATOM     13  C   UNL     1      47.336   9.193  12.243  0.00  0.00    +0.000 A 
ENDBRANCH   5   7
BRANCH   1  14
ATOM     14  O   UNL     1      44.518   3.773  11.544  0.00  0.00    +0.000 OA
BRANCH  14  15
ATOM     15  C   UNL     1      43.984   4.077  10.252  0.00  0.00    +0.000 C 
BRANCH  15  20
ATOM     16  C   UNL     1      46.200   1.910   8.064  0.00  0.00    +0.000 A 
ATOM     17  C   UNL     1      46.819   2.890   7.291  0.00  0.00    +0.000 A 
ATOM     18  C   UNL     1      46.471   4.207   7.521  0.00  0.00    +0.000 A 
ATOM     19  N   UNL     1      45.567   4.591   8.447  0.00  0.00    +0.000 NA
ATOM     20  C   UNL     1      44.976   3.629   9.201  0.00  0.00    +0.000 A 
ATOM     21  C   UNL     1      45.264   2.279   9.031  0.00  0.00    +0.000 A 
BRANCH  16  23
ATOM     22  N   UNL     1      46.795  -0.588   7.702  0.00  0.00    +0.000 NA
ATOM     23  C   UNL     1      46.524   0.530   7.866  0.00  0.00    +0.000 C 
ENDBRANCH  16  23
ENDBRANCH  15  20
ENDBRANCH  14  15
ENDBRANCH   1  14
TORSDOF 5
ENDMDL
MODEL 7
REMARK VINA RESULT:    -6.624      3.273      7.251
REMARK INTER + INTRA:          -9.132
REMARK INTER:                  -8.563
REMARK INTRA:                  -0.569
REMARK UNBOUND:                -0.572
REMARK  Name = 
REMARK  5 active torsions:
REMARK  status: ('A' for Active; 'I' for Inactive)
REMARK    1  A    between atoms: C_2  and  C_3
REMARK    2  A    between atoms: C_7  and  C_8
REMARK    3  A    between atoms: C_8  and  O_9
REMARK    4  A    between atoms: O_9  and  C_10
REMARK    5  A    between atoms: C_14  and  C_15
REMARK                            x       y       z     vdW  Elec       q    Type
REMARK                         _______ _______ _______ _____ _____    ______ ____
ROOT
ATOM      1  C   UNL     1      45.228   5.626  11.657  0.00  0.00    +0.000 A 
ATOM      2  C   UNL     1      44.321   6.609  11.294  0.00  0.00    +0.000 A 
ATOM      3  N   UNL     1      44.526   7.933  11.458  0.00  0.00    +0.000 NA
ATOM      4  C   UNL     1      45.709   8.290  12.010  0.00  0.00    +0.000 A 
ATOM      5  C   UNL     1      46.718   7.401  12.399  0.00  0.00    +0.000 A 
ATOM      6  C   UNL     1      46.445   6.035  12.201  0.00  0.00    +0.000 A 
ENDROOT
BRANCH   5   7
ATOM      7  C   UNL     1      47.988   7.877  12.989  0.00  0.00    +0.000 A 
ATOM      8  C   UNL     1      48.492   9.165  12.711  0.00  0.00    +0.000 A 
ATOM      9  C   UNL     1      49.682   9.629  13.284  0.00  0.00    +0.000 A 
ATOM     10  C   UNL     1      50.400   8.808  14.144  0.00  0.00    +0.000 A 
ATOM     11  C   UNL     1      49.924   7.535  14.421  0.00  0.00    +0.000 A 
ATOM     12  F   UNL     1      50.614   6.738  15.248  0.00  0.00    +0.000 F 
ATOM     13  C   UNL     1      48.738   7.069  13.859  0.00  0.00    +0.000 A 
ENDBRANCH   5   7
BRANCH   1  14
ATOM     14  O   UNL     1      44.860   4.335  11.410  0.00  0.00    +0.000 OA
BRANCH  14  15
ATOM     15  C   UNL     1      44.125   4.114  10.202  0.00  0.00    +0.000 C 
BRANCH  15  20
ATOM     16  C   UNL     1      46.262   1.873   8.009  0.00  0.00    +0.000 A 
ATOM     17  C   UNL     1      46.867   2.828   7.194  0.00  0.00    +0.000 A 
ATOM     18  C   UNL     1      46.535   4.153   7.399  0.00  0.00    +0.000 A 
ATOM     19  N   UNL     1      45.661   4.568   8.341  0.00  0.00    +0.000 NA
ATOM     20  C   UNL     1      45.084   3.630   9.135  0.00  0.00    +0.000 A 
ATOM     21  C   UNL     1      45.356   2.274   8.992  0.00  0.00    +0.000 A 
BRANCH  16  23
ATOM     22  N   UNL     1      46.811  -0.643   7.702  0.00  0.00    +0.000 NA
ATOM     23  C   UNL     1      46.569   0.486   7.837  0.00  0.00    +0.000 C 
ENDBRANCH  16  23
ENDBRANCH  15  20
ENDBRANCH  14  15
ENDBRANCH   1  14
TORSDOF 5
ENDMDL
MODEL 8
REMARK VINA RESULT:    -6.519      3.271      5.076
REMARK INTER + INTRA:          -8.996
REMARK INTER:                  -8.361
REMARK INTRA:                  -0.634
REMARK UNBOUND:                -0.572
REMARK  Name = 
REMARK  5 active torsions:
REMARK  status: ('A' for Active; 'I' for Inactive)
REMARK    1  A    between atoms: C_2  and  C_3
REMARK    2  A    between atoms: C_7  and  C_8
REMARK    3  A    between atoms: C_8  and  O_9
REMARK    4  A    between atoms: O_9  and  C_10
REMARK    5  A    between atoms: C_14  and  C_15
REMARK                            x       y       z     vdW  Elec       q    Type
REMARK                         _______ _______ _______ _____ _____    ______ ____
ROOT
ATOM      1  C   UNL     1      47.766   7.566  13.029  0.00  0.00    +0.000 A 
ATOM      2  C   UNL     1      46.902   8.619  13.287  0.00  0.00    +0.000 A 
ATOM      3  N   UNL     1      45.633   8.692  12.834  0.00  0.00    +0.000 NA
ATOM      4  C   UNL     1      45.203   7.648  12.088  0.00  0.00    +0.000 A 
ATOM      5  C   UNL     1      45.964   6.516  11.773  0.00  0.00    +0.000 A 
ATOM      6  C   UNL     1      47.278   6.497  12.276  0.00  0.00    +0.000 A 
ENDROOT
BRANCH   5   7
ATOM      7  C   UNL     1      45.414   5.413  10.955  0.00  0.00    +0.000 A 
ATOM      8  C   UNL     1      45.701   5.304   9.579  0.00  0.00    +0.000 A 
ATOM      9  C   UNL     1      45.202   4.250   8.804  0.00  0.00    +0.000 A 
ATOM     10  C   UNL     1      44.395   3.284   9.392  0.00  0.00    +0.000 A 
ATOM     11  C   UNL     1      44.094   3.381  10.742  0.00  0.00    +0.000 A 
ATOM     12  F   UNL     1      43.314   2.454  11.313  0.00  0.00    +0.000 F 
ATOM     13  C   UNL     1      44.593   4.424  11.519  0.00  0.00    +0.000 A 
ENDBRANCH   5   7
BRANCH   1  14
ATOM     14  O   UNL     1      49.013   7.651  13.575  0.00  0.00    +0.000 OA
BRANCH  14  15
ATOM     15  C   UNL     1      49.069   8.047  14.949  0.00  0.00    +0.000 C 
BRANCH  15  20
ATOM     16  C   UNL     1      48.555   4.805  16.851  0.00  0.00    +0.000 A 
ATOM     17  C   UNL     1      49.833   4.621  17.376  0.00  0.00    +0.000 A 
ATOM     18  C   UNL     1      50.796   5.562  17.071  0.00  0.00    +0.000 A 
ATOM     19  N   UNL     1      50.567   6.643  16.295  0.00  0.00    +0.000 NA
ATOM     20  C   UNL     1      49.317   6.818  15.796  0.00  0.00    +0.000 A 
ATOM     21  C   UNL     1      48.289   5.914  16.048  0.00  0.00    +0.000 A 
BRANCH  16  23
ATOM     22  N   UNL     1      46.684   3.088  17.374  0.00  0.00    +0.000 NA
ATOM     23  C   UNL     1      47.520   3.858  17.135  0.00  0.00    +0.000 C 
ENDBRANCH  16  23
ENDBRANCH  15  20
ENDBRANCH  14  15
ENDBRANCH   1  14
TORSDOF 5
ENDMDL
MODEL 9
REMARK VINA RESULT:    -6.403      3.427      7.155
REMARK INTER + INTRA:          -8.846
REMARK INTER:                  -8.191
REMARK INTRA:                  -0.655
REMARK UNBOUND:                -0.572
REMARK  Name = 
REMARK  5 active torsions:
REMARK  status: ('A' for Active; 'I' for Inactive)
REMARK    1  A    between atoms: C_2  and  C_3
REMARK    2  A    between atoms: C_7  and  C_8
REMARK    3  A    between atoms: C_8  and  O_9
REMARK    4  A    between atoms: O_9  and  C_10
REMARK    5  A    between atoms: C_14  and  C_15
REMARK                            x       y       z     vdW  Elec       q    Type
REMARK                         _______ _______ _______ _____ _____    ______ ____
ROOT
ATOM      1  C   UNL     1      46.300   6.150  12.624  0.00  0.00    +0.000 A 
ATOM      2  C   UNL     1      46.942   5.476  13.652  0.00  0.00    +0.000 A 
ATOM      3  N   UNL     1      48.179   5.772  14.101  0.00  0.00    +0.000 NA
ATOM      4  C   UNL     1      48.806   6.805  13.491  0.00  0.00    +0.000 A 
ATOM      5  C   UNL     1      48.263   7.580  12.459  0.00  0.00    +0.000 A 
ATOM      6  C   UNL     1      46.969   7.224  12.037  0.00  0.00    +0.000 A 
ENDROOT
BRANCH   5   7
ATOM      7  C   UNL     1      49.015   8.699  11.851  0.00  0.00    +0.000 A 
ATOM      8  C   UNL     1      50.401   8.608  11.606  0.00  0.00    +0.000 A 
ATOM      9  C   UNL     1      51.113   9.656  11.010  0.00  0.00    +0.000 A 
ATOM     10  C   UNL     1      50.452  10.825  10.654  0.00  0.00    +0.000 A 
ATOM     11  C   UNL     1      49.091  10.935  10.897  0.00  0.00    +0.000 A 
ATOM     12  F   UNL     1      48.450  12.061  10.558  0.00  0.00    +0.000 F 
ATOM     13  C   UNL     1      48.376   9.895  11.484  0.00  0.00    +0.000 A 
ENDBRANCH   5   7
BRANCH   1  14
ATOM     14  O   UNL     1      45.044   5.724  12.305  0.00  0.00    +0.000 OA
BRANCH  14  15
ATOM     15  C   UNL     1      44.630   5.952  10.955  0.00  0.00    +0.000 C 
BRANCH  15  20
ATOM     16  C   UNL     1      45.518   3.413   8.278  0.00  0.00    +0.000 A 
ATOM     17  C   UNL     1      44.937   2.268   8.820  0.00  0.00    +0.000 A 
ATOM     18  C   UNL     1      44.295   2.386  10.037  0.00  0.00    +0.000 A 
ATOM     19  N   UNL     1      44.202   3.545  10.725  0.00  0.00    +0.000 NA
ATOM     20  C   UNL     1      44.764   4.656  10.184  0.00  0.00    +0.000 A 
ATOM     21  C   UNL     1      45.435   4.624   8.966  0.00  0.00    +0.000 A 
BRANCH  16  23
ATOM     22  N   UNL     1      46.752   3.282   6.001  0.00  0.00    +0.000 NA
ATOM     23  C   UNL     1      46.198   3.346   7.020  0.00  0.00    +0.000 C 
ENDBRANCH  16  23
ENDBRANCH  15  20
ENDBRANCH  14  15
ENDBRANCH   1  14
TORSDOF 5
ENDMDL
