MODEL 1
REMARK VINA RESULT:    -8.372      0.000      0.000
REMARK INTER + INTRA:         -13.949
REMARK INTER:                 -13.021
REMARK INTRA:                  -0.927
REMARK UNBOUND:                -0.927
REMARK  Name = 
REMARK  10 active torsions:
REMARK  status: ('A' for Active; 'I' for Inactive)
REMARK    1  A    between atoms: C_2  and  C_23
REMARK    2  A    between atoms: N_3  and  C_4
REMARK    3  A    between atoms: C_4  and  C_5
REMARK    4  A    between atoms: C_8  and  C_9
REMARK    5  A    between atoms: C_9  and  N_10
REMARK    6  A    between atoms: N_10  and  C_11
REMARK    7  A    between atoms: N_10  and  C_14
REMARK    8  A    between atoms: C_11  and  C_12
REMARK    9  A    between atoms: C_12  and  O_13
REMARK   10  A    between atoms: C_14  and  C_15
REMARK                            x       y       z     vdW  Elec       q    Type
REMARK                         _______ _______ _______ _____ _____    ______ ____
ROOT
ATOM      1  C   UNL     1      47.885   6.444  13.912  0.00  0.00    +0.000 A 
ATOM      2  C   UNL     1      47.102   5.280  13.957  0.00  0.00    +0.000 A 
ATOM      3  C   UNL     1      46.194   4.996  12.931  0.00  0.00    +0.000 A 
ATOM      4  C   UNL     1      46.053   5.871  11.846  0.00  0.00    +0.000 A 
ATOM      5  C   UNL     1      46.913   6.974  11.753  0.00  0.00    +0.000 A 
ATOM      6  C   UNL     1      47.822   7.255  12.774  0.00  0.00    +0.000 A 
ENDROOT
BRANCH   1   7
ATOM      7  C   UNL     1      48.742   6.852  15.083  0.00  0.00    +0.000 C 
BRANCH   7  10
ATOM      8  O   UNL     1      50.728   5.517  16.554  0.00  0.00    +0.000 OA
ATOM      9  C   UNL     1      49.576   5.548  16.973  0.00  0.00    +0.000 C 
ATOM     10  N   UNL     1      48.513   6.047  16.246  0.00  0.00    +0.000 N 
ATOM     11  H   UNL     1      47.638   6.127  16.756  0.00  0.00    +0.000 HD
BRANCH   9  12
ATOM     12  C   UNL     1      49.199   5.189  18.351  0.00  0.00    +0.000 A 
ATOM     13  N   UNL     1      48.976   3.901  18.699  0.00  0.00    +0.000 NA
ATOM     14  N   UNL     1      48.403   3.994  19.909  0.00  0.00    +0.000 N 
ATOM     15  C   UNL     1      48.175   5.278  20.321  0.00  0.00    +0.000 A 
ATOM     16  C   UNL     1      47.431   5.796  21.384  0.00  0.00    +0.000 A 
ATOM     17  C   UNL     1      47.451   7.183  21.556  0.00  0.00    +0.000 A 
ATOM     18  C   UNL     1      48.231   8.000  20.737  0.00  0.00    +0.000 A 
ATOM     19  C   UNL     1      48.931   7.464  19.649  0.00  0.00    +0.000 A 
ATOM     20  C   UNL     1      48.854   6.078  19.411  0.00  0.00    +0.000 A 
ATOM     21  H   UNL     1      48.150   3.140  20.391  0.00  0.00    +0.000 HD
ENDBRANCH   9  12
ENDBRANCH   7  10
ENDBRANCH   1   7
BRANCH   4  22
ATOM     22  C   UNL     1      44.966   5.662  10.808  0.00  0.00    +0.000 C 
BRANCH  22  23
ATOM     23  N   UNL     1      44.507   4.251  10.679  0.00  0.00    +0.000 NA
BRANCH  23  24
ATOM     24  C   UNL     1      43.283   4.020  11.485  0.00  0.00    +0.000 C 
BRANCH  24  25
ATOM     25  C   UNL     1      42.533   5.296  11.921  0.00  0.00    +0.000 C 
BRANCH  25  26
ATOM     26  O   UNL     1      42.548   5.429  13.339  0.00  0.00    +0.000 OA
ATOM     27  H   UNL     1      41.918   6.133  13.567  0.00  0.00    +0.000 HD
ENDBRANCH  25  26
ENDBRANCH  24  25
ENDBRANCH  23  24
BRANCH  23  28
ATOM     28  C   UNL     1      44.236   3.943   9.255  0.00  0.00    +0.000 C 
BRANCH  28  29
ATOM     29  C   UNL     1      45.337   3.185   8.542  0.00  0.00    +0.000 A 
ATOM     30  C   UNL     1      45.478   1.801   8.710  0.00  0.00    +0.000 A 
ATOM     31  C   UNL     1      46.462   1.103   8.014  0.00  0.00    +0.000 A 
ATOM     32  C   UNL     1      47.303   1.782   7.137  0.00  0.00    +0.000 A 
ATOM     33  C   UNL     1      47.176   3.159   6.965  0.00  0.00    +0.000 A 
ATOM     34  C   UNL     1      46.193   3.856   7.663  0.00  0.00    +0.000 A 
ENDBRANCH  28  29
ENDBRANCH  23  28
ENDBRANCH  22  23
ENDBRANCH   4  22
TORSDOF 10
ENDMDL
MODEL 2
REMARK VINA RESULT:    -8.159      2.428      2.903
REMARK INTER + INTRA:         -13.618
REMARK INTER:                 -11.924
REMARK INTRA:                  -1.694
REMARK UNBOUND:                -0.927
REMARK  Name = 
REMARK  10 active torsions:
REMARK  status: ('A' for Active; 'I' for Inactive)
REMARK    1  A    between atoms: C_2  and  C_23
REMARK    2  A    between atoms: N_3  and  C_4
REMARK    3  A    between atoms: C_4  and  C_5
REMARK    4  A    between atoms: C_8  and  C_9
REMARK    5  A    between atoms: C_9  and  N_10
REMARK    6  A    between atoms: N_10  and  C_11
REMARK    7  A    between atoms: N_10  and  C_14
REMARK    8  A    between atoms: C_11  and  C_12
REMARK    9  A    between atoms: C_12  and  O_13
REMARK   10  A    between atoms: C_14  and  C_15
REMARK                            x       y       z     vdW  Elec       q    Type
REMARK                         _______ _______ _______ _____ _____    ______ ____
ROOT
ATOM      1  C   UNL     1      48.064   7.596  12.981  0.00  0.00    +0.000 A 
ATOM      2  C   UNL     1      47.045   8.516  12.691  0.00  0.00    +0.000 A 
ATOM      3  C   UNL     1      45.808   8.077  12.207  0.00  0.00    +0.000 A 
ATOM      4  C   UNL     1      45.570   6.711  12.005  0.00  0.00    +0.000 A 
ATOM      5  C   UNL     1      46.551   5.790  12.399  0.00  0.00    +0.000 A 
ATOM      6  C   UNL     1      47.783   6.228  12.886  0.00  0.00    +0.000 A 
ENDROOT
BRANCH   1   7
ATOM      7  C   UNL     1      49.452   8.058  13.340  0.00  0.00    +0.000 C 
BRANCH   7  10
ATOM      8  O   UNL     1      49.328   8.603  16.093  0.00  0.00    +0.000 OA
ATOM      9  C   UNL     1      49.814   7.548  15.702  0.00  0.00    +0.000 C 
ATOM     10  N   UNL     1      50.052   7.264  14.372  0.00  0.00    +0.000 N 
ATOM     11  H   UNL     1      50.342   6.310  14.176  0.00  0.00    +0.000 HD
BRANCH   9  12
ATOM     12  C   UNL     1      50.076   6.394  16.581  0.00  0.00    +0.000 A 
ATOM     13  N   UNL     1      51.296   6.201  17.132  0.00  0.00    +0.000 NA
ATOM     14  N   UNL     1      51.230   4.952  17.617  0.00  0.00    +0.000 N 
ATOM     15  C   UNL     1      50.059   4.305  17.337  0.00  0.00    +0.000 A 
ATOM     16  C   UNL     1      49.680   2.967  17.468  0.00  0.00    +0.000 A 
ATOM     17  C   UNL     1      48.362   2.644  17.133  0.00  0.00    +0.000 A 
ATOM     18  C   UNL     1      47.455   3.631  16.744  0.00  0.00    +0.000 A 
ATOM     19  C   UNL     1      47.870   4.958  16.574  0.00  0.00    +0.000 A 
ATOM     20  C   UNL     1      49.216   5.284  16.827  0.00  0.00    +0.000 A 
ATOM     21  H   UNL     1      52.040   4.577  18.099  0.00  0.00    +0.000 HD
ENDBRANCH   9  12
ENDBRANCH   7  10
ENDBRANCH   1   7
BRANCH   4  22
ATOM     22  C   UNL     1      44.296   6.229  11.336  0.00  0.00    +0.000 C 
BRANCH  22  23
ATOM     23  N   UNL     1      44.287   4.776  11.014  0.00  0.00    +0.000 NA
BRANCH  23  24
ATOM     24  C   UNL     1      43.239   4.071  11.792  0.00  0.00    +0.000 C 
BRANCH  24  25
ATOM     25  C   UNL     1      43.658   2.702  12.368  0.00  0.00    +0.000 C 
BRANCH  25  26
ATOM     26  O   UNL     1      45.070   2.642  12.547  0.00  0.00    +0.000 OA
ATOM     27  H   UNL     1      45.399   3.557  12.532  0.00  0.00    +0.000 HD
ENDBRANCH  25  26
ENDBRANCH  24  25
ENDBRANCH  23  24
BRANCH  23  28
ATOM     28  C   UNL     1      44.047   4.587   9.563  0.00  0.00    +0.000 C 
BRANCH  28  29
ATOM     29  C   UNL     1      45.067   3.724   8.851  0.00  0.00    +0.000 A 
ATOM     30  C   UNL     1      45.095   2.336   9.052  0.00  0.00    +0.000 A 
ATOM     31  C   UNL     1      46.004   1.542   8.358  0.00  0.00    +0.000 A 
ATOM     32  C   UNL     1      46.882   2.126   7.449  0.00  0.00    +0.000 A 
ATOM     33  C   UNL     1      46.867   3.505   7.244  0.00  0.00    +0.000 A 
ATOM     34  C   UNL     1      45.959   4.298   7.941  0.00  0.00    +0.000 A 
ENDBRANCH  28  29
ENDBRANCH  23  28
ENDBRANCH  22  23
ENDBRANCH   4  22
TORSDOF 10
ENDMDL
MODEL 3
REMARK VINA RESULT:    -8.000      2.399      9.472
REMARK INTER + INTRA:         -13.370
REMARK INTER:                 -11.887
REMARK INTRA:                  -1.483
REMARK UNBOUND:                -0.927
REMARK  Name = 
REMARK  10 active torsions:
REMARK  status: ('A' for Active; 'I' for Inactive)
REMARK    1  A    between atoms: C_2  and  C_23
REMARK    2  A    between atoms: N_3  and  C_4
REMARK    3  A    between atoms: C_4  and  C_5
REMARK    4  A    between atoms: C_8  and  C_9
REMARK    5  A    between atoms: C_9  and  N_10
REMARK    6  A    between atoms: N_10  and  C_11
REMARK    7  A    between atoms: N_10  and  C_14
REMARK    8  A    between atoms: C_11  and  C_12
REMARK    9  A    between atoms: C_12  and  O_13
REMARK   10  A    between atoms: C_14  and  C_15
REMARK                            x       y       z     vdW  Elec       q    Type
REMARK                         _______ _______ _______ _____ _____    ______ ____
ROOT
ATOM      1  C   UNL     1      46.400   7.330  12.363  0.00  0.00    +0.000 A 
ATOM      2  C   UNL     1      46.449   8.457  13.198  0.00  0.00    +0.000 A 
ATOM      3  C   UNL     1      47.581   8.712  13.980  0.00  0.00    +0.000 A 
ATOM      4  C   UNL     1      48.682   7.845  13.939  0.00  0.00    +0.000 A 
ATOM      5  C   UNL     1      48.670   6.783  13.024  0.00  0.00    +0.000 A 
ATOM      6  C   UNL     1      47.542   6.532  12.241  0.00  0.00    +0.000 A 
ENDROOT
BRANCH   1   7
ATOM      7  C   UNL     1      45.132   6.947  11.646  0.00  0.00    +0.000 C 
BRANCH   7  10
ATOM      8  O   UNL     1      42.819   5.531  10.914  0.00  0.00    +0.000 OA
ATOM      9  C   UNL     1      43.916   4.991  10.832  0.00  0.00    +0.000 C 
ATOM     10  N   UNL     1      45.082   5.555  11.309  0.00  0.00    +0.000 N 
ATOM     11  H   UNL     1      45.935   5.059  11.067  0.00  0.00    +0.000 HD
BRANCH   9  12
ATOM     12  C   UNL     1      44.155   3.739  10.091  0.00  0.00    +0.000 A 
ATOM     13  N   UNL     1      43.670   2.559  10.542  0.00  0.00    +0.000 NA
ATOM     14  N   UNL     1      44.305   1.648   9.789  0.00  0.00    +0.000 N 
ATOM     15  C   UNL     1      45.231   2.177   8.934  0.00  0.00    +0.000 A 
ATOM     16  C   UNL     1      46.227   1.582   8.156  0.00  0.00    +0.000 A 
ATOM     17  C   UNL     1      46.981   2.426   7.335  0.00  0.00    +0.000 A 
ATOM     18  C   UNL     1      46.704   3.792   7.257  0.00  0.00    +0.000 A 
ATOM     19  C   UNL     1      45.732   4.373   8.081  0.00  0.00    +0.000 A 
ATOM     20  C   UNL     1      45.021   3.550   8.974  0.00  0.00    +0.000 A 
ATOM     21  H   UNL     1      44.093   0.668   9.936  0.00  0.00    +0.000 HD
ENDBRANCH   9  12
ENDBRANCH   7  10
ENDBRANCH   1   7
BRANCH   4  22
ATOM     22  C   UNL     1      49.849   8.018  14.893  0.00  0.00    +0.000 C 
BRANCH  22  23
ATOM     23  N   UNL     1      50.218   6.783  15.637  0.00  0.00    +0.000 NA
BRANCH  23  24
ATOM     24  C   UNL     1      51.656   6.798  16.002  0.00  0.00    +0.000 C 
BRANCH  24  25
ATOM     25  C   UNL     1      52.536   7.752  15.167  0.00  0.00    +0.000 C 
BRANCH  25  26
ATOM     26  O   UNL     1      53.610   7.042  14.557  0.00  0.00    +0.000 OA
ATOM     27  H   UNL     1      53.322   6.119  14.458  0.00  0.00    +0.000 HD
ENDBRANCH  25  26
ENDBRANCH  24  25
ENDBRANCH  23  24
BRANCH  23  28
ATOM     28  C   UNL     1      49.390   6.672  16.862  0.00  0.00    +0.000 C 
BRANCH  28  29
ATOM     29  C   UNL     1      48.720   5.329  17.065  0.00  0.00    +0.000 A 
ATOM     30  C   UNL     1      47.718   4.890  16.189  0.00  0.00    +0.000 A 
ATOM     31  C   UNL     1      47.140   3.633  16.352  0.00  0.00    +0.000 A 
ATOM     32  C   UNL     1      47.568   2.803  17.385  0.00  0.00    +0.000 A 
ATOM     33  C   UNL     1      48.559   3.231  18.265  0.00  0.00    +0.000 A 
ATOM     34  C   UNL     1      49.135   4.488  18.101  0.00  0.00    +0.000 A 
ENDBRANCH  28  29
ENDBRANCH  23  28
ENDBRANCH  22  23
ENDBRANCH   4  22
TORSDOF 10
ENDMDL
MODEL 4
REMARK VINA RESULT:    -7.694      1.554      2.058
REMARK INTER + INTRA:         -12.895
REMARK INTER:                 -12.224
REMARK INTRA:                  -0.670
REMARK UNBOUND:                -0.927
REMARK  Name = 
REMARK  10 active torsions:
REMARK  status: ('A' for Active; 'I' for Inactive)
REMARK    1  A    between atoms: C_2  and  C_23
REMARK    2  A    between atoms: N_3  and  C_4
REMARK    3  A    between atoms: C_4  and  C_5
REMARK    4  A    between atoms: C_8  and  C_9
REMARK    5  A    between atoms: C_9  and  N_10
REMARK    6  A    between atoms: N_10  and  C_11
REMARK    7  A    between atoms: N_10  and  C_14
REMARK    8  A    between atoms: C_11  and  C_12
REMARK    9  A    between atoms: C_12  and  O_13
REMARK   10  A    between atoms: C_14  and  C_15
REMARK                            x       y       z     vdW  Elec       q    Type
REMARK                         _______ _______ _______ _____ _____    ______ ____
ROOT
ATOM      1  C   UNL     1      48.229   6.665  13.556  0.00  0.00    +0.000 A 
ATOM      2  C   UNL     1      47.301   5.650  13.833  0.00  0.00    +0.000 A 
ATOM      3  C   UNL     1      46.284   5.350  12.921  0.00  0.00    +0.000 A 
ATOM      4  C   UNL     1      46.179   6.060  11.717  0.00  0.00    +0.000 A 
ATOM      5  C   UNL     1      47.172   6.996  11.397  0.00  0.00    +0.000 A 
ATOM      6  C   UNL     1      48.189   7.292  12.306  0.00  0.00    +0.000 A 
ENDROOT
BRANCH   1   7
ATOM      7  C   UNL     1      49.224   7.116  14.594  0.00  0.00    +0.000 C 
BRANCH   7  10
ATOM      8  O   UNL     1      49.431   5.260  16.692  0.00  0.00    +0.000 OA
ATOM      9  C   UNL     1      48.920   6.355  16.896  0.00  0.00    +0.000 C 
ATOM     10  N   UNL     1      48.641   7.265  15.895  0.00  0.00    +0.000 N 
ATOM     11  H   UNL     1      48.333   8.179  16.213  0.00  0.00    +0.000 HD
BRANCH   9  12
ATOM     12  C   UNL     1      48.665   6.900  18.241  0.00  0.00    +0.000 A 
ATOM     13  N   UNL     1      48.574   6.084  19.317  0.00  0.00    +0.000 NA
ATOM     14  N   UNL     1      48.076   6.880  20.276  0.00  0.00    +0.000 N 
ATOM     15  C   UNL     1      47.769   8.142  19.850  0.00  0.00    +0.000 A 
ATOM     16  C   UNL     1      47.056   9.181  20.455  0.00  0.00    +0.000 A 
ATOM     17  C   UNL     1      46.973  10.387  19.752  0.00  0.00    +0.000 A 
ATOM     18  C   UNL     1      47.626  10.556  18.530  0.00  0.00    +0.000 A 
ATOM     19  C   UNL     1      48.295   9.487  17.922  0.00  0.00    +0.000 A 
ATOM     20  C   UNL     1      48.318   8.241  18.578  0.00  0.00    +0.000 A 
ATOM     21  H   UNL     1      47.927   6.489  21.199  0.00  0.00    +0.000 HD
ENDBRANCH   9  12
ENDBRANCH   7  10
ENDBRANCH   1   7
BRANCH   4  22
ATOM     22  C   UNL     1      44.994   5.857  10.790  0.00  0.00    +0.000 C 
BRANCH  22  23
ATOM     23  N   UNL     1      44.604   4.433  10.600  0.00  0.00    +0.000 NA
BRANCH  23  24
ATOM     24  C   UNL     1      43.411   4.100  11.416  0.00  0.00    +0.000 C 
BRANCH  24  25
ATOM     25  C   UNL     1      43.524   2.805  12.247  0.00  0.00    +0.000 C 
BRANCH  25  26
ATOM     26  O   UNL     1      42.980   1.700  11.533  0.00  0.00    +0.000 OA
ATOM     27  H   UNL     1      42.318   2.056  10.916  0.00  0.00    +0.000 HD
ENDBRANCH  25  26
ENDBRANCH  24  25
ENDBRANCH  23  24
BRANCH  23  28
ATOM     28  C   UNL     1      44.319   4.180   9.167  0.00  0.00    +0.000 C 
BRANCH  28  29
ATOM     29  C   UNL     1      45.336   3.316   8.452  0.00  0.00    +0.000 A 
ATOM     30  C   UNL     1      46.260   3.884   7.564  0.00  0.00    +0.000 A 
ATOM     31  C   UNL     1      47.224   3.091   6.947  0.00  0.00    +0.000 A 
ATOM     32  C   UNL     1      47.278   1.727   7.222  0.00  0.00    +0.000 A 
ATOM     33  C   UNL     1      46.362   1.150   8.099  0.00  0.00    +0.000 A 
ATOM     34  C   UNL     1      45.397   1.944   8.714  0.00  0.00    +0.000 A 
ENDBRANCH  28  29
ENDBRANCH  23  28
ENDBRANCH  22  23
ENDBRANCH   4  22
TORSDOF 10
ENDMDL
MODEL 5
REMARK VINA RESULT:    -7.460      3.347      9.390
REMARK INTER + INTRA:         -12.530
REMARK INTER:                 -10.565
REMARK INTRA:                  -1.966
REMARK UNBOUND:                -0.927
REMARK  Name = 
REMARK  10 active torsions:
REMARK  status: ('A' for Active; 'I' for Inactive)
REMARK    1  A    between atoms: C_2  and  C_23
REMARK    2  A    between atoms: N_3  and  C_4
REMARK    3  A    between atoms: C_4  and  C_5
REMARK    4  A    between atoms: C_8  and  C_9
REMARK    5  A    between atoms: C_9  and  N_10
REMARK    6  A    between atoms: N_10  and  C_11
REMARK    7  A    between atoms: N_10  and  C_14
REMARK    8  A    between atoms: C_11  and  C_12
REMARK    9  A    between atoms: C_12  and  O_13
REMARK   10  A    between atoms: C_14  and  C_15
REMARK                            x       y       z     vdW  Elec       q    Type
REMARK                         _______ _______ _______ _____ _____    ______ ____
ROOT
ATOM      1  C   UNL     1      45.683   6.776  12.538  0.00  0.00    +0.000 A 
ATOM      2  C   UNL     1      45.533   8.171  12.508  0.00  0.00    +0.000 A 
ATOM      3  C   UNL     1      46.615   8.994  12.180  0.00  0.00    +0.000 A 
ATOM      4  C   UNL     1      47.865   8.436  11.877  0.00  0.00    +0.000 A 
ATOM      5  C   UNL     1      47.980   7.041  11.801  0.00  0.00    +0.000 A 
ATOM      6  C   UNL     1      46.898   6.220  12.124  0.00  0.00    +0.000 A 
ENDROOT
BRANCH   1   7
ATOM      7  C   UNL     1      44.581   5.885  13.051  0.00  0.00    +0.000 C 
BRANCH   7  10
ATOM      8  O   UNL     1      42.981   5.629  10.756  0.00  0.00    +0.000 OA
ATOM      9  C   UNL     1      43.723   4.712  11.087  0.00  0.00    +0.000 C 
ATOM     10  N   UNL     1      44.427   4.690  12.275  0.00  0.00    +0.000 N 
ATOM     11  H   UNL     1      45.097   3.932  12.368  0.00  0.00    +0.000 HD
BRANCH   9  12
ATOM     12  C   UNL     1      44.069   3.584  10.204  0.00  0.00    +0.000 A 
ATOM     13  N   UNL     1      43.677   2.323  10.498  0.00  0.00    +0.000 NA
ATOM     14  N   UNL     1      44.390   1.564   9.651  0.00  0.00    +0.000 N 
ATOM     15  C   UNL     1      45.278   2.266   8.885  0.00  0.00    +0.000 A 
ATOM     16  C   UNL     1      46.326   1.852   8.059  0.00  0.00    +0.000 A 
ATOM     17  C   UNL     1      47.016   2.848   7.361  0.00  0.00    +0.000 A 
ATOM     18  C   UNL     1      46.631   4.186   7.446  0.00  0.00    +0.000 A 
ATOM     19  C   UNL     1      45.608   4.584   8.316  0.00  0.00    +0.000 A 
ATOM     20  C   UNL     1      44.957   3.602   9.089  0.00  0.00    +0.000 A 
ATOM     21  H   UNL     1      44.256   0.560   9.673  0.00  0.00    +0.000 HD
ENDBRANCH   9  12
ENDBRANCH   7  10
ENDBRANCH   1   7
BRANCH   4  22
ATOM     22  C   UNL     1      49.085   9.314  11.673  0.00  0.00    +0.000 C 
BRANCH  22  23
ATOM     23  N   UNL     1      50.210   9.023  12.604  0.00  0.00    +0.000 NA
BRANCH  23  24
ATOM     24  C   UNL     1      51.392   9.857  12.278  0.00  0.00    +0.000 C 
BRANCH  24  25
ATOM     25  C   UNL     1      52.705   9.076  12.056  0.00  0.00    +0.000 C 
BRANCH  25  26
ATOM     26  O   UNL     1      52.463   7.673  12.064  0.00  0.00    +0.000 OA
ATOM     27  H   UNL     1      52.718   7.334  11.189  0.00  0.00    +0.000 HD
ENDBRANCH  25  26
ENDBRANCH  24  25
ENDBRANCH  23  24
BRANCH  23  28
ATOM     28  C   UNL     1      49.782   9.282  14.000  0.00  0.00    +0.000 C 
BRANCH  28  29
ATOM     29  C   UNL     1      49.895   8.097  14.936  0.00  0.00    +0.000 A 
ATOM     30  C   UNL     1      51.144   7.686  15.423  0.00  0.00    +0.000 A 
ATOM     31  C   UNL     1      51.236   6.626  16.322  0.00  0.00    +0.000 A 
ATOM     32  C   UNL     1      50.081   5.976  16.747  0.00  0.00    +0.000 A 
ATOM     33  C   UNL     1      48.834   6.372  16.265  0.00  0.00    +0.000 A 
ATOM     34  C   UNL     1      48.744   7.431  15.366  0.00  0.00    +0.000 A 
ENDBRANCH  28  29
ENDBRANCH  23  28
ENDBRANCH  22  23
ENDBRANCH   4  22
TORSDOF 10
ENDMDL
MODEL 6
REMARK VINA RESULT:    -7.189      4.084      6.571
REMARK INTER + INTRA:         -12.109
REMARK INTER:                 -10.810
REMARK INTRA:                  -1.299
REMARK UNBOUND:                -0.927
REMARK  Name = 
REMARK  10 active torsions:
REMARK  status: ('A' for Active; 'I' for Inactive)
REMARK    1  A    between atoms: C_2  and  C_23
REMARK    2  A    between atoms: N_3  and  C_4
REMARK    3  A    between atoms: C_4  and  C_5
REMARK    4  A    between atoms: C_8  and  C_9
REMARK    5  A    between atoms: C_9  and  N_10
REMARK    6  A    between atoms: N_10  and  C_11
REMARK    7  A    between atoms: N_10  and  C_14
REMARK    8  A    between atoms: C_11  and  C_12
REMARK    9  A    between atoms: C_12  and  O_13
REMARK   10  A    between atoms: C_14  and  C_15
REMARK                            x       y       z     vdW  Elec       q    Type
REMARK                         _______ _______ _______ _____ _____    ______ ____
ROOT
ATOM      1  C   UNL     1      48.491   6.916  13.031  0.00  0.00    +0.000 A 
ATOM      2  C   UNL     1      47.626   5.978  13.615  0.00  0.00    +0.000 A 
ATOM      3  C   UNL     1      46.451   5.593  12.961  0.00  0.00    +0.000 A 
ATOM      4  C   UNL     1      46.122   6.140  11.713  0.00  0.00    +0.000 A 
ATOM      5  C   UNL     1      47.042   6.991  11.086  0.00  0.00    +0.000 A 
ATOM      6  C   UNL     1      48.217   7.372  11.737  0.00  0.00    +0.000 A 
ENDROOT
BRANCH   1   7
ATOM      7  C   UNL     1      49.670   7.467  13.791  0.00  0.00    +0.000 C 
BRANCH   7  10
ATOM      8  O   UNL     1      52.364   8.099  14.274  0.00  0.00    +0.000 OA
ATOM      9  C   UNL     1      51.818   8.498  13.252  0.00  0.00    +0.000 C 
ATOM     10  N   UNL     1      50.466   8.365  13.007  0.00  0.00    +0.000 N 
ATOM     11  H   UNL     1      50.166   8.626  12.072  0.00  0.00    +0.000 HD
BRANCH   9  12
ATOM     12  C   UNL     1      52.551   9.043  12.096  0.00  0.00    +0.000 A 
ATOM     13  N   UNL     1      52.974  10.328  12.081  0.00  0.00    +0.000 NA
ATOM     14  N   UNL     1      53.334  10.529  10.804  0.00  0.00    +0.000 N 
ATOM     15  C   UNL     1      53.090   9.465   9.982  0.00  0.00    +0.000 A 
ATOM     16  C   UNL     1      53.118   9.337   8.591  0.00  0.00    +0.000 A 
ATOM     17  C   UNL     1      52.865   8.067   8.064  0.00  0.00    +0.000 A 
ATOM     18  C   UNL     1      52.656   6.969   8.899  0.00  0.00    +0.000 A 
ATOM     19  C   UNL     1      52.587   7.129  10.288  0.00  0.00    +0.000 A 
ATOM     20  C   UNL     1      52.756   8.417  10.831  0.00  0.00    +0.000 A 
ATOM     21  H   UNL     1      53.704  11.435  10.543  0.00  0.00    +0.000 HD
ENDBRANCH   9  12
ENDBRANCH   7  10
ENDBRANCH   1   7
BRANCH   4  22
ATOM     22  C   UNL     1      44.781   5.855  11.063  0.00  0.00    +0.000 C 
BRANCH  22  23
ATOM     23  N   UNL     1      44.528   4.414  10.790  0.00  0.00    +0.000 NA
BRANCH  23  24
ATOM     24  C   UNL     1      43.365   3.925  11.571  0.00  0.00    +0.000 C 
BRANCH  24  25
ATOM     25  C   UNL     1      43.582   2.583  12.301  0.00  0.00    +0.000 C 
BRANCH  25  26
ATOM     26  O   UNL     1      42.960   1.517  11.590  0.00  0.00    +0.000 OA
ATOM     27  H   UNL     1      43.429   0.701  11.830  0.00  0.00    +0.000 HD
ENDBRANCH  25  26
ENDBRANCH  24  25
ENDBRANCH  23  24
BRANCH  23  28
ATOM     28  C   UNL     1      44.278   4.217   9.341  0.00  0.00    +0.000 C 
BRANCH  28  29
ATOM     29  C   UNL     1      45.308   3.372   8.621  0.00  0.00    +0.000 A 
ATOM     30  C   UNL     1      45.371   1.987   8.830  0.00  0.00    +0.000 A 
ATOM     31  C   UNL     1      46.288   1.210   8.128  0.00  0.00    +0.000 A 
ATOM     32  C   UNL     1      47.142   1.809   7.206  0.00  0.00    +0.000 A 
ATOM     33  C   UNL     1      47.093   3.185   6.994  0.00  0.00    +0.000 A 
ATOM     34  C   UNL     1      46.176   3.962   7.697  0.00  0.00    +0.000 A 
ENDBRANCH  28  29
ENDBRANCH  23  28
ENDBRANCH  22  23
ENDBRANCH   4  22
TORSDOF 10
ENDMDL
MODEL 7
REMARK VINA RESULT:    -6.979      2.152      9.704
REMARK INTER + INTRA:         -11.781
REMARK INTER:                 -10.279
REMARK INTRA:                  -1.502
REMARK UNBOUND:                -0.927
REMARK  Name = 
REMARK  10 active torsions:
REMARK  status: ('A' for Active; 'I' for Inactive)
REMARK    1  A    between atoms: C_2  and  C_23
REMARK    2  A    between atoms: N_3  and  C_4
REMARK    3  A    between atoms: C_4  and  C_5
REMARK    4  A    between atoms: C_8  and  C_9
REMARK    5  A    between atoms: C_9  and  N_10
REMARK    6  A    between atoms: N_10  and  C_11
REMARK    7  A    between atoms: N_10  and  C_14
REMARK    8  A    between atoms: C_11  and  C_12
REMARK    9  A    between atoms: C_12  and  O_13
REMARK   10  A    between atoms: C_14  and  C_15
REMARK                            x       y       z     vdW  Elec       q    Type
REMARK                         _______ _______ _______ _____ _____    ______ ____
ROOT
ATOM      1  C   UNL     1      45.863   5.772  12.683  0.00  0.00    +0.000 A 
ATOM      2  C   UNL     1      47.023   6.561  12.730  0.00  0.00    +0.000 A 
ATOM      3  C   UNL     1      47.970   6.371  13.742  0.00  0.00    +0.000 A 
ATOM      4  C   UNL     1      47.774   5.388  14.722  0.00  0.00    +0.000 A 
ATOM      5  C   UNL     1      46.670   4.532  14.606  0.00  0.00    +0.000 A 
ATOM      6  C   UNL     1      45.727   4.720  13.595  0.00  0.00    +0.000 A 
ENDROOT
BRANCH   1   7
ATOM      7  C   UNL     1      44.756   6.073  11.707  0.00  0.00    +0.000 C 
BRANCH   7  10
ATOM      8  O   UNL     1      45.908   5.742   9.167  0.00  0.00    +0.000 OA
ATOM      9  C   UNL     1      45.217   4.849   9.644  0.00  0.00    +0.000 C 
ATOM     10  N   UNL     1      44.493   4.985  10.812  0.00  0.00    +0.000 N 
ATOM     11  H   UNL     1      44.066   4.132  11.159  0.00  0.00    +0.000 HD
BRANCH   9  12
ATOM     12  C   UNL     1      45.181   3.474   9.114  0.00  0.00    +0.000 A 
ATOM     13  N   UNL     1      44.458   2.510   9.728  0.00  0.00    +0.000 NA
ATOM     14  N   UNL     1      44.880   1.377   9.144  0.00  0.00    +0.000 N 
ATOM     15  C   UNL     1      45.894   1.557   8.245  0.00  0.00    +0.000 A 
ATOM     16  C   UNL     1      46.737   0.650   7.599  0.00  0.00    +0.000 A 
ATOM     17  C   UNL     1      47.650   1.175   6.679  0.00  0.00    +0.000 A 
ATOM     18  C   UNL     1      47.670   2.539   6.382  0.00  0.00    +0.000 A 
ATOM     19  C   UNL     1      46.849   3.435   7.077  0.00  0.00    +0.000 A 
ATOM     20  C   UNL     1      45.982   2.932   8.066  0.00  0.00    +0.000 A 
ATOM     21  H   UNL     1      44.465   0.500   9.435  0.00  0.00    +0.000 HD
ENDBRANCH   9  12
ENDBRANCH   7  10
ENDBRANCH   1   7
BRANCH   4  22
ATOM     22  C   UNL     1      48.709   5.272  15.911  0.00  0.00    +0.000 C 
BRANCH  22  23
ATOM     23  N   UNL     1      48.448   6.263  16.992  0.00  0.00    +0.000 NA
BRANCH  23  24
ATOM     24  C   UNL     1      48.011   5.582  18.235  0.00  0.00    +0.000 C 
BRANCH  24  25
ATOM     25  C   UNL     1      48.301   4.067  18.292  0.00  0.00    +0.000 C 
BRANCH  25  26
ATOM     26  O   UNL     1      49.187   3.765  19.365  0.00  0.00    +0.000 OA
ATOM     27  H   UNL     1      50.066   3.615  18.978  0.00  0.00    +0.000 HD
ENDBRANCH  25  26
ENDBRANCH  24  25
ENDBRANCH  23  24
BRANCH  23  28
ATOM     28  C   UNL     1      49.678   7.049  17.255  0.00  0.00    +0.000 C 
BRANCH  28  29
ATOM     29  C   UNL     1      50.134   7.930  16.111  0.00  0.00    +0.000 A 
ATOM     30  C   UNL     1      51.361   7.696  15.473  0.00  0.00    +0.000 A 
ATOM     31  C   UNL     1      51.752   8.479  14.390  0.00  0.00    +0.000 A 
ATOM     32  C   UNL     1      50.916   9.493  13.931  0.00  0.00    +0.000 A 
ATOM     33  C   UNL     1      49.697   9.738  14.560  0.00  0.00    +0.000 A 
ATOM     34  C   UNL     1      49.308   8.956  15.644  0.00  0.00    +0.000 A 
ENDBRANCH  28  29
ENDBRANCH  23  28
ENDBRANCH  22  23
ENDBRANCH   4  22
TORSDOF 10
ENDMDL
MODEL 8
REMARK VINA RESULT:    -6.758      2.928      9.500
REMARK INTER + INTRA:         -11.438
REMARK INTER:                  -9.815
REMARK INTRA:                  -1.624
REMARK UNBOUND:                -0.927
REMARK  Name = 
REMARK  10 active torsions:
REMARK  status: ('A' for Active; 'I' for Inactive)
REMARK    1  A    between atoms: C_2  and  C_23
REMARK    2  A    between atoms: N_3  and  C_4
REMARK    3  A    between atoms: C_4  and  C_5
REMARK    4  A    between atoms: C_8  and  C_9
REMARK    5  A    between atoms: C_9  and  N_10
REMARK    6  A    between atoms: N_10  and  C_11
REMARK    7  A    between atoms: N_10  and  C_14
REMARK    8  A    between atoms: C_11  and  C_12
REMARK    9  A    between atoms: C_12  and  O_13
REMARK   10  A    between atoms: C_14  and  C_15
REMARK                            x       y       z     vdW  Elec       q    Type
REMARK                         _______ _______ _______ _____ _____    ______ ____
ROOT
ATOM      1  C   UNL     1      45.593   5.415  12.871  0.00  0.00    +0.000 A 
ATOM      2  C   UNL     1      46.177   6.404  12.065  0.00  0.00    +0.000 A 
ATOM      3  C   UNL     1      47.413   6.961  12.410  0.00  0.00    +0.000 A 
ATOM      4  C   UNL     1      48.084   6.539  13.565  0.00  0.00    +0.000 A 
ATOM      5  C   UNL     1      47.549   5.476  14.306  0.00  0.00    +0.000 A 
ATOM      6  C   UNL     1      46.318   4.917  13.959  0.00  0.00    +0.000 A 
ENDROOT
BRANCH   1   7
ATOM      7  C   UNL     1      44.191   4.926  12.611  0.00  0.00    +0.000 C 
BRANCH   7  10
ATOM      8  O   UNL     1      43.467   5.133   9.905  0.00  0.00    +0.000 OA
ATOM      9  C   UNL     1      43.909   4.075  10.338  0.00  0.00    +0.000 C 
ATOM     10  N   UNL     1      44.147   3.839  11.678  0.00  0.00    +0.000 N 
ATOM     11  H   UNL     1      44.628   2.969  11.886  0.00  0.00    +0.000 HD
BRANCH   9  12
ATOM     12  C   UNL     1      44.376   2.973   9.478  0.00  0.00    +0.000 A 
ATOM     13  N   UNL     1      43.989   1.697   9.711  0.00  0.00    +0.000 NA
ATOM     14  N   UNL     1      44.806   0.972   8.931  0.00  0.00    +0.000 N 
ATOM     15  C   UNL     1      45.749   1.710   8.272  0.00  0.00    +0.000 A 
ATOM     16  C   UNL     1      46.888   1.338   7.553  0.00  0.00    +0.000 A 
ATOM     17  C   UNL     1      47.620   2.363   6.947  0.00  0.00    +0.000 A 
ATOM     18  C   UNL     1      47.192   3.690   7.011  0.00  0.00    +0.000 A 
ATOM     19  C   UNL     1      46.074   4.045   7.776  0.00  0.00    +0.000 A 
ATOM     20  C   UNL     1      45.374   3.034   8.462  0.00  0.00    +0.000 A 
ATOM     21  H   UNL     1      44.698  -0.035   8.923  0.00  0.00    +0.000 HD
ENDBRANCH   9  12
ENDBRANCH   7  10
ENDBRANCH   1   7
BRANCH   4  22
ATOM     22  C   UNL     1      49.345   7.240  14.038  0.00  0.00    +0.000 C 
BRANCH  22  23
ATOM     23  N   UNL     1      49.105   8.329  15.024  0.00  0.00    +0.000 NA
BRANCH  23  24
ATOM     24  C   UNL     1      49.544   7.919  16.380  0.00  0.00    +0.000 C 
BRANCH  24  25
ATOM     25  C   UNL     1      50.712   6.911  16.415  0.00  0.00    +0.000 C 
BRANCH  25  26
ATOM     26  O   UNL     1      51.858   7.490  17.032  0.00  0.00    +0.000 OA
ATOM     27  H   UNL     1      52.457   6.761  17.264  0.00  0.00    +0.000 HD
ENDBRANCH  25  26
ENDBRANCH  24  25
ENDBRANCH  23  24
BRANCH  23  28
ATOM     28  C   UNL     1      49.837   9.550  14.607  0.00  0.00    +0.000 C 
BRANCH  28  29
ATOM     29  C   UNL     1      49.437  10.108  13.257  0.00  0.00    +0.000 A 
ATOM     30  C   UNL     1      50.374  10.213  12.219  0.00  0.00    +0.000 A 
ATOM     31  C   UNL     1      49.988  10.682  10.967  0.00  0.00    +0.000 A 
ATOM     32  C   UNL     1      48.662  11.040  10.739  0.00  0.00    +0.000 A 
ATOM     33  C   UNL     1      47.723  10.946  11.764  0.00  0.00    +0.000 A 
ATOM     34  C   UNL     1      48.110  10.478  13.017  0.00  0.00    +0.000 A 
ENDBRANCH  28  29
ENDBRANCH  23  28
ENDBRANCH  22  23
ENDBRANCH   4  22
TORSDOF 10
ENDMDL
MODEL 9
REMARK VINA RESULT:    -6.653      3.899      9.489
REMARK INTER + INTRA:         -11.275
REMARK INTER:                  -9.982
REMARK INTRA:                  -1.293
REMARK UNBOUND:                -0.927
REMARK  Name = 
REMARK  10 active torsions:
REMARK  status: ('A' for Active; 'I' for Inactive)
REMARK    1  A    between atoms: C_2  and  C_23
REMARK    2  A    between atoms: N_3  and  C_4
REMARK    3  A    between atoms: C_4  and  C_5
REMARK    4  A    between atoms: C_8  and  C_9
REMARK    5  A    between atoms: C_9  and  N_10
REMARK    6  A    between atoms: N_10  and  C_11
REMARK    7  A    between atoms: N_10  and  C_14
REMARK    8  A    between atoms: C_11  and  C_12
REMARK    9  A    between atoms: C_12  and  O_13
REMARK   10  A    between atoms: C_14  and  C_15
REMARK                            x       y       z     vdW  Elec       q    Type
REMARK                         _______ _______ _______ _____ _____    ______ ____
ROOT
ATOM      1  C   UNL     1      46.497   6.901  12.126  0.00  0.00    +0.000 A 
ATOM      2  C   UNL     1      46.839   6.017  13.161  0.00  0.00    +0.000 A 
ATOM      3  C   UNL     1      47.953   6.267  13.969  0.00  0.00    +0.000 A 
ATOM      4  C   UNL     1      48.744   7.404  13.756  0.00  0.00    +0.000 A 
ATOM      5  C   UNL     1      48.335   8.339  12.793  0.00  0.00    +0.000 A 
ATOM      6  C   UNL     1      47.221   8.091  11.990  0.00  0.00    +0.000 A 
ENDROOT
BRANCH   1   7
ATOM      7  C   UNL     1      45.407   6.565  11.142  0.00  0.00    +0.000 C 
BRANCH   7  10
ATOM      8  O   UNL     1      43.130   5.142  10.316  0.00  0.00    +0.000 OA
ATOM      9  C   UNL     1      44.231   4.606  10.277  0.00  0.00    +0.000 C 
ATOM     10  N   UNL     1      45.376   5.173  10.802  0.00  0.00    +0.000 N 
ATOM     11  H   UNL     1      46.239   4.681  10.592  0.00  0.00    +0.000 HD
BRANCH   9  12
ATOM     12  C   UNL     1      44.505   3.357   9.544  0.00  0.00    +0.000 A 
ATOM     13  N   UNL     1      43.979   2.179   9.954  0.00  0.00    +0.000 NA
ATOM     14  N   UNL     1      44.651   1.266   9.237  0.00  0.00    +0.000 N 
ATOM     15  C   UNL     1      45.635   1.791   8.446  0.00  0.00    +0.000 A 
ATOM     16  C   UNL     1      46.673   1.190   7.729  0.00  0.00    +0.000 A 
ATOM     17  C   UNL     1      47.487   2.031   6.964  0.00  0.00    +0.000 A 
ATOM     18  C   UNL     1      47.229   3.400   6.878  0.00  0.00    +0.000 A 
ATOM     19  C   UNL     1      46.213   3.987   7.643  0.00  0.00    +0.000 A 
ATOM     20  C   UNL     1      45.438   3.165   8.483  0.00  0.00    +0.000 A 
ATOM     21  H   UNL     1      44.420   0.287   9.362  0.00  0.00    +0.000 HD
ENDBRANCH   9  12
ENDBRANCH   7  10
ENDBRANCH   1   7
BRANCH   4  22
ATOM     22  C   UNL     1      50.041   7.610  14.516  0.00  0.00    +0.000 C 
BRANCH  22  23
ATOM     23  N   UNL     1      50.796   8.829  14.117  0.00  0.00    +0.000 NA
BRANCH  23  24
ATOM     24  C   UNL     1      50.763   9.845  15.197  0.00  0.00    +0.000 C 
BRANCH  24  25
ATOM     25  C   UNL     1      49.698  10.949  15.027  0.00  0.00    +0.000 C 
BRANCH  25  26
ATOM     26  O   UNL     1      48.511  10.617  15.743  0.00  0.00    +0.000 OA
ATOM     27  H   UNL     1      48.477  11.196  16.523  0.00  0.00    +0.000 HD
ENDBRANCH  25  26
ENDBRANCH  24  25
ENDBRANCH  23  24
BRANCH  23  28
ATOM     28  C   UNL     1      52.201   8.467  13.811  0.00  0.00    +0.000 C 
BRANCH  28  29
ATOM     29  C   UNL     1      52.593   8.593  12.353  0.00  0.00    +0.000 A 
ATOM     30  C   UNL     1      51.792   8.037  11.346  0.00  0.00    +0.000 A 
ATOM     31  C   UNL     1      52.132   8.198  10.005  0.00  0.00    +0.000 A 
ATOM     32  C   UNL     1      53.269   8.925   9.662  0.00  0.00    +0.000 A 
ATOM     33  C   UNL     1      54.076   9.478  10.654  0.00  0.00    +0.000 A 
ATOM     34  C   UNL     1      53.735   9.315  11.994  0.00  0.00    +0.000 A 
ENDBRANCH  28  29
ENDBRANCH  23  28
ENDBRANCH  22  23
ENDBRANCH   4  22
TORSDOF 10
ENDMDL
