MODEL 1
REMARK VINA RESULT:    -8.509      0.000      0.000
REMARK INTER + INTRA:         -12.057
REMARK INTER:                 -10.996
REMARK INTRA:                  -1.061
REMARK UNBOUND:                -1.061
REMARK  Name = 
REMARK  5 active torsions:
REMARK  status: ('A' for Active; 'I' for Inactive)
REMARK    1  A    between atoms: C_2  and  C_4
REMARK    2  A    between atoms: C_7  and  C_8
REMARK    3  A    between atoms: C_8  and  C_9
REMARK    4  A    between atoms: C_9  and  C_10
REMARK    5  A    between atoms: C_14  and  C_15
REMARK                            x       y       z     vdW  Elec       q    Type
REMARK                         _______ _______ _______ _____ _____    ______ ____
ROOT
ATOM      1  C   UNL     1      44.074   3.960  11.647  0.00  0.00    +0.000 C 
ENDROOT
BRANCH   1   2
ATOM      2  C   UNL     1      45.225   4.751  12.225  0.00  0.00    +0.000 A 
ATOM      3  C   UNL     1      45.539   6.013  11.713  0.00  0.00    +0.000 A 
ATOM      4  C   UNL     1      46.571   6.760  12.275  0.00  0.00    +0.000 A 
ATOM      5  C   UNL     1      47.272   6.267  13.376  0.00  0.00    +0.000 A 
ATOM      6  C   UNL     1      46.954   5.022  13.949  0.00  0.00    +0.000 A 
ATOM      7  C   UNL     1      45.945   4.260  13.328  0.00  0.00    +0.000 A 
BRANCH   6   8
ATOM      8  C   UNL     1      47.596   4.558  15.197  0.00  0.00    +0.000 A 
ATOM      9  C   UNL     1      48.118   5.454  16.134  0.00  0.00    +0.000 A 
ATOM     10  C   UNL     1      48.652   4.973  17.326  0.00  0.00    +0.000 A 
ATOM     11  C   UNL     1      48.659   3.605  17.560  0.00  0.00    +0.000 A 
ATOM     12  C   UNL     1      48.128   2.777  16.588  0.00  0.00    +0.000 A 
ATOM     13  N   UNL     1      47.595   3.219  15.424  0.00  0.00    +0.000 NA
ENDBRANCH   6   8
ENDBRANCH   1   2
BRANCH   1  14
ATOM     14  C   UNL     1      43.835   4.328  10.180  0.00  0.00    +0.000 C 
BRANCH  14  18
ATOM     15  C   UNL     1      46.617   2.407   7.489  0.00  0.00    +0.000 A 
ATOM     16  C   UNL     1      45.867   1.639   8.387  0.00  0.00    +0.000 A 
ATOM     17  C   UNL     1      44.971   2.264   9.261  0.00  0.00    +0.000 A 
ATOM     18  C   UNL     1      44.813   3.656   9.247  0.00  0.00    +0.000 A 
ATOM     19  C   UNL     1      45.589   4.419   8.363  0.00  0.00    +0.000 A 
ATOM     20  C   UNL     1      46.488   3.799   7.492  0.00  0.00    +0.000 A 
BRANCH  15  22
ATOM     21  N   UNL     1      48.706   2.486   6.240  0.00  0.00    +0.000 N 
ATOM     22  C   UNL     1      47.569   1.787   6.533  0.00  0.00    +0.000 C 
ATOM     23  O   UNL     1      47.373   0.675   6.053  0.00  0.00    +0.000 OA
ATOM     24  H   UNL     1      49.400   1.999   5.685  0.00  0.00    +0.000 HD
ATOM     25  H   UNL     1      49.024   3.256   6.812  0.00  0.00    +0.000 HD
ENDBRANCH  15  22
ENDBRANCH  14  18
ENDBRANCH   1  14
TORSDOF 5
ENDMDL
MODEL 2
REMARK VINA RESULT:    -8.257      2.104      3.659
REMARK INTER + INTRA:         -11.732
REMARK INTER:                 -10.467
REMARK INTRA:                  -1.265
REMARK UNBOUND:                -1.061
REMARK  Name = 
REMARK  5 active torsions:
REMARK  status: ('A' for Active; 'I' for Inactive)
REMARK    1  A    between atoms: C_2  and  C_4
REMARK    2  A    between atoms: C_7  and  C_8
REMARK    3  A    between atoms: C_8  and  C_9
REMARK    4  A    between atoms: C_9  and  C_10
REMARK    5  A    between atoms: C_14  and  C_15
REMARK                            x       y       z     vdW  Elec       q    Type
REMARK                         _______ _______ _______ _____ _____    ______ ____
ROOT
ATOM      1  C   UNL     1      43.817   3.717  11.543  0.00  0.00    +0.000 C 
ENDROOT
BRANCH   1   2
ATOM      2  C   UNL     1      45.018   4.300  12.250  0.00  0.00    +0.000 A 
ATOM      3  C   UNL     1      45.871   3.474  12.988  0.00  0.00    +0.000 A 
ATOM      4  C   UNL     1      47.002   4.005  13.604  0.00  0.00    +0.000 A 
ATOM      5  C   UNL     1      47.308   5.359  13.455  0.00  0.00    +0.000 A 
ATOM      6  C   UNL     1      46.501   6.212  12.680  0.00  0.00    +0.000 A 
ATOM      7  C   UNL     1      45.332   5.664  12.116  0.00  0.00    +0.000 A 
BRANCH   6   8
ATOM      8  C   UNL     1      46.894   7.610  12.404  0.00  0.00    +0.000 A 
ATOM      9  C   UNL     1      48.209   7.954  12.078  0.00  0.00    +0.000 A 
ATOM     10  C   UNL     1      48.518   9.273  11.759  0.00  0.00    +0.000 A 
ATOM     11  C   UNL     1      47.510  10.226  11.773  0.00  0.00    +0.000 A 
ATOM     12  C   UNL     1      46.232   9.815  12.107  0.00  0.00    +0.000 A 
ATOM     13  N   UNL     1      45.902   8.538  12.414  0.00  0.00    +0.000 NA
ENDBRANCH   6   8
ENDBRANCH   1   2
BRANCH   1  14
ATOM     14  C   UNL     1      43.722   4.232  10.104  0.00  0.00    +0.000 C 
BRANCH  14  18
ATOM     15  C   UNL     1      46.610   2.392   7.467  0.00  0.00    +0.000 A 
ATOM     16  C   UNL     1      45.914   1.613   8.398  0.00  0.00    +0.000 A 
ATOM     17  C   UNL     1      44.983   2.211   9.255  0.00  0.00    +0.000 A 
ATOM     18  C   UNL     1      44.737   3.589   9.190  0.00  0.00    +0.000 A 
ATOM     19  C   UNL     1      45.459   4.366   8.274  0.00  0.00    +0.000 A 
ATOM     20  C   UNL     1      46.392   3.773   7.420  0.00  0.00    +0.000 A 
BRANCH  15  22
ATOM     21  N   UNL     1      48.761   2.485   6.330  0.00  0.00    +0.000 N 
ATOM     22  C   UNL     1      47.596   1.799   6.529  0.00  0.00    +0.000 C 
ATOM     23  O   UNL     1      47.400   0.718   5.983  0.00  0.00    +0.000 OA
ATOM     24  H   UNL     1      49.472   2.010   5.785  0.00  0.00    +0.000 HD
ATOM     25  H   UNL     1      49.067   3.217   6.956  0.00  0.00    +0.000 HD
ENDBRANCH  15  22
ENDBRANCH  14  18
ENDBRANCH   1  14
TORSDOF 5
ENDMDL
MODEL 3
REMARK VINA RESULT:    -8.207      1.856      3.240
REMARK INTER + INTRA:         -11.666
REMARK INTER:                 -10.501
REMARK INTRA:                  -1.165
REMARK UNBOUND:                -1.061
REMARK  Name = 
REMARK  5 active torsions:
REMARK  status: ('A' for Active; 'I' for Inactive)
REMARK    1  A    between atoms: C_2  and  C_4
REMARK    2  A    between atoms: C_7  and  C_8
REMARK    3  A    between atoms: C_8  and  C_9
REMARK    4  A    between atoms: C_9  and  C_10
REMARK    5  A    between atoms: C_14  and  C_15
REMARK                            x       y       z     vdW  Elec       q    Type
REMARK                         _______ _______ _______ _____ _____    ______ ____
ROOT
ATOM      1  C   UNL     1      44.170   5.306  10.818  0.00  0.00    +0.000 C 
ENDROOT
BRANCH   1   2
ATOM      2  C   UNL     1      45.251   5.169  11.865  0.00  0.00    +0.000 A 
ATOM      3  C   UNL     1      45.265   4.066  12.724  0.00  0.00    +0.000 A 
ATOM      4  C   UNL     1      46.286   3.918  13.658  0.00  0.00    +0.000 A 
ATOM      5  C   UNL     1      47.322   4.852  13.716  0.00  0.00    +0.000 A 
ATOM      6  C   UNL     1      47.369   5.949  12.837  0.00  0.00    +0.000 A 
ATOM      7  C   UNL     1      46.295   6.108  11.940  0.00  0.00    +0.000 A 
BRANCH   6   8
ATOM      8  C   UNL     1      48.532   6.861  12.799  0.00  0.00    +0.000 A 
ATOM      9  C   UNL     1      48.804   7.662  11.686  0.00  0.00    +0.000 A 
ATOM     10  C   UNL     1      49.870   8.555  11.723  0.00  0.00    +0.000 A 
ATOM     11  C   UNL     1      50.649   8.631  12.869  0.00  0.00    +0.000 A 
ATOM     12  C   UNL     1      50.323   7.808  13.931  0.00  0.00    +0.000 A 
ATOM     13  N   UNL     1      49.287   6.936  13.926  0.00  0.00    +0.000 NA
ENDBRANCH   6   8
ENDBRANCH   1   2
BRANCH   1  14
ATOM     14  C   UNL     1      43.764   3.937  10.264  0.00  0.00    +0.000 C 
BRANCH  14  18
ATOM     15  C   UNL     1      46.631   2.397   7.420  0.00  0.00    +0.000 A 
ATOM     16  C   UNL     1      46.351   3.768   7.462  0.00  0.00    +0.000 A 
ATOM     17  C   UNL     1      45.418   4.264   8.379  0.00  0.00    +0.000 A 
ATOM     18  C   UNL     1      44.759   3.400   9.264  0.00  0.00    +0.000 A 
ATOM     19  C   UNL     1      45.025   2.025   9.197  0.00  0.00    +0.000 A 
ATOM     20  C   UNL     1      45.953   1.527   8.279  0.00  0.00    +0.000 A 
BRANCH  15  22
ATOM     21  N   UNL     1      48.763   2.550   6.254  0.00  0.00    +0.000 N 
ATOM     22  C   UNL     1      47.623   1.828   6.474  0.00  0.00    +0.000 C 
ATOM     23  O   UNL     1      47.456   0.737   5.939  0.00  0.00    +0.000 OA
ATOM     24  H   UNL     1      49.481   2.093   5.704  0.00  0.00    +0.000 HD
ATOM     25  H   UNL     1      49.052   3.296   6.870  0.00  0.00    +0.000 HD
ENDBRANCH  15  22
ENDBRANCH  14  18
ENDBRANCH   1  14
TORSDOF 5
ENDMDL
MODEL 4
REMARK VINA RESULT:    -7.623      3.105      5.182
REMARK INTER + INTRA:         -10.912
REMARK INTER:                  -9.857
REMARK INTRA:                  -1.055
REMARK UNBOUND:                -1.061
REMARK  Name = 
REMARK  5 active torsions:
REMARK  status: ('A' for Active; 'I' for Inactive)
REMARK    1  A    between atoms: C_2  and  C_4
REMARK    2  A    between atoms: C_7  and  C_8
REMARK    3  A    between atoms: C_8  and  C_9
REMARK    4  A    between atoms: C_9  and  C_10
REMARK    5  A    between atoms: C_14  and  C_15
REMARK                            x       y       z     vdW  Elec       q    Type
REMARK                         _______ _______ _______ _____ _____    ______ ____
ROOT
ATOM      1  C   UNL     1      44.695   4.585  11.726  0.00  0.00    +0.000 C 
ENDROOT
BRANCH   1   2
ATOM      2  C   UNL     1      45.378   5.916  11.937  0.00  0.00    +0.000 A 
ATOM      3  C   UNL     1      46.729   5.965  12.295  0.00  0.00    +0.000 A 
ATOM      4  C   UNL     1      47.370   7.192  12.447  0.00  0.00    +0.000 A 
ATOM      5  C   UNL     1      46.675   8.378  12.205  0.00  0.00    +0.000 A 
ATOM      6  C   UNL     1      45.329   8.368  11.796  0.00  0.00    +0.000 A 
ATOM      7  C   UNL     1      44.687   7.117  11.706  0.00  0.00    +0.000 A 
BRANCH   6   8
ATOM      8  C   UNL     1      44.629   9.610  11.405  0.00  0.00    +0.000 A 
ATOM      9  C   UNL     1      43.402   9.585  10.735  0.00  0.00    +0.000 A 
ATOM     10  C   UNL     1      42.749  10.780  10.448  0.00  0.00    +0.000 A 
ATOM     11  C   UNL     1      43.333  11.979  10.830  0.00  0.00    +0.000 A 
ATOM     12  C   UNL     1      44.549  11.929  11.488  0.00  0.00    +0.000 A 
ATOM     13  N   UNL     1      45.202  10.781  11.787  0.00  0.00    +0.000 NA
ENDBRANCH   6   8
ENDBRANCH   1   2
BRANCH   1  14
ATOM     14  C   UNL     1      44.083   4.496  10.325  0.00  0.00    +0.000 C 
BRANCH  14  18
ATOM     15  C   UNL     1      46.624   2.432   7.505  0.00  0.00    +0.000 A 
ATOM     16  C   UNL     1      45.888   1.705   8.448  0.00  0.00    +0.000 A 
ATOM     17  C   UNL     1      45.070   2.375   9.363  0.00  0.00    +0.000 A 
ATOM     18  C   UNL     1      44.977   3.774   9.347  0.00  0.00    +0.000 A 
ATOM     19  C   UNL     1      45.740   4.495   8.417  0.00  0.00    +0.000 A 
ATOM     20  C   UNL     1      46.560   3.828   7.504  0.00  0.00    +0.000 A 
BRANCH  15  22
ATOM     21  N   UNL     1      48.659   2.392   6.168  0.00  0.00    +0.000 N 
ATOM     22  C   UNL     1      47.493   1.762   6.504  0.00  0.00    +0.000 C 
ATOM     23  O   UNL     1      47.207   0.670   6.025  0.00  0.00    +0.000 OA
ATOM     24  H   UNL     1      49.296   1.867   5.580  0.00  0.00    +0.000 HD
ATOM     25  H   UNL     1      49.049   3.135   6.731  0.00  0.00    +0.000 HD
ENDBRANCH  15  22
ENDBRANCH  14  18
ENDBRANCH   1  14
TORSDOF 5
ENDMDL
MODEL 5
REMARK VINA RESULT:    -7.117      2.764      7.747
REMARK INTER + INTRA:         -10.258
REMARK INTER:                  -9.614
REMARK INTRA:                  -0.644
REMARK UNBOUND:                -1.061
REMARK  Name = 
REMARK  5 active torsions:
REMARK  status: ('A' for Active; 'I' for Inactive)
REMARK    1  A    between atoms: C_2  and  C_4
REMARK    2  A    between atoms: C_7  and  C_8
REMARK    3  A    between atoms: C_8  and  C_9
REMARK    4  A    between atoms: C_9  and  C_10
REMARK    5  A    between atoms: C_14  and  C_15
REMARK                            x       y       z     vdW  Elec       q    Type
REMARK                         _______ _______ _______ _____ _____    ______ ____
ROOT
ATOM      1  C   UNL     1      45.169   6.593  11.424  0.00  0.00    +0.000 C 
ENDROOT
BRANCH   1   2
ATOM      2  C   UNL     1      44.818   5.190  10.987  0.00  0.00    +0.000 A 
ATOM      3  C   UNL     1      43.727   4.527  11.557  0.00  0.00    +0.000 A 
ATOM      4  C   UNL     1      43.377   3.251  11.124  0.00  0.00    +0.000 A 
ATOM      5  C   UNL     1      44.094   2.642  10.092  0.00  0.00    +0.000 A 
ATOM      6  C   UNL     1      45.168   3.296   9.461  0.00  0.00    +0.000 A 
ATOM      7  C   UNL     1      45.538   4.562   9.956  0.00  0.00    +0.000 A 
BRANCH   6   8
ATOM      8  C   UNL     1      45.839   2.717   8.278  0.00  0.00    +0.000 A 
ATOM      9  C   UNL     1      46.113   3.481   7.139  0.00  0.00    +0.000 A 
ATOM     10  C   UNL     1      46.808   2.910   6.077  0.00  0.00    +0.000 A 
ATOM     11  C   UNL     1      47.215   1.587   6.168  0.00  0.00    +0.000 A 
ATOM     12  C   UNL     1      46.907   0.891   7.323  0.00  0.00    +0.000 A 
ATOM     13  N   UNL     1      46.240   1.423   8.374  0.00  0.00    +0.000 NA
ENDBRANCH   6   8
ENDBRANCH   1   2
BRANCH   1  14
ATOM     14  C   UNL     1      46.672   6.728  11.687  0.00  0.00    +0.000 C 
BRANCH  14  18
ATOM     15  C   UNL     1      47.808   5.114  15.532  0.00  0.00    +0.000 A 
ATOM     16  C   UNL     1      48.284   6.367  15.128  0.00  0.00    +0.000 A 
ATOM     17  C   UNL     1      47.920   6.885  13.882  0.00  0.00    +0.000 A 
ATOM     18  C   UNL     1      47.077   6.162  13.026  0.00  0.00    +0.000 A 
ATOM     19  C   UNL     1      46.628   4.896  13.426  0.00  0.00    +0.000 A 
ATOM     20  C   UNL     1      46.994   4.373  14.669  0.00  0.00    +0.000 A 
BRANCH  15  22
ATOM     21  N   UNL     1      47.187   4.541  17.815  0.00  0.00    +0.000 N 
ATOM     22  C   UNL     1      48.157   4.530  16.851  0.00  0.00    +0.000 C 
ATOM     23  O   UNL     1      49.251   4.020  17.065  0.00  0.00    +0.000 OA
ATOM     24  H   UNL     1      47.398   4.032  18.666  0.00  0.00    +0.000 HD
ATOM     25  H   UNL     1      46.214   4.698  17.595  0.00  0.00    +0.000 HD
ENDBRANCH  15  22
ENDBRANCH  14  18
ENDBRANCH   1  14
TORSDOF 5
ENDMDL
MODEL 6
REMARK VINA RESULT:    -7.042      1.571      2.189
REMARK INTER + INTRA:         -10.161
REMARK INTER:                  -9.183
REMARK INTRA:                  -0.978
REMARK UNBOUND:                -1.061
REMARK  Name = 
REMARK  5 active torsions:
REMARK  status: ('A' for Active; 'I' for Inactive)
REMARK    1  A    between atoms: C_2  and  C_4
REMARK    2  A    between atoms: C_7  and  C_8
REMARK    3  A    between atoms: C_8  and  C_9
REMARK    4  A    between atoms: C_9  and  C_10
REMARK    5  A    between atoms: C_14  and  C_15
REMARK                            x       y       z     vdW  Elec       q    Type
REMARK                         _______ _______ _______ _____ _____    ______ ____
ROOT
ATOM      1  C   UNL     1      44.946   4.118  12.199  0.00  0.00    +0.000 C 
ENDROOT
BRANCH   1   2
ATOM      2  C   UNL     1      45.748   5.374  12.453  0.00  0.00    +0.000 A 
ATOM      3  C   UNL     1      45.377   6.580  11.851  0.00  0.00    +0.000 A 
ATOM      4  C   UNL     1      46.090   7.746  12.120  0.00  0.00    +0.000 A 
ATOM      5  C   UNL     1      47.156   7.721  13.022  0.00  0.00    +0.000 A 
ATOM      6  C   UNL     1      47.528   6.537  13.684  0.00  0.00    +0.000 A 
ATOM      7  C   UNL     1      46.829   5.360  13.351  0.00  0.00    +0.000 A 
BRANCH   6   8
ATOM      8  C   UNL     1      48.561   6.534  14.741  0.00  0.00    +0.000 A 
ATOM      9  C   UNL     1      48.403   5.804  15.923  0.00  0.00    +0.000 A 
ATOM     10  C   UNL     1      49.432   5.777  16.860  0.00  0.00    +0.000 A 
ATOM     11  C   UNL     1      50.600   6.480  16.602  0.00  0.00    +0.000 A 
ATOM     12  C   UNL     1      50.686   7.181  15.413  0.00  0.00    +0.000 A 
ATOM     13  N   UNL     1      49.705   7.219  14.481  0.00  0.00    +0.000 NA
ENDBRANCH   6   8
ENDBRANCH   1   2
BRANCH   1  14
ATOM     14  C   UNL     1      44.150   4.229  10.895  0.00  0.00    +0.000 C 
BRANCH  14  18
ATOM     15  C   UNL     1      46.390   2.795   7.489  0.00  0.00    +0.000 A 
ATOM     16  C   UNL     1      46.214   4.170   7.685  0.00  0.00    +0.000 A 
ATOM     17  C   UNL     1      45.484   4.632   8.785  0.00  0.00    +0.000 A 
ATOM     18  C   UNL     1      44.925   3.730   9.699  0.00  0.00    +0.000 A 
ATOM     19  C   UNL     1      45.082   2.354   9.481  0.00  0.00    +0.000 A 
ATOM     20  C   UNL     1      45.807   1.890   8.381  0.00  0.00    +0.000 A 
BRANCH  15  22
ATOM     21  N   UNL     1      48.160   1.361   6.629  0.00  0.00    +0.000 N 
ATOM     22  C   UNL     1      47.169   2.260   6.345  0.00  0.00    +0.000 C 
ATOM     23  O   UNL     1      46.916   2.571   5.186  0.00  0.00    +0.000 OA
ATOM     24  H   UNL     1      48.599   0.915   5.832  0.00  0.00    +0.000 HD
ATOM     25  H   UNL     1      48.213   0.885   7.518  0.00  0.00    +0.000 HD
ENDBRANCH  15  22
ENDBRANCH  14  18
ENDBRANCH   1  14
TORSDOF 5
ENDMDL
MODEL 7
REMARK VINA RESULT:    -6.928      3.921      7.142
REMARK INTER + INTRA:         -10.014
REMARK INTER:                  -8.917
REMARK INTRA:                  -1.097
REMARK UNBOUND:                -1.061
REMARK  Name = 
REMARK  5 active torsions:
REMARK  status: ('A' for Active; 'I' for Inactive)
REMARK    1  A    between atoms: C_2  and  C_4
REMARK    2  A    between atoms: C_7  and  C_8
REMARK    3  A    between atoms: C_8  and  C_9
REMARK    4  A    between atoms: C_9  and  C_10
REMARK    5  A    between atoms: C_14  and  C_15
REMARK                            x       y       z     vdW  Elec       q    Type
REMARK                         _______ _______ _______ _____ _____    ______ ____
ROOT
ATOM      1  C   UNL     1      44.746   7.791  11.638  0.00  0.00    +0.000 C 
ENDROOT
BRANCH   1   2
ATOM      2  C   UNL     1      44.389   6.350  11.356  0.00  0.00    +0.000 A 
ATOM      3  C   UNL     1      43.249   5.781  11.932  0.00  0.00    +0.000 A 
ATOM      4  C   UNL     1      42.896   4.467  11.637  0.00  0.00    +0.000 A 
ATOM      5  C   UNL     1      43.659   3.723  10.735  0.00  0.00    +0.000 A 
ATOM      6  C   UNL     1      44.785   4.277  10.098  0.00  0.00    +0.000 A 
ATOM      7  C   UNL     1      45.154   5.588  10.457  0.00  0.00    +0.000 A 
BRANCH   6   8
ATOM      8  C   UNL     1      45.512   3.545   9.039  0.00  0.00    +0.000 A 
ATOM      9  C   UNL     1      45.620   2.151   9.048  0.00  0.00    +0.000 A 
ATOM     10  C   UNL     1      46.256   1.502   7.995  0.00  0.00    +0.000 A 
ATOM     11  C   UNL     1      46.776   2.255   6.951  0.00  0.00    +0.000 A 
ATOM     12  C   UNL     1      46.634   3.629   7.009  0.00  0.00    +0.000 A 
ATOM     13  N   UNL     1      46.014   4.286   8.018  0.00  0.00    +0.000 NA
ENDBRANCH   6   8
ENDBRANCH   1   2
BRANCH   1  14
ATOM     14  C   UNL     1      45.692   7.898  12.838  0.00  0.00    +0.000 C 
BRANCH  14  18
ATOM     15  C   UNL     1      49.804   8.450  11.628  0.00  0.00    +0.000 A 
ATOM     16  C   UNL     1      49.357   7.189  12.040  0.00  0.00    +0.000 A 
ATOM     17  C   UNL     1      48.027   7.013  12.436  0.00  0.00    +0.000 A 
ATOM     18  C   UNL     1      47.131   8.091  12.425  0.00  0.00    +0.000 A 
ATOM     19  C   UNL     1      47.594   9.356  12.037  0.00  0.00    +0.000 A 
ATOM     20  C   UNL     1      48.922   9.535  11.644  0.00  0.00    +0.000 A 
BRANCH  15  22
ATOM     21  N   UNL     1      52.118   7.708  11.476  0.00  0.00    +0.000 N 
ATOM     22  C   UNL     1      51.202   8.680  11.185  0.00  0.00    +0.000 C 
ATOM     23  O   UNL     1      51.523   9.677  10.546  0.00  0.00    +0.000 OA
ATOM     24  H   UNL     1      53.036   7.822  11.063  0.00  0.00    +0.000 HD
ATOM     25  H   UNL     1      51.842   6.776  11.749  0.00  0.00    +0.000 HD
ENDBRANCH  15  22
ENDBRANCH  14  18
ENDBRANCH   1  14
TORSDOF 5
ENDMDL
MODEL 8
REMARK VINA RESULT:    -6.686      3.469      7.613
REMARK INTER + INTRA:          -9.701
REMARK INTER:                  -8.767
REMARK INTRA:                  -0.934
REMARK UNBOUND:                -1.061
REMARK  Name = 
REMARK  5 active torsions:
REMARK  status: ('A' for Active; 'I' for Inactive)
REMARK    1  A    between atoms: C_2  and  C_4
REMARK    2  A    between atoms: C_7  and  C_8
REMARK    3  A    between atoms: C_8  and  C_9
REMARK    4  A    between atoms: C_9  and  C_10
REMARK    5  A    between atoms: C_14  and  C_15
REMARK                            x       y       z     vdW  Elec       q    Type
REMARK                         _______ _______ _______ _____ _____    ______ ____
ROOT
ATOM      1  C   UNL     1      44.490   6.362  11.751  0.00  0.00    +0.000 C 
ENDROOT
BRANCH   1   2
ATOM      2  C   UNL     1      44.376   4.921  11.312  0.00  0.00    +0.000 A 
ATOM      3  C   UNL     1      43.444   4.072  11.918  0.00  0.00    +0.000 A 
ATOM      4  C   UNL     1      43.309   2.756  11.484  0.00  0.00    +0.000 A 
ATOM      5  C   UNL     1      44.079   2.289  10.416  0.00  0.00    +0.000 A 
ATOM      6  C   UNL     1      44.992   3.126   9.750  0.00  0.00    +0.000 A 
ATOM      7  C   UNL     1      45.152   4.436  10.245  0.00  0.00    +0.000 A 
BRANCH   6   8
ATOM      8  C   UNL     1      45.705   2.681   8.534  0.00  0.00    +0.000 A 
ATOM      9  C   UNL     1      45.984   3.558   7.482  0.00  0.00    +0.000 A 
ATOM     10  C   UNL     1      46.717   3.110   6.387  0.00  0.00    +0.000 A 
ATOM     11  C   UNL     1      47.159   1.795   6.361  0.00  0.00    +0.000 A 
ATOM     12  C   UNL     1      46.845   0.984   7.436  0.00  0.00    +0.000 A 
ATOM     13  N   UNL     1      46.140   1.395   8.517  0.00  0.00    +0.000 NA
ENDBRANCH   6   8
ENDBRANCH   1   2
BRANCH   1  14
ATOM     14  C   UNL     1      45.797   6.987  11.253  0.00  0.00    +0.000 C 
BRANCH  14  18
ATOM     15  C   UNL     1      48.806   7.267  14.341  0.00  0.00    +0.000 A 
ATOM     16  C   UNL     1      47.976   6.142  14.270  0.00  0.00    +0.000 A 
ATOM     17  C   UNL     1      46.999   6.056  13.273  0.00  0.00    +0.000 A 
ATOM     18  C   UNL     1      46.841   7.087  12.338  0.00  0.00    +0.000 A 
ATOM     19  C   UNL     1      47.657   8.223  12.433  0.00  0.00    +0.000 A 
ATOM     20  C   UNL     1      48.632   8.314  13.430  0.00  0.00    +0.000 A 
BRANCH  15  22
ATOM     21  N   UNL     1      51.162   7.273  14.955  0.00  0.00    +0.000 N 
ATOM     22  C   UNL     1      49.866   7.396  15.372  0.00  0.00    +0.000 C 
ATOM     23  O   UNL     1      49.603   7.645  16.544  0.00  0.00    +0.000 OA
ATOM     24  H   UNL     1      51.875   7.484  15.645  0.00  0.00    +0.000 HD
ATOM     25  H   UNL     1      51.421   7.342  13.982  0.00  0.00    +0.000 HD
ENDBRANCH  15  22
ENDBRANCH  14  18
ENDBRANCH   1  14
TORSDOF 5
ENDMDL
MODEL 9
REMARK VINA RESULT:    -6.520      2.967      4.392
REMARK INTER + INTRA:          -9.487
REMARK INTER:                  -8.318
REMARK INTRA:                  -1.170
REMARK UNBOUND:                -1.061
REMARK  Name = 
REMARK  5 active torsions:
REMARK  status: ('A' for Active; 'I' for Inactive)
REMARK    1  A    between atoms: C_2  and  C_4
REMARK    2  A    between atoms: C_7  and  C_8
REMARK    3  A    between atoms: C_8  and  C_9
REMARK    4  A    between atoms: C_9  and  C_10
REMARK    5  A    between atoms: C_14  and  C_15
REMARK                            x       y       z     vdW  Elec       q    Type
REMARK                         _______ _______ _______ _____ _____    ______ ____
ROOT
ATOM      1  C   UNL     1      47.823   8.112  12.751  0.00  0.00    +0.000 C 
ENDROOT
BRANCH   1   2
ATOM      2  C   UNL     1      48.182   7.944  14.209  0.00  0.00    +0.000 A 
ATOM      3  C   UNL     1      48.156   9.043  15.072  0.00  0.00    +0.000 A 
ATOM      4  C   UNL     1      48.444   8.880  16.425  0.00  0.00    +0.000 A 
ATOM      5  C   UNL     1      48.725   7.610  16.931  0.00  0.00    +0.000 A 
ATOM      6  C   UNL     1      48.714   6.473  16.104  0.00  0.00    +0.000 A 
ATOM      7  C   UNL     1      48.476   6.672  14.730  0.00  0.00    +0.000 A 
BRANCH   6   8
ATOM      8  C   UNL     1      48.871   5.111  16.658  0.00  0.00    +0.000 A 
ATOM      9  C   UNL     1      47.795   4.224  16.750  0.00  0.00    +0.000 A 
ATOM     10  C   UNL     1      48.006   2.930  17.215  0.00  0.00    +0.000 A 
ATOM     11  C   UNL     1      49.286   2.543  17.583  0.00  0.00    +0.000 A 
ATOM     12  C   UNL     1      50.303   3.474  17.468  0.00  0.00    +0.000 A 
ATOM     13  N   UNL     1      50.128   4.736  17.012  0.00  0.00    +0.000 NA
ENDBRANCH   6   8
ENDBRANCH   1   2
BRANCH   1  14
ATOM     14  C   UNL     1      46.305   8.160  12.560  0.00  0.00    +0.000 C 
BRANCH  14  18
ATOM     15  C   UNL     1      44.632   4.345  11.411  0.00  0.00    +0.000 A 
ATOM     16  C   UNL     1      44.612   4.744  12.752  0.00  0.00    +0.000 A 
ATOM     17  C   UNL     1      45.159   5.977  13.124  0.00  0.00    +0.000 A 
ATOM     18  C   UNL     1      45.728   6.823  12.162  0.00  0.00    +0.000 A 
ATOM     19  C   UNL     1      45.768   6.404  10.825  0.00  0.00    +0.000 A 
ATOM     20  C   UNL     1      45.226   5.171  10.452  0.00  0.00    +0.000 A 
BRANCH  15  22
ATOM     21  N   UNL     1      44.757   2.332  10.047  0.00  0.00    +0.000 N 
ATOM     22  C   UNL     1      44.050   3.053  10.969  0.00  0.00    +0.000 C 
ATOM     23  O   UNL     1      43.001   2.621  11.436  0.00  0.00    +0.000 OA
ATOM     24  H   UNL     1      44.410   1.400   9.848  0.00  0.00    +0.000 HD
ATOM     25  H   UNL     1      45.730   2.518   9.852  0.00  0.00    +0.000 HD
ENDBRANCH  15  22
ENDBRANCH  14  18
ENDBRANCH   1  14
TORSDOF 5
ENDMDL
