MODEL 1
REMARK VINA RESULT:    -7.909      0.000      0.000
REMARK INTER + INTRA:         -11.353
REMARK INTER:                 -10.220
REMARK INTRA:                  -1.132
REMARK UNBOUND:                -1.132
REMARK  Name = 
REMARK  5 active torsions:
REMARK  status: ('A' for Active; 'I' for Inactive)
REMARK    1  A    between atoms: C_2  and  C_4
REMARK    2  A    between atoms: C_9  and  O_10
REMARK    3  A    between atoms: O_10  and  C_11
REMARK    4  A    between atoms: C_11  and  C_12
REMARK    5  A    between atoms: C_16  and  C_17
REMARK                            x       y       z     vdW  Elec       q    Type
REMARK                         _______ _______ _______ _____ _____    ______ ____
ROOT
ATOM      1  C   UNL     1      43.861   6.570  11.450  0.00  0.00    +0.000 C 
ENDROOT
BRANCH   1   2
ATOM      2  C   UNL     1      43.944   5.111  11.076  0.00  0.00    +0.000 A 
ATOM      3  C   UNL     1      43.221   4.147  11.777  0.00  0.00    +0.000 A 
ATOM      4  C   UNL     1      43.274   2.837  11.338  0.00  0.00    +0.000 A 
ATOM      5  N   UNL     1      44.008   2.424  10.280  0.00  0.00    +0.000 NA
ATOM      6  C   UNL     1      44.748   3.350   9.621  0.00  0.00    +0.000 A 
ATOM      7  C   UNL     1      44.723   4.698   9.989  0.00  0.00    +0.000 A 
BRANCH   6   8
ATOM      8  C   UNL     1      45.583   2.838   8.514  0.00  0.00    +0.000 A 
ATOM      9  C   UNL     1      46.000   3.679   7.462  0.00  0.00    +0.000 A 
ATOM     10  C   UNL     1      46.767   3.197   6.394  0.00  0.00    +0.000 A 
ATOM     11  C   UNL     1      47.131   1.854   6.355  0.00  0.00    +0.000 A 
ATOM     12  C   UNL     1      46.730   1.014   7.382  0.00  0.00    +0.000 A 
ATOM     13  F   UNL     1      47.072  -0.281   7.348  0.00  0.00    +0.000 F 
ATOM     14  C   UNL     1      45.968   1.487   8.446  0.00  0.00    +0.000 A 
ENDBRANCH   6   8
ENDBRANCH   1   2
BRANCH   1  15
ATOM     15  O   UNL     1      44.517   6.807  12.689  0.00  0.00    +0.000 OA
BRANCH  15  21
ATOM     16  C   UNL     1      47.631   8.629  12.372  0.00  0.00    +0.000 A 
ATOM     17  C   UNL     1      48.611   7.675  12.637  0.00  0.00    +0.000 A 
ATOM     18  C   UNL     1      48.239   6.370  12.951  0.00  0.00    +0.000 A 
ATOM     19  C   UNL     1      46.886   5.993  12.994  0.00  0.00    +0.000 A 
ATOM     20 CL   UNL     1      46.635   4.331  13.401  0.00  0.00    +0.000 Cl
ATOM     21  C   UNL     1      45.884   6.941  12.717  0.00  0.00    +0.000 A 
ATOM     22  C   UNL     1      46.279   8.259  12.407  0.00  0.00    +0.000 A 
BRANCH  16  24
ATOM     23  N   UNL     1      47.663  11.018  12.851  0.00  0.00    +0.000 N 
ATOM     24  C   UNL     1      48.075  10.005  12.031  0.00  0.00    +0.000 C 
ATOM     25  O   UNL     1      48.815  10.222  11.082  0.00  0.00    +0.000 OA
ATOM     26  H   UNL     1      48.059  11.932  12.668  0.00  0.00    +0.000 HD
ATOM     27  H   UNL     1      47.267  10.855  13.764  0.00  0.00    +0.000 HD
ENDBRANCH  16  24
ENDBRANCH  15  21
ENDBRANCH   1  15
TORSDOF 5
ENDMDL
MODEL 2
REMARK VINA RESULT:    -7.794      2.492      3.400
REMARK INTER + INTRA:         -11.204
REMARK INTER:                 -10.535
REMARK INTRA:                  -0.669
REMARK UNBOUND:                -1.132
REMARK  Name = 
REMARK  5 active torsions:
REMARK  status: ('A' for Active; 'I' for Inactive)
REMARK    1  A    between atoms: C_2  and  C_4
REMARK    2  A    between atoms: C_9  and  O_10
REMARK    3  A    between atoms: O_10  and  C_11
REMARK    4  A    between atoms: C_11  and  C_12
REMARK    5  A    between atoms: C_16  and  C_17
REMARK                            x       y       z     vdW  Elec       q    Type
REMARK                         _______ _______ _______ _____ _____    ______ ____
ROOT
ATOM      1  C   UNL     1      44.942   6.684  11.410  0.00  0.00    +0.000 C 
ENDROOT
BRANCH   1   2
ATOM      2  C   UNL     1      44.643   5.282  10.943  0.00  0.00    +0.000 A 
ATOM      3  C   UNL     1      43.651   4.516  11.555  0.00  0.00    +0.000 A 
ATOM      4  C   UNL     1      43.367   3.268  11.031  0.00  0.00    +0.000 A 
ATOM      5  N   UNL     1      44.011   2.729   9.972  0.00  0.00    +0.000 NA
ATOM      6  C   UNL     1      45.007   3.451   9.400  0.00  0.00    +0.000 A 
ATOM      7  C   UNL     1      45.332   4.731   9.856  0.00  0.00    +0.000 A 
BRANCH   6   8
ATOM      8  C   UNL     1      45.724   2.791   8.288  0.00  0.00    +0.000 A 
ATOM      9  C   UNL     1      46.161   1.455   8.391  0.00  0.00    +0.000 A 
ATOM     10  C   UNL     1      46.866   0.829   7.355  0.00  0.00    +0.000 A 
ATOM     11  C   UNL     1      47.153   1.534   6.190  0.00  0.00    +0.000 A 
ATOM     12  C   UNL     1      46.730   2.849   6.072  0.00  0.00    +0.000 A 
ATOM     13  F   UNL     1      47.007   3.536   4.956  0.00  0.00    +0.000 F 
ATOM     14  C   UNL     1      46.028   3.476   7.098  0.00  0.00    +0.000 A 
ENDBRANCH   6   8
ENDBRANCH   1   2
BRANCH   1  15
ATOM     15  O   UNL     1      46.340   6.942  11.356  0.00  0.00    +0.000 OA
BRANCH  15  21
ATOM     16  C   UNL     1      47.554   5.438  14.420  0.00  0.00    +0.000 A 
ATOM     17  C   UNL     1      48.396   6.407  14.963  0.00  0.00    +0.000 A 
ATOM     18  C   UNL     1      48.591   7.609  14.289  0.00  0.00    +0.000 A 
ATOM     19  C   UNL     1      47.943   7.871  13.070  0.00  0.00    +0.000 A 
ATOM     20 CL   UNL     1      48.316   9.419  12.396  0.00  0.00    +0.000 Cl
ATOM     21  C   UNL     1      47.079   6.909  12.514  0.00  0.00    +0.000 A 
ATOM     22  C   UNL     1      46.898   5.693  13.207  0.00  0.00    +0.000 A 
BRANCH  16  24
ATOM     23  N   UNL     1      46.776   4.263  16.408  0.00  0.00    +0.000 N 
ATOM     24  C   UNL     1      47.367   4.175  15.179  0.00  0.00    +0.000 C 
ATOM     25  O   UNL     1      47.688   3.093  14.708  0.00  0.00    +0.000 OA
ATOM     26  H   UNL     1      46.560   3.385  16.865  0.00  0.00    +0.000 HD
ATOM     27  H   UNL     1      46.282   5.086  16.719  0.00  0.00    +0.000 HD
ENDBRANCH  16  24
ENDBRANCH  15  21
ENDBRANCH   1  15
TORSDOF 5
ENDMDL
MODEL 3
REMARK VINA RESULT:    -7.649      2.026      2.374
REMARK INTER + INTRA:         -11.018
REMARK INTER:                 -10.124
REMARK INTRA:                  -0.894
REMARK UNBOUND:                -1.132
REMARK  Name = 
REMARK  5 active torsions:
REMARK  status: ('A' for Active; 'I' for Inactive)
REMARK    1  A    between atoms: C_2  and  C_4
REMARK    2  A    between atoms: C_9  and  O_10
REMARK    3  A    between atoms: O_10  and  C_11
REMARK    4  A    between atoms: C_11  and  C_12
REMARK    5  A    between atoms: C_16  and  C_17
REMARK                            x       y       z     vdW  Elec       q    Type
REMARK                         _______ _______ _______ _____ _____    ______ ____
ROOT
ATOM      1  C   UNL     1      44.583   5.857  12.907  0.00  0.00    +0.000 C 
ENDROOT
BRANCH   1   2
ATOM      2  C   UNL     1      44.357   4.616  12.079  0.00  0.00    +0.000 A 
ATOM      3  C   UNL     1      43.410   3.664  12.455  0.00  0.00    +0.000 A 
ATOM      4  C   UNL     1      43.191   2.588  11.614  0.00  0.00    +0.000 A 
ATOM      5  N   UNL     1      43.859   2.385  10.457  0.00  0.00    +0.000 NA
ATOM      6  C   UNL     1      44.813   3.285  10.108  0.00  0.00    +0.000 A 
ATOM      7  C   UNL     1      45.071   4.412  10.893  0.00  0.00    +0.000 A 
BRANCH   6   8
ATOM      8  C   UNL     1      45.560   2.984   8.868  0.00  0.00    +0.000 A 
ATOM      9  C   UNL     1      45.882   3.998   7.945  0.00  0.00    +0.000 A 
ATOM     10  C   UNL     1      46.564   3.719   6.753  0.00  0.00    +0.000 A 
ATOM     11  C   UNL     1      46.936   2.410   6.460  0.00  0.00    +0.000 A 
ATOM     12  C   UNL     1      46.627   1.401   7.358  0.00  0.00    +0.000 A 
ATOM     13  F   UNL     1      46.977   0.138   7.080  0.00  0.00    +0.000 F 
ATOM     14  C   UNL     1      45.950   1.672   8.544  0.00  0.00    +0.000 A 
ENDBRANCH   6   8
ENDBRANCH   1   2
BRANCH   1  15
ATOM     15  O   UNL     1      44.573   7.016  12.083  0.00  0.00    +0.000 OA
BRANCH  15  21
ATOM     16  C   UNL     1      48.030   7.971  12.589  0.00  0.00    +0.000 A 
ATOM     17  C   UNL     1      48.028   9.355  12.424  0.00  0.00    +0.000 A 
ATOM     18  C   UNL     1      46.840  10.012  12.116  0.00  0.00    +0.000 A 
ATOM     19  C   UNL     1      45.634   9.304  11.980  0.00  0.00    +0.000 A 
ATOM     20 CL   UNL     1      44.274  10.302  11.599  0.00  0.00    +0.000 Cl
ATOM     21  C   UNL     1      45.616   7.908  12.156  0.00  0.00    +0.000 A 
ATOM     22  C   UNL     1      46.830   7.257  12.461  0.00  0.00    +0.000 A 
BRANCH  16  24
ATOM     23  N   UNL     1      50.321   7.384  12.000  0.00  0.00    +0.000 N 
ATOM     24  C   UNL     1      49.319   7.313  12.927  0.00  0.00    +0.000 C 
ATOM     25  O   UNL     1      49.494   6.768  14.006  0.00  0.00    +0.000 OA
ATOM     26  H   UNL     1      51.223   7.025  12.287  0.00  0.00    +0.000 HD
ATOM     27  H   UNL     1      50.299   8.024  11.220  0.00  0.00    +0.000 HD
ENDBRANCH  16  24
ENDBRANCH  15  21
ENDBRANCH   1  15
TORSDOF 5
ENDMDL
MODEL 4
REMARK VINA RESULT:    -7.547      1.487      1.731
REMARK INTER + INTRA:         -10.885
REMARK INTER:                 -10.084
REMARK INTRA:                  -0.801
REMARK UNBOUND:                -1.132
REMARK  Name = 
REMARK  5 active torsions:
REMARK  status: ('A' for Active; 'I' for Inactive)
REMARK    1  A    between atoms: C_2  and  C_4
REMARK    2  A    between atoms: C_9  and  O_10
REMARK    3  A    between atoms: O_10  and  C_11
REMARK    4  A    between atoms: C_11  and  C_12
REMARK    5  A    between atoms: C_16  and  C_17
REMARK                            x       y       z     vdW  Elec       q    Type
REMARK                         _______ _______ _______ _____ _____    ______ ____
ROOT
ATOM      1  C   UNL     1      43.971   6.457  11.951  0.00  0.00    +0.000 C 
ENDROOT
BRANCH   1   2
ATOM      2  C   UNL     1      44.006   5.036  11.445  0.00  0.00    +0.000 A 
ATOM      3  C   UNL     1      43.254   4.035  12.059  0.00  0.00    +0.000 A 
ATOM      4  C   UNL     1      43.264   2.770  11.501  0.00  0.00    +0.000 A 
ATOM      5  N   UNL     1      43.981   2.433  10.406  0.00  0.00    +0.000 NA
ATOM      6  C   UNL     1      44.748   3.392   9.830  0.00  0.00    +0.000 A 
ATOM      7  C   UNL     1      44.768   4.700  10.320  0.00  0.00    +0.000 A 
BRANCH   6   8
ATOM      8  C   UNL     1      45.563   2.956   8.675  0.00  0.00    +0.000 A 
ATOM      9  C   UNL     1      45.959   3.868   7.675  0.00  0.00    +0.000 A 
ATOM     10  C   UNL     1      46.706   3.460   6.562  0.00  0.00    +0.000 A 
ATOM     11  C   UNL     1      47.071   2.124   6.426  0.00  0.00    +0.000 A 
ATOM     12  C   UNL     1      46.690   1.215   7.401  0.00  0.00    +0.000 A 
ATOM     13  F   UNL     1      47.032  -0.074   7.274  0.00  0.00    +0.000 F 
ATOM     14  C   UNL     1      45.947   1.614   8.510  0.00  0.00    +0.000 A 
ENDBRANCH   6   8
ENDBRANCH   1   2
BRANCH   1  15
ATOM     15  O   UNL     1      45.078   6.710  12.806  0.00  0.00    +0.000 OA
BRANCH  15  21
ATOM     16  C   UNL     1      45.902  10.085  11.779  0.00  0.00    +0.000 A 
ATOM     17  C   UNL     1      47.295  10.117  11.806  0.00  0.00    +0.000 A 
ATOM     18  C   UNL     1      48.006   8.985  12.193  0.00  0.00    +0.000 A 
ATOM     19  C   UNL     1      47.341   7.799  12.549  0.00  0.00    +0.000 A 
ATOM     20 CL   UNL     1      48.402   6.509  12.997  0.00  0.00    +0.000 Cl
ATOM     21  C   UNL     1      45.935   7.744  12.515  0.00  0.00    +0.000 A 
ATOM     22  C   UNL     1      45.231   8.904  12.126  0.00  0.00    +0.000 A 
BRANCH  16  24
ATOM     23  N   UNL     1      45.144  12.356  12.232  0.00  0.00    +0.000 N 
ATOM     24  C   UNL     1      45.186  11.314  11.349  0.00  0.00    +0.000 C 
ATOM     25  O   UNL     1      44.691  11.409  10.235  0.00  0.00    +0.000 OA
ATOM     26  H   UNL     1      44.747  13.221  11.886  0.00  0.00    +0.000 HD
ATOM     27  H   UNL     1      45.740  12.409  13.044  0.00  0.00    +0.000 HD
ENDBRANCH  16  24
ENDBRANCH  15  21
ENDBRANCH   1  15
TORSDOF 5
ENDMDL
MODEL 5
REMARK VINA RESULT:    -7.514      3.962      7.507
REMARK INTER + INTRA:         -10.843
REMARK INTER:                 -10.138
REMARK INTRA:                  -0.705
REMARK UNBOUND:                -1.132
REMARK  Name = 
REMARK  5 active torsions:
REMARK  status: ('A' for Active; 'I' for Inactive)
REMARK    1  A    between atoms: C_2  and  C_4
REMARK    2  A    between atoms: C_9  and  O_10
REMARK    3  A    between atoms: O_10  and  C_11
REMARK    4  A    between atoms: C_11  and  C_12
REMARK    5  A    between atoms: C_16  and  C_17
REMARK                            x       y       z     vdW  Elec       q    Type
REMARK                         _______ _______ _______ _____ _____    ______ ____
ROOT
ATOM      1  C   UNL     1      44.830   5.839  11.531  0.00  0.00    +0.000 C 
ENDROOT
BRANCH   1   2
ATOM      2  C   UNL     1      46.142   6.008  12.256  0.00  0.00    +0.000 A 
ATOM      3  C   UNL     1      47.195   6.717  11.680  0.00  0.00    +0.000 A 
ATOM      4  C   UNL     1      48.345   6.908  12.426  0.00  0.00    +0.000 A 
ATOM      5  N   UNL     1      48.523   6.424  13.675  0.00  0.00    +0.000 NA
ATOM      6  C   UNL     1      47.519   5.695  14.223  0.00  0.00    +0.000 A 
ATOM      7  C   UNL     1      46.318   5.484  13.542  0.00  0.00    +0.000 A 
BRANCH   6   8
ATOM      8  C   UNL     1      47.789   5.133  15.564  0.00  0.00    +0.000 A 
ATOM      9  C   UNL     1      48.753   5.708  16.417  0.00  0.00    +0.000 A 
ATOM     10  C   UNL     1      49.036   5.167  17.678  0.00  0.00    +0.000 A 
ATOM     11  C   UNL     1      48.359   4.030  18.110  0.00  0.00    +0.000 A 
ATOM     12  C   UNL     1      47.408   3.453  17.284  0.00  0.00    +0.000 A 
ATOM     13  F   UNL     1      46.757   2.356  17.690  0.00  0.00    +0.000 F 
ATOM     14  C   UNL     1      47.121   3.987  16.030  0.00  0.00    +0.000 A 
ENDBRANCH   6   8
ENDBRANCH   1   2
BRANCH   1  15
ATOM     15  O   UNL     1      45.050   5.618  10.143  0.00  0.00    +0.000 OA
BRANCH  15  21
ATOM     16  C   UNL     1      46.295   3.011   7.957  0.00  0.00    +0.000 A 
ATOM     17  C   UNL     1      45.609   1.869   8.366  0.00  0.00    +0.000 A 
ATOM     18  C   UNL     1      44.703   1.947   9.421  0.00  0.00    +0.000 A 
ATOM     19  C   UNL     1      44.457   3.166  10.076  0.00  0.00    +0.000 A 
ATOM     20 CL   UNL     1      43.300   3.052  11.356  0.00  0.00    +0.000 Cl
ATOM     21  C   UNL     1      45.131   4.332   9.668  0.00  0.00    +0.000 A 
ATOM     22  C   UNL     1      46.050   4.232   8.602  0.00  0.00    +0.000 A 
BRANCH  16  24
ATOM     23  N   UNL     1      47.020   3.670   5.726  0.00  0.00    +0.000 N 
ATOM     24  C   UNL     1      47.243   2.883   6.821  0.00  0.00    +0.000 C 
ATOM     25  O   UNL     1      48.211   2.138   6.877  0.00  0.00    +0.000 OA
ATOM     26  H   UNL     1      47.733   3.649   5.006  0.00  0.00    +0.000 HD
ATOM     27  H   UNL     1      46.393   4.460   5.739  0.00  0.00    +0.000 HD
ENDBRANCH  16  24
ENDBRANCH  15  21
ENDBRANCH   1  15
TORSDOF 5
ENDMDL
MODEL 6
REMARK VINA RESULT:    -7.320      3.585      7.103
REMARK INTER + INTRA:         -10.592
REMARK INTER:                  -9.842
REMARK INTRA:                  -0.750
REMARK UNBOUND:                -1.132
REMARK  Name = 
REMARK  5 active torsions:
REMARK  status: ('A' for Active; 'I' for Inactive)
REMARK    1  A    between atoms: C_2  and  C_4
REMARK    2  A    between atoms: C_9  and  O_10
REMARK    3  A    between atoms: O_10  and  C_11
REMARK    4  A    between atoms: C_11  and  C_12
REMARK    5  A    between atoms: C_16  and  C_17
REMARK                            x       y       z     vdW  Elec       q    Type
REMARK                         _______ _______ _______ _____ _____    ______ ____
ROOT
ATOM      1  C   UNL     1      44.571   5.629  10.995  0.00  0.00    +0.000 C 
ENDROOT
BRANCH   1   2
ATOM      2  C   UNL     1      45.837   5.827  11.790  0.00  0.00    +0.000 A 
ATOM      3  C   UNL     1      46.120   5.033  12.901  0.00  0.00    +0.000 A 
ATOM      4  C   UNL     1      47.333   5.207  13.541  0.00  0.00    +0.000 A 
ATOM      5  N   UNL     1      48.258   6.122  13.173  0.00  0.00    +0.000 NA
ATOM      6  C   UNL     1      47.969   6.927  12.119  0.00  0.00    +0.000 A 
ATOM      7  C   UNL     1      46.776   6.792  11.406  0.00  0.00    +0.000 A 
BRANCH   6   8
ATOM      8  C   UNL     1      48.984   7.953  11.797  0.00  0.00    +0.000 A 
ATOM      9  C   UNL     1      48.643   9.319  11.723  0.00  0.00    +0.000 A 
ATOM     10  C   UNL     1      49.590  10.296  11.390  0.00  0.00    +0.000 A 
ATOM     11  C   UNL     1      50.903   9.923  11.119  0.00  0.00    +0.000 A 
ATOM     12  C   UNL     1      51.254   8.584  11.188  0.00  0.00    +0.000 A 
ATOM     13  F   UNL     1      52.515   8.216  10.923  0.00  0.00    +0.000 F 
ATOM     14  C   UNL     1      50.318   7.608  11.519  0.00  0.00    +0.000 A 
ENDBRANCH   6   8
ENDBRANCH   1   2
BRANCH   1  15
ATOM     15  O   UNL     1      44.872   5.375   9.629  0.00  0.00    +0.000 OA
BRANCH  15  21
ATOM     16  C   UNL     1      46.344   2.841   7.499  0.00  0.00    +0.000 A 
ATOM     17  C   UNL     1      45.861   1.640   8.017  0.00  0.00    +0.000 A 
ATOM     18  C   UNL     1      45.024   1.654   9.129  0.00  0.00    +0.000 A 
ATOM     19  C   UNL     1      44.644   2.864   9.735  0.00  0.00    +0.000 A 
ATOM     20 CL   UNL     1      43.600   2.666  11.100  0.00  0.00    +0.000 Cl
ATOM     21  C   UNL     1      45.111   4.086   9.218  0.00  0.00    +0.000 A 
ATOM     22  C   UNL     1      45.964   4.052   8.094  0.00  0.00    +0.000 A 
BRANCH  16  24
ATOM     23  N   UNL     1      48.566   2.620   6.524  0.00  0.00    +0.000 N 
ATOM     24  C   UNL     1      47.226   2.778   6.306  0.00  0.00    +0.000 C 
ATOM     25  O   UNL     1      46.772   2.822   5.172  0.00  0.00    +0.000 OA
ATOM     26  H   UNL     1      49.140   2.473   5.702  0.00  0.00    +0.000 HD
ATOM     27  H   UNL     1      48.945   2.336   7.415  0.00  0.00    +0.000 HD
ENDBRANCH  16  24
ENDBRANCH  15  21
ENDBRANCH   1  15
TORSDOF 5
ENDMDL
MODEL 7
REMARK VINA RESULT:    -6.910      4.073      5.707
REMARK INTER + INTRA:         -10.062
REMARK INTER:                  -9.312
REMARK INTRA:                  -0.750
REMARK UNBOUND:                -1.132
REMARK  Name = 
REMARK  5 active torsions:
REMARK  status: ('A' for Active; 'I' for Inactive)
REMARK    1  A    between atoms: C_2  and  C_4
REMARK    2  A    between atoms: C_9  and  O_10
REMARK    3  A    between atoms: O_10  and  C_11
REMARK    4  A    between atoms: C_11  and  C_12
REMARK    5  A    between atoms: C_16  and  C_17
REMARK                            x       y       z     vdW  Elec       q    Type
REMARK                         _______ _______ _______ _____ _____    ______ ____
ROOT
ATOM      1  C   UNL     1      48.875   7.714  13.672  0.00  0.00    +0.000 C 
ENDROOT
BRANCH   1   2
ATOM      2  C   UNL     1      47.503   7.646  13.047  0.00  0.00    +0.000 A 
ATOM      3  C   UNL     1      46.585   8.681  13.215  0.00  0.00    +0.000 A 
ATOM      4  C   UNL     1      45.374   8.599  12.552  0.00  0.00    +0.000 A 
ATOM      5  N   UNL     1      45.011   7.559  11.768  0.00  0.00    +0.000 NA
ATOM      6  C   UNL     1      45.884   6.528  11.636  0.00  0.00    +0.000 A 
ATOM      7  C   UNL     1      47.137   6.553  12.253  0.00  0.00    +0.000 A 
BRANCH   6   8
ATOM      8  C   UNL     1      45.414   5.387  10.822  0.00  0.00    +0.000 A 
ATOM      9  C   UNL     1      45.723   5.292   9.450  0.00  0.00    +0.000 A 
ATOM     10  C   UNL     1      45.259   4.230   8.663  0.00  0.00    +0.000 A 
ATOM     11  C   UNL     1      44.468   3.239   9.236  0.00  0.00    +0.000 A 
ATOM     12  C   UNL     1      44.155   3.318  10.584  0.00  0.00    +0.000 A 
ATOM     13  F   UNL     1      43.389   2.371  11.142  0.00  0.00    +0.000 F 
ATOM     14  C   UNL     1      44.614   4.370  11.372  0.00  0.00    +0.000 A 
ENDBRANCH   6   8
ENDBRANCH   1   2
BRANCH   1  15
ATOM     15  O   UNL     1      49.138   6.540  14.430  0.00  0.00    +0.000 OA
BRANCH  15  21
ATOM     16  C   UNL     1      48.006   4.963  17.489  0.00  0.00    +0.000 A 
ATOM     17  C   UNL     1      48.038   5.989  18.431  0.00  0.00    +0.000 A 
ATOM     18  C   UNL     1      48.465   7.260  18.056  0.00  0.00    +0.000 A 
ATOM     19  C   UNL     1      48.856   7.532  16.733  0.00  0.00    +0.000 A 
ATOM     20 CL   UNL     1      49.350   9.168  16.472  0.00  0.00    +0.000 Cl
ATOM     21  C   UNL     1      48.818   6.511  15.766  0.00  0.00    +0.000 A 
ATOM     22  C   UNL     1      48.388   5.228  16.166  0.00  0.00    +0.000 A 
BRANCH  16  24
ATOM     23  N   UNL     1      48.148   3.073  19.021  0.00  0.00    +0.000 N 
ATOM     24  C   UNL     1      47.534   3.626  17.932  0.00  0.00    +0.000 C 
ATOM     25  O   UNL     1      46.604   3.060  17.375  0.00  0.00    +0.000 OA
ATOM     26  H   UNL     1      47.745   2.214  19.374  0.00  0.00    +0.000 HD
ATOM     27  H   UNL     1      48.735   3.605  19.645  0.00  0.00    +0.000 HD
ENDBRANCH  16  24
ENDBRANCH  15  21
ENDBRANCH   1  15
TORSDOF 5
ENDMDL
MODEL 8
REMARK VINA RESULT:    -6.728      4.575      6.494
REMARK INTER + INTRA:          -9.828
REMARK INTER:                  -8.927
REMARK INTRA:                  -0.901
REMARK UNBOUND:                -1.132
REMARK  Name = 
REMARK  5 active torsions:
REMARK  status: ('A' for Active; 'I' for Inactive)
REMARK    1  A    between atoms: C_2  and  C_4
REMARK    2  A    between atoms: C_9  and  O_10
REMARK    3  A    between atoms: O_10  and  C_11
REMARK    4  A    between atoms: C_11  and  C_12
REMARK    5  A    between atoms: C_16  and  C_17
REMARK                            x       y       z     vdW  Elec       q    Type
REMARK                         _______ _______ _______ _____ _____    ______ ____
ROOT
ATOM      1  C   UNL     1      49.188   6.853  14.987  0.00  0.00    +0.000 C 
ENDROOT
BRANCH   1   2
ATOM      2  C   UNL     1      48.012   7.127  14.083  0.00  0.00    +0.000 A 
ATOM      3  C   UNL     1      47.628   8.433  13.780  0.00  0.00    +0.000 A 
ATOM      4  C   UNL     1      46.592   8.621  12.882  0.00  0.00    +0.000 A 
ATOM      5  N   UNL     1      45.908   7.614  12.296  0.00  0.00    +0.000 NA
ATOM      6  C   UNL     1      46.248   6.342  12.621  0.00  0.00    +0.000 A 
ATOM      7  C   UNL     1      47.301   6.072  13.499  0.00  0.00    +0.000 A 
BRANCH   6   8
ATOM      8  C   UNL     1      45.427   5.278  12.005  0.00  0.00    +0.000 A 
ATOM      9  C   UNL     1      44.996   4.162  12.751  0.00  0.00    +0.000 A 
ATOM     10  C   UNL     1      44.242   3.135  12.169  0.00  0.00    +0.000 A 
ATOM     11  C   UNL     1      43.906   3.202  10.820  0.00  0.00    +0.000 A 
ATOM     12  C   UNL     1      44.322   4.293  10.072  0.00  0.00    +0.000 A 
ATOM     13  F   UNL     1      44.007   4.363   8.772  0.00  0.00    +0.000 F 
ATOM     14  C   UNL     1      45.071   5.318  10.645  0.00  0.00    +0.000 A 
ENDBRANCH   6   8
ENDBRANCH   1   2
BRANCH   1  15
ATOM     15  O   UNL     1      48.871   7.179  16.334  0.00  0.00    +0.000 OA
BRANCH  15  21
ATOM     16  C   UNL     1      49.216   3.788  17.559  0.00  0.00    +0.000 A 
ATOM     17  C   UNL     1      48.625   3.821  18.821  0.00  0.00    +0.000 A 
ATOM     18  C   UNL     1      48.098   5.015  19.306  0.00  0.00    +0.000 A 
ATOM     19  C   UNL     1      48.141   6.191  18.538  0.00  0.00    +0.000 A 
ATOM     20 CL   UNL     1      47.433   7.563  19.318  0.00  0.00    +0.000 Cl
ATOM     21  C   UNL     1      48.723   6.173  17.257  0.00  0.00    +0.000 A 
ATOM     22  C   UNL     1      49.258   4.956  16.785  0.00  0.00    +0.000 A 
BRANCH  16  24
ATOM     23  N   UNL     1      50.771   1.927  17.800  0.00  0.00    +0.000 N 
ATOM     24  C   UNL     1      49.756   2.490  17.078  0.00  0.00    +0.000 C 
ATOM     25  O   UNL     1      49.285   1.924  16.103  0.00  0.00    +0.000 OA
ATOM     26  H   UNL     1      51.054   0.995  17.523  0.00  0.00    +0.000 HD
ATOM     27  H   UNL     1      51.013   2.231  18.731  0.00  0.00    +0.000 HD
ENDBRANCH  16  24
ENDBRANCH  15  21
ENDBRANCH   1  15
TORSDOF 5
ENDMDL
MODEL 9
REMARK VINA RESULT:    -6.683      5.739      9.198
REMARK INTER + INTRA:          -9.769
REMARK INTER:                  -8.913
REMARK INTRA:                  -0.855
REMARK UNBOUND:                -1.132
REMARK  Name = 
REMARK  5 active torsions:
REMARK  status: ('A' for Active; 'I' for Inactive)
REMARK    1  A    between atoms: C_2  and  C_4
REMARK    2  A    between atoms: C_9  and  O_10
REMARK    3  A    between atoms: O_10  and  C_11
REMARK    4  A    between atoms: C_11  and  C_12
REMARK    5  A    between atoms: C_16  and  C_17
REMARK                            x       y       z     vdW  Elec       q    Type
REMARK                         _______ _______ _______ _____ _____    ______ ____
ROOT
ATOM      1  C   UNL     1      47.356   3.561  14.879  0.00  0.00    +0.000 C 
ENDROOT
BRANCH   1   2
ATOM      2  C   UNL     1      47.779   3.735  16.316  0.00  0.00    +0.000 A 
ATOM      3  C   UNL     1      48.394   2.698  17.016  0.00  0.00    +0.000 A 
ATOM      4  C   UNL     1      48.832   2.943  18.304  0.00  0.00    +0.000 A 
ATOM      5  N   UNL     1      48.679   4.124  18.942  0.00  0.00    +0.000 NA
ATOM      6  C   UNL     1      48.042   5.124  18.282  0.00  0.00    +0.000 A 
ATOM      7  C   UNL     1      47.596   4.960  16.969  0.00  0.00    +0.000 A 
BRANCH   6   8
ATOM      8  C   UNL     1      47.841   6.375  19.046  0.00  0.00    +0.000 A 
ATOM      9  C   UNL     1      47.660   6.355  20.444  0.00  0.00    +0.000 A 
ATOM     10  C   UNL     1      47.439   7.531  21.173  0.00  0.00    +0.000 A 
ATOM     11  C   UNL     1      47.393   8.756  20.513  0.00  0.00    +0.000 A 
ATOM     12  C   UNL     1      47.570   8.791  19.139  0.00  0.00    +0.000 A 
ATOM     13  F   UNL     1      47.520   9.965  18.496  0.00  0.00    +0.000 F 
ATOM     14  C   UNL     1      47.789   7.626  18.409  0.00  0.00    +0.000 A 
ENDBRANCH   6   8
ENDBRANCH   1   2
BRANCH   1  15
ATOM     15  O   UNL     1      46.232   4.380  14.586  0.00  0.00    +0.000 OA
BRANCH  15  21
ATOM     16  C   UNL     1      45.039   4.708  11.181  0.00  0.00    +0.000 A 
ATOM     17  C   UNL     1      45.663   5.862  10.712  0.00  0.00    +0.000 A 
ATOM     18  C   UNL     1      46.507   6.582  11.553  0.00  0.00    +0.000 A 
ATOM     19  C   UNL     1      46.751   6.158  12.871  0.00  0.00    +0.000 A 
ATOM     20 CL   UNL     1      47.827   7.187  13.750  0.00  0.00    +0.000 Cl
ATOM     21  C   UNL     1      46.139   4.987  13.356  0.00  0.00    +0.000 A 
ATOM     22  C   UNL     1      45.282   4.274  12.492  0.00  0.00    +0.000 A 
BRANCH  16  24
ATOM     23  N   UNL     1      44.050   4.445   8.969  0.00  0.00    +0.000 N 
ATOM     24  C   UNL     1      44.155   3.966  10.245  0.00  0.00    +0.000 C 
ATOM     25  O   UNL     1      43.579   2.943  10.585  0.00  0.00    +0.000 OA
ATOM     26  H   UNL     1      43.531   3.871   8.316  0.00  0.00    +0.000 HD
ATOM     27  H   UNL     1      44.689   5.125   8.587  0.00  0.00    +0.000 HD
ENDBRANCH  16  24
ENDBRANCH  15  21
ENDBRANCH   1  15
TORSDOF 5
ENDMDL
