MODEL 1
REMARK VINA RESULT:    -7.392      0.000      0.000
REMARK INTER + INTRA:          -8.550
REMARK INTER:                  -8.257
REMARK INTRA:                  -0.293
REMARK UNBOUND:                -0.293
REMARK  Name = 
REMARK  2 active torsions:
REMARK  status: ('A' for Active; 'I' for Inactive)
REMARK    1  A    between atoms: N_8  and  C_9
REMARK    2  A    between atoms: C_9  and  C_10
REMARK                            x       y       z     vdW  Elec       q    Type
REMARK                         _______ _______ _______ _____ _____    ______ ____
ROOT
ATOM      1  C   UNL     1      44.297   4.270  10.198  0.00  0.00    +0.000 A 
ATOM      2  C   UNL     1      43.615   3.157  10.651  0.00  0.00    +0.000 A 
ATOM      3  N   UNL     1      43.836   1.931  10.153  0.00  0.00    +0.000 NA
ATOM      4  N   UNL     1      44.779   1.762   9.161  0.00  0.00    +0.000 NA
ATOM      5  C   UNL     1      45.485   2.801   8.665  0.00  0.00    +0.000 A 
ATOM      6  N   UNL     1      46.390   2.590   7.649  0.00  0.00    +0.000 N 
ATOM      7  C   UNL     1      46.830   3.639   6.731  0.00  0.00    +0.000 C 
ATOM      8  C   UNL     1      46.976   3.076   5.298  0.00  0.00    +0.000 C 
ATOM      9  N   UNL     1      47.805   1.858   5.213  0.00  0.00    +0.000 NA
ATOM     10  C   UNL     1      47.237   0.837   6.122  0.00  0.00    +0.000 C 
ATOM     11  C   UNL     1      47.116   1.316   7.586  0.00  0.00    +0.000 C 
ATOM     12  C   UNL     1      45.252   4.067   9.193  0.00  0.00    +0.000 A 
ATOM     13  H   UNL     1      48.743   2.086   5.541  0.00  0.00    +0.000 HD
ENDROOT
BRANCH   1  14
ATOM     14  C   UNL     1      44.066   5.634  10.790  0.00  0.00    +0.000 C 
BRANCH  14  22
ATOM     15 CL   UNL     1      49.860   7.858  12.260  0.00  0.00    +0.000 Cl
ATOM     16  C   UNL     1      48.408   6.956  12.439  0.00  0.00    +0.000 A 
ATOM     17  C   UNL     1      48.232   6.137  13.540  0.00  0.00    +0.000 A 
ATOM     18  C   UNL     1      47.047   5.443  13.602  0.00  0.00    +0.000 A 
ATOM     19 CL   UNL     1      46.718   4.400  14.926  0.00  0.00    +0.000 Cl
ATOM     20  N   UNL     1      46.055   5.511  12.681  0.00  0.00    +0.000 NA
ATOM     21  C   UNL     1      46.240   6.325  11.625  0.00  0.00    +0.000 A 
ATOM     22  N   UNL     1      45.274   6.430  10.615  0.00  0.00    +0.000 N 
ATOM     23  C   UNL     1      47.412   7.056  11.471  0.00  0.00    +0.000 A 
ATOM     24  H   UNL     1      45.062   7.410  10.448  0.00  0.00    +0.000 HD
ENDBRANCH  14  22
ENDBRANCH   1  14
TORSDOF 2
ENDMDL
MODEL 2
REMARK VINA RESULT:    -7.093      3.949      6.490
REMARK INTER + INTRA:          -8.216
REMARK INTER:                  -7.756
REMARK INTRA:                  -0.460
REMARK UNBOUND:                -0.293
REMARK  Name = 
REMARK  2 active torsions:
REMARK  status: ('A' for Active; 'I' for Inactive)
REMARK    1  A    between atoms: N_8  and  C_9
REMARK    2  A    between atoms: C_9  and  C_10
REMARK                            x       y       z     vdW  Elec       q    Type
REMARK                         _______ _______ _______ _____ _____    ______ ____
ROOT
ATOM      1  C   UNL     1      47.679   7.075  13.980  0.00  0.00    +0.000 A 
ATOM      2  C   UNL     1      47.269   8.344  13.617  0.00  0.00    +0.000 A 
ATOM      3  N   UNL     1      46.105   8.567  12.990  0.00  0.00    +0.000 NA
ATOM      4  N   UNL     1      45.276   7.504  12.699  0.00  0.00    +0.000 NA
ATOM      5  C   UNL     1      45.608   6.235  13.020  0.00  0.00    +0.000 A 
ATOM      6  N   UNL     1      44.765   5.200  12.678  0.00  0.00    +0.000 N 
ATOM      7  C   UNL     1      45.209   3.816  12.527  0.00  0.00    +0.000 C 
ATOM      8  C   UNL     1      44.491   3.146  11.331  0.00  0.00    +0.000 C 
ATOM      9  N   UNL     1      43.020   3.274  11.366  0.00  0.00    +0.000 NA
ATOM     10  C   UNL     1      42.675   4.711  11.447  0.00  0.00    +0.000 C 
ATOM     11  C   UNL     1      43.316   5.431  12.655  0.00  0.00    +0.000 C 
ATOM     12  C   UNL     1      46.815   6.015  13.676  0.00  0.00    +0.000 A 
ATOM     13  H   UNL     1      42.681   2.819  12.213  0.00  0.00    +0.000 HD
ENDROOT
BRANCH   1  14
ATOM     14  C   UNL     1      48.971   6.842  14.716  0.00  0.00    +0.000 C 
BRANCH  14  22
ATOM     15 CL   UNL     1      48.219   5.194  20.831  0.00  0.00    +0.000 Cl
ATOM     16  C   UNL     1      48.460   4.982  19.142  0.00  0.00    +0.000 A 
ATOM     17  C   UNL     1      48.619   3.710  18.620  0.00  0.00    +0.000 A 
ATOM     18  C   UNL     1      48.816   3.629  17.262  0.00  0.00    +0.000 A 
ATOM     19 CL   UNL     1      49.020   2.102  16.503  0.00  0.00    +0.000 Cl
ATOM     20  N   UNL     1      48.858   4.686  16.415  0.00  0.00    +0.000 NA
ATOM     21  C   UNL     1      48.687   5.913  16.942  0.00  0.00    +0.000 A 
ATOM     22  N   UNL     1      48.744   7.060  16.138  0.00  0.00    +0.000 N 
ATOM     23  C   UNL     1      48.494   6.094  18.307  0.00  0.00    +0.000 A 
ATOM     24  H   UNL     1      47.923   7.635  16.307  0.00  0.00    +0.000 HD
ENDBRANCH  14  22
ENDBRANCH   1  14
TORSDOF 2
ENDMDL
MODEL 3
REMARK VINA RESULT:    -6.647      3.417      7.342
REMARK INTER + INTRA:          -7.718
REMARK INTER:                  -7.474
REMARK INTRA:                  -0.244
REMARK UNBOUND:                -0.293
REMARK  Name = 
REMARK  2 active torsions:
REMARK  status: ('A' for Active; 'I' for Inactive)
REMARK    1  A    between atoms: N_8  and  C_9
REMARK    2  A    between atoms: C_9  and  C_10
REMARK                            x       y       z     vdW  Elec       q    Type
REMARK                         _______ _______ _______ _____ _____    ______ ____
ROOT
ATOM      1  C   UNL     1      46.425   6.245  13.275  0.00  0.00    +0.000 A 
ATOM      2  C   UNL     1      46.353   5.047  13.960  0.00  0.00    +0.000 A 
ATOM      3  N   UNL     1      47.300   4.664  14.831  0.00  0.00    +0.000 NA
ATOM      4  N   UNL     1      48.380   5.489  15.066  0.00  0.00    +0.000 NA
ATOM      5  C   UNL     1      48.520   6.674  14.434  0.00  0.00    +0.000 A 
ATOM      6  N   UNL     1      49.634   7.448  14.673  0.00  0.00    +0.000 N 
ATOM      7  C   UNL     1      50.130   8.456  13.739  0.00  0.00    +0.000 C 
ATOM      8  C   UNL     1      51.676   8.447  13.705  0.00  0.00    +0.000 C 
ATOM      9  N   UNL     1      52.307   8.543  15.036  0.00  0.00    +0.000 NA
ATOM     10  C   UNL     1      51.794   7.440  15.880  0.00  0.00    +0.000 C 
ATOM     11  C   UNL     1      50.253   7.425  16.003  0.00  0.00    +0.000 C 
ATOM     12  C   UNL     1      47.531   7.064  13.537  0.00  0.00    +0.000 A 
ATOM     13  H   UNL     1      52.022   9.425  15.461  0.00  0.00    +0.000 HD
ENDROOT
BRANCH   1  14
ATOM     14  C   UNL     1      45.339   6.680  12.328  0.00  0.00    +0.000 C 
BRANCH  14  22
ATOM     15 CL   UNL     1      45.757   3.341   6.910  0.00  0.00    +0.000 Cl
ATOM     16  C   UNL     1      45.295   3.705   8.525  0.00  0.00    +0.000 A 
ATOM     17  C   UNL     1      44.504   2.818   9.236  0.00  0.00    +0.000 A 
ATOM     18  C   UNL     1      44.173   3.189  10.517  0.00  0.00    +0.000 A 
ATOM     19 CL   UNL     1      43.200   2.165  11.494  0.00  0.00    +0.000 Cl
ATOM     20  N   UNL     1      44.563   4.336  11.123  0.00  0.00    +0.000 NA
ATOM     21  C   UNL     1      45.344   5.178  10.420  0.00  0.00    +0.000 A 
ATOM     22  N   UNL     1      45.768   6.398  10.965  0.00  0.00    +0.000 N 
ATOM     23  C   UNL     1      45.720   4.893   9.112  0.00  0.00    +0.000 A 
ATOM     24  H   UNL     1      46.775   6.486  10.858  0.00  0.00    +0.000 HD
ENDBRANCH  14  22
ENDBRANCH   1  14
TORSDOF 2
ENDMDL
MODEL 4
REMARK VINA RESULT:    -6.435      3.703      5.734
REMARK INTER + INTRA:          -7.481
REMARK INTER:                  -7.183
REMARK INTRA:                  -0.298
REMARK UNBOUND:                -0.293
REMARK  Name = 
REMARK  2 active torsions:
REMARK  status: ('A' for Active; 'I' for Inactive)
REMARK    1  A    between atoms: N_8  and  C_9
REMARK    2  A    between atoms: C_9  and  C_10
REMARK                            x       y       z     vdW  Elec       q    Type
REMARK                         _______ _______ _______ _____ _____    ______ ____
ROOT
ATOM      1  C   UNL     1      46.942   4.891  14.306  0.00  0.00    +0.000 A 
ATOM      2  C   UNL     1      47.498   6.107  13.960  0.00  0.00    +0.000 A 
ATOM      3  N   UNL     1      47.280   6.679  12.765  0.00  0.00    +0.000 NA
ATOM      4  N   UNL     1      46.468   6.046  11.848  0.00  0.00    +0.000 NA
ATOM      5  C   UNL     1      45.890   4.854  12.113  0.00  0.00    +0.000 A 
ATOM      6  N   UNL     1      45.116   4.241  11.153  0.00  0.00    +0.000 N 
ATOM      7  C   UNL     1      44.857   2.803  11.124  0.00  0.00    +0.000 C 
ATOM      8  C   UNL     1      44.871   2.281   9.668  0.00  0.00    +0.000 C 
ATOM      9  N   UNL     1      43.996   3.037   8.750  0.00  0.00    +0.000 NA
ATOM     10  C   UNL     1      44.385   4.465   8.800  0.00  0.00    +0.000 C 
ATOM     11  C   UNL     1      44.338   5.067  10.222  0.00  0.00    +0.000 C 
ATOM     12  C   UNL     1      46.118   4.273  13.356  0.00  0.00    +0.000 A 
ATOM     13  H   UNL     1      43.038   2.960   9.087  0.00  0.00    +0.000 HD
ENDROOT
BRANCH   1  14
ATOM     14  C   UNL     1      47.165   4.278  15.662  0.00  0.00    +0.000 C 
BRANCH  14  22
ATOM     15 CL   UNL     1      51.597   6.588  19.624  0.00  0.00    +0.000 Cl
ATOM     16  C   UNL     1      50.800   5.444  18.619  0.00  0.00    +0.000 A 
ATOM     17  C   UNL     1      51.338   4.180  18.447  0.00  0.00    +0.000 A 
ATOM     18  C   UNL     1      50.643   3.329  17.620  0.00  0.00    +0.000 A 
ATOM     19 CL   UNL     1      51.213   1.735  17.336  0.00  0.00    +0.000 Cl
ATOM     20  N   UNL     1      49.489   3.635  16.979  0.00  0.00    +0.000 NA
ATOM     21  C   UNL     1      48.976   4.864  17.171  0.00  0.00    +0.000 A 
ATOM     22  N   UNL     1      47.800   5.267  16.523  0.00  0.00    +0.000 N 
ATOM     23  C   UNL     1      49.615   5.796  17.980  0.00  0.00    +0.000 A 
ATOM     24  H   UNL     1      47.150   5.650  17.205  0.00  0.00    +0.000 HD
ENDBRANCH  14  22
ENDBRANCH   1  14
TORSDOF 2
ENDMDL
MODEL 5
REMARK VINA RESULT:    -6.320      4.344      6.159
REMARK INTER + INTRA:          -7.353
REMARK INTER:                  -6.949
REMARK INTRA:                  -0.404
REMARK UNBOUND:                -0.293
REMARK  Name = 
REMARK  2 active torsions:
REMARK  status: ('A' for Active; 'I' for Inactive)
REMARK    1  A    between atoms: N_8  and  C_9
REMARK    2  A    between atoms: C_9  and  C_10
REMARK                            x       y       z     vdW  Elec       q    Type
REMARK                         _______ _______ _______ _____ _____    ______ ____
ROOT
ATOM      1  C   UNL     1      47.767   6.739  14.315  0.00  0.00    +0.000 A 
ATOM      2  C   UNL     1      48.204   5.795  15.224  0.00  0.00    +0.000 A 
ATOM      3  N   UNL     1      47.685   4.559  15.277  0.00  0.00    +0.000 NA
ATOM      4  N   UNL     1      46.688   4.203  14.393  0.00  0.00    +0.000 NA
ATOM      5  C   UNL     1      46.207   5.071  13.477  0.00  0.00    +0.000 A 
ATOM      6  N   UNL     1      45.185   4.684  12.639  0.00  0.00    +0.000 N 
ATOM      7  C   UNL     1      44.282   5.626  11.981  0.00  0.00    +0.000 C 
ATOM      8  C   UNL     1      42.840   5.068  11.961  0.00  0.00    +0.000 C 
ATOM      9  N   UNL     1      42.732   3.699  11.418  0.00  0.00    +0.000 NA
ATOM     10  C   UNL     1      43.627   2.813  12.196  0.00  0.00    +0.000 C 
ATOM     11  C   UNL     1      45.099   3.283  12.210  0.00  0.00    +0.000 C 
ATOM     12  C   UNL     1      46.755   6.348  13.428  0.00  0.00    +0.000 A 
ATOM     13  H   UNL     1      43.062   3.712  10.454  0.00  0.00    +0.000 HD
ENDROOT
BRANCH   1  14
ATOM     14  C   UNL     1      48.382   8.111  14.243  0.00  0.00    +0.000 C 
BRANCH  14  22
ATOM     15 CL   UNL     1      46.237  12.567  10.215  0.00  0.00    +0.000 Cl
ATOM     16  C   UNL     1      47.357  11.488  10.947  0.00  0.00    +0.000 A 
ATOM     17  C   UNL     1      48.655  11.410  10.472  0.00  0.00    +0.000 A 
ATOM     18  C   UNL     1      49.484  10.516  11.108  0.00  0.00    +0.000 A 
ATOM     19 CL   UNL     1      51.117  10.337  10.607  0.00  0.00    +0.000 Cl
ATOM     20  N   UNL     1      49.127   9.727  12.150  0.00  0.00    +0.000 NA
ATOM     21  C   UNL     1      47.865   9.829  12.605  0.00  0.00    +0.000 A 
ATOM     22  N   UNL     1      47.410   9.028  13.662  0.00  0.00    +0.000 N 
ATOM     23  C   UNL     1      46.952  10.696  12.018  0.00  0.00    +0.000 A 
ATOM     24  H   UNL     1      46.971   9.613  14.368  0.00  0.00    +0.000 HD
ENDBRANCH  14  22
ENDBRANCH   1  14
TORSDOF 2
ENDMDL
MODEL 6
REMARK VINA RESULT:    -6.239      4.203      6.232
REMARK INTER + INTRA:          -7.261
REMARK INTER:                  -6.927
REMARK INTRA:                  -0.334
REMARK UNBOUND:                -0.293
REMARK  Name = 
REMARK  2 active torsions:
REMARK  status: ('A' for Active; 'I' for Inactive)
REMARK    1  A    between atoms: N_8  and  C_9
REMARK    2  A    between atoms: C_9  and  C_10
REMARK                            x       y       z     vdW  Elec       q    Type
REMARK                         _______ _______ _______ _____ _____    ______ ____
ROOT
ATOM      1  C   UNL     1      48.181   7.272  12.520  0.00  0.00    +0.000 A 
ATOM      2  C   UNL     1      48.577   6.818  13.763  0.00  0.00    +0.000 A 
ATOM      3  N   UNL     1      47.962   5.797  14.381  0.00  0.00    +0.000 NA
ATOM      4  N   UNL     1      46.904   5.167  13.760  0.00  0.00    +0.000 NA
ATOM      5  C   UNL     1      46.458   5.555  12.546  0.00  0.00    +0.000 A 
ATOM      6  N   UNL     1      45.375   4.919  11.980  0.00  0.00    +0.000 N 
ATOM      7  C   UNL     1      44.526   5.529  10.959  0.00  0.00    +0.000 C 
ATOM      8  C   UNL     1      43.044   5.159  11.197  0.00  0.00    +0.000 C 
ATOM      9  N   UNL     1      42.804   3.710  11.348  0.00  0.00    +0.000 NA
ATOM     10  C   UNL     1      43.654   3.205  12.450  0.00  0.00    +0.000 C 
ATOM     11  C   UNL     1      45.159   3.493  12.247  0.00  0.00    +0.000 C 
ATOM     12  C   UNL     1      47.106   6.610  11.912  0.00  0.00    +0.000 A 
ATOM     13  H   UNL     1      43.094   3.247  10.488  0.00  0.00    +0.000 HD
ENDROOT
BRANCH   1  14
ATOM     14  C   UNL     1      48.902   8.394  11.822  0.00  0.00    +0.000 C 
BRANCH  14  22
ATOM     15 CL   UNL     1      55.191   8.721  12.830  0.00  0.00    +0.000 Cl
ATOM     16  C   UNL     1      53.727   8.359  12.006  0.00  0.00    +0.000 A 
ATOM     17  C   UNL     1      53.765   7.776  10.751  0.00  0.00    +0.000 A 
ATOM     18  C   UNL     1      52.550   7.528  10.157  0.00  0.00    +0.000 A 
ATOM     19 CL   UNL     1      52.474   6.803   8.602  0.00  0.00    +0.000 Cl
ATOM     20  N   UNL     1      51.342   7.803  10.707  0.00  0.00    +0.000 NA
ATOM     21  C   UNL     1      51.328   8.356  11.934  0.00  0.00    +0.000 A 
ATOM     22  N   UNL     1      50.121   8.696  12.561  0.00  0.00    +0.000 N 
ATOM     23  C   UNL     1      52.507   8.655  12.607  0.00  0.00    +0.000 A 
ATOM     24  H   UNL     1      50.103   8.306  13.499  0.00  0.00    +0.000 HD
ENDBRANCH  14  22
ENDBRANCH   1  14
TORSDOF 2
ENDMDL
MODEL 7
REMARK VINA RESULT:    -6.125      4.311      6.228
REMARK INTER + INTRA:          -7.134
REMARK INTER:                  -6.885
REMARK INTRA:                  -0.250
REMARK UNBOUND:                -0.293
REMARK  Name = 
REMARK  2 active torsions:
REMARK  status: ('A' for Active; 'I' for Inactive)
REMARK    1  A    between atoms: N_8  and  C_9
REMARK    2  A    between atoms: C_9  and  C_10
REMARK                            x       y       z     vdW  Elec       q    Type
REMARK                         _______ _______ _______ _____ _____    ______ ____
ROOT
ATOM      1  C   UNL     1      48.195   6.661  13.515  0.00  0.00    +0.000 A 
ATOM      2  C   UNL     1      48.371   6.053  14.743  0.00  0.00    +0.000 A 
ATOM      3  N   UNL     1      47.615   5.018  15.143  0.00  0.00    +0.000 NA
ATOM      4  N   UNL     1      46.634   4.530  14.306  0.00  0.00    +0.000 NA
ATOM      5  C   UNL     1      46.402   5.073  13.091  0.00  0.00    +0.000 A 
ATOM      6  N   UNL     1      45.387   4.576  12.304  0.00  0.00    +0.000 N 
ATOM      7  C   UNL     1      44.739   5.346  11.244  0.00  0.00    +0.000 C 
ATOM      8  C   UNL     1      43.219   5.055  11.218  0.00  0.00    +0.000 C 
ATOM      9  N   UNL     1      42.883   3.619  11.167  0.00  0.00    +0.000 NA
ATOM     10  C   UNL     1      43.527   2.944  12.317  0.00  0.00    +0.000 C 
ATOM     11  C   UNL     1      45.058   3.147  12.372  0.00  0.00    +0.000 C 
ATOM     12  C   UNL     1      47.194   6.141  12.683  0.00  0.00    +0.000 A 
ATOM     13  H   UNL     1      43.278   3.229  10.311  0.00  0.00    +0.000 HD
ENDROOT
BRANCH   1  14
ATOM     14  C   UNL     1      49.073   7.797  13.062  0.00  0.00    +0.000 C 
BRANCH  14  22
ATOM     15 CL   UNL     1      53.830   8.021   8.821  0.00  0.00    +0.000 Cl
ATOM     16  C   UNL     1      52.563   8.604   9.825  0.00  0.00    +0.000 A 
ATOM     17  C   UNL     1      52.267   9.956   9.852  0.00  0.00    +0.000 A 
ATOM     18  C   UNL     1      51.245  10.340  10.688  0.00  0.00    +0.000 A 
ATOM     19 CL   UNL     1      50.788  11.991  10.799  0.00  0.00    +0.000 Cl
ATOM     20  N   UNL     1      50.518   9.503  11.467  0.00  0.00    +0.000 NA
ATOM     21  C   UNL     1      50.813   8.190  11.414  0.00  0.00    +0.000 A 
ATOM     22  N   UNL     1      50.125   7.262  12.209  0.00  0.00    +0.000 N 
ATOM     23  C   UNL     1      51.838   7.710  10.608  0.00  0.00    +0.000 A 
ATOM     24  H   UNL     1      49.792   6.498  11.628  0.00  0.00    +0.000 HD
ENDBRANCH  14  22
ENDBRANCH   1  14
TORSDOF 2
ENDMDL
MODEL 8
REMARK VINA RESULT:    -6.060      5.150      9.619
REMARK INTER + INTRA:          -7.061
REMARK INTER:                  -6.737
REMARK INTRA:                  -0.325
REMARK UNBOUND:                -0.293
REMARK  Name = 
REMARK  2 active torsions:
REMARK  status: ('A' for Active; 'I' for Inactive)
REMARK    1  A    between atoms: N_8  and  C_9
REMARK    2  A    between atoms: C_9  and  C_10
REMARK                            x       y       z     vdW  Elec       q    Type
REMARK                         _______ _______ _______ _____ _____    ______ ____
ROOT
ATOM      1  C   UNL     1      47.742   3.890  16.639  0.00  0.00    +0.000 A 
ATOM      2  C   UNL     1      48.558   2.926  17.199  0.00  0.00    +0.000 A 
ATOM      3  N   UNL     1      49.052   3.041  18.441  0.00  0.00    +0.000 NA
ATOM      4  N   UNL     1      48.736   4.150  19.198  0.00  0.00    +0.000 NA
ATOM      5  C   UNL     1      47.946   5.136  18.719  0.00  0.00    +0.000 A 
ATOM      6  N   UNL     1      47.687   6.242  19.496  0.00  0.00    +0.000 N 
ATOM      7  C   UNL     1      47.284   7.536  18.948  0.00  0.00    +0.000 C 
ATOM      8  C   UNL     1      47.959   8.687  19.730  0.00  0.00    +0.000 C 
ATOM      9  N   UNL     1      47.779   8.606  21.193  0.00  0.00    +0.000 NA
ATOM     10  C   UNL     1      48.281   7.293  21.656  0.00  0.00    +0.000 C 
ATOM     11  C   UNL     1      47.606   6.093  20.954  0.00  0.00    +0.000 C 
ATOM     12  C   UNL     1      47.434   5.004  17.432  0.00  0.00    +0.000 A 
ATOM     13  H   UNL     1      46.781   8.652  21.395  0.00  0.00    +0.000 HD
ENDROOT
BRANCH   1  14
ATOM     14  C   UNL     1      47.165   3.732  15.258  0.00  0.00    +0.000 C 
BRANCH  14  22
ATOM     15 CL   UNL     1      44.647   8.155  11.415  0.00  0.00    +0.000 Cl
ATOM     16  C   UNL     1      44.872   6.609  12.130  0.00  0.00    +0.000 A 
ATOM     17  C   UNL     1      44.075   5.545  11.745  0.00  0.00    +0.000 A 
ATOM     18  C   UNL     1      44.314   4.345  12.372  0.00  0.00    +0.000 A 
ATOM     19 CL   UNL     1      43.390   2.955  11.971  0.00  0.00    +0.000 Cl
ATOM     20  N   UNL     1      45.261   4.135  13.319  0.00  0.00    +0.000 NA
ATOM     21  C   UNL     1      46.034   5.180  13.669  0.00  0.00    +0.000 A 
ATOM     22  N   UNL     1      47.018   5.052  14.660  0.00  0.00    +0.000 N 
ATOM     23  C   UNL     1      45.858   6.435  13.097  0.00  0.00    +0.000 A 
ATOM     24  H   UNL     1      47.902   5.410  14.309  0.00  0.00    +0.000 HD
ENDBRANCH  14  22
ENDBRANCH   1  14
TORSDOF 2
ENDMDL
MODEL 9
REMARK VINA RESULT:    -6.027      3.559      4.313
REMARK INTER + INTRA:          -7.025
REMARK INTER:                  -6.785
REMARK INTRA:                  -0.240
REMARK UNBOUND:                -0.293
REMARK  Name = 
REMARK  2 active torsions:
REMARK  status: ('A' for Active; 'I' for Inactive)
REMARK    1  A    between atoms: N_8  and  C_9
REMARK    2  A    between atoms: C_9  and  C_10
REMARK                            x       y       z     vdW  Elec       q    Type
REMARK                         _______ _______ _______ _____ _____    ______ ____
ROOT
ATOM      1  C   UNL     1      44.265   5.411  10.900  0.00  0.00    +0.000 A 
ATOM      2  C   UNL     1      43.284   4.552  11.357  0.00  0.00    +0.000 A 
ATOM      3  N   UNL     1      43.166   3.295  10.903  0.00  0.00    +0.000 NA
ATOM      4  N   UNL     1      44.054   2.829   9.956  0.00  0.00    +0.000 NA
ATOM      5  C   UNL     1      45.039   3.609   9.461  0.00  0.00    +0.000 A 
ATOM      6  N   UNL     1      45.880   3.113   8.489  0.00  0.00    +0.000 N 
ATOM      7  C   UNL     1      46.626   3.960   7.561  0.00  0.00    +0.000 C 
ATOM      8  C   UNL     1      46.653   3.323   6.152  0.00  0.00    +0.000 C 
ATOM      9  N   UNL     1      47.108   1.919   6.136  0.00  0.00    +0.000 NA
ATOM     10  C   UNL     1      46.247   1.135   7.050  0.00  0.00    +0.000 C 
ATOM     11  C   UNL     1      46.220   1.686   8.494  0.00  0.00    +0.000 C 
ATOM     12  C   UNL     1      45.155   4.909   9.942  0.00  0.00    +0.000 A 
ATOM     13  H   UNL     1      48.061   1.888   6.496  0.00  0.00    +0.000 HD
ENDROOT
BRANCH   1  14
ATOM     14  C   UNL     1      44.409   6.807  11.443  0.00  0.00    +0.000 C 
BRANCH  14  22
ATOM     15 CL   UNL     1      41.268  12.142   9.909  0.00  0.00    +0.000 Cl
ATOM     16  C   UNL     1      42.565  11.162  10.469  0.00  0.00    +0.000 A 
ATOM     17  C   UNL     1      43.753  11.748  10.868  0.00  0.00    +0.000 A 
ATOM     18  C   UNL     1      44.742  10.893  11.294  0.00  0.00    +0.000 A 
ATOM     19 CL   UNL     1      46.257  11.508  11.817  0.00  0.00    +0.000 Cl
ATOM     20  N   UNL     1      44.633   9.544  11.354  0.00  0.00    +0.000 NA
ATOM     21  C   UNL     1      43.464   8.995  10.975  0.00  0.00    +0.000 A 
ATOM     22  N   UNL     1      43.280   7.605  10.983  0.00  0.00    +0.000 N 
ATOM     23  C   UNL     1      42.411   9.779  10.518  0.00  0.00    +0.000 A 
ATOM     24  H   UNL     1      42.425   7.378  11.483  0.00  0.00    +0.000 HD
ENDBRANCH  14  22
ENDBRANCH   1  14
TORSDOF 2
ENDMDL
