MODEL 1
REMARK VINA RESULT:    -8.242      0.000      0.000
REMARK INTER + INTRA:         -12.352
REMARK INTER:                 -11.614
REMARK INTRA:                  -0.738
REMARK UNBOUND:                -0.738
REMARK  Name = 
REMARK  8 active torsions:
REMARK  status: ('A' for Active; 'I' for Inactive)
REMARK    1  A    between atoms: C_1  and  C_2
REMARK    2  A    between atoms: C_2  and  C_3
REMARK    3  A    between atoms: C_2  and  C_14
REMARK    4  A    between atoms: C_3  and  O_4
REMARK    5  A    between atoms: O_4  and  C_5
REMARK    6  A    between atoms: C_8  and  C_9
REMARK    7  A    between atoms: C_19  and  N_20
REMARK    8  A    between atoms: N_20  and  C_21
REMARK                            x       y       z     vdW  Elec       q    Type
REMARK                         _______ _______ _______ _____ _____    ______ ____
ROOT
ATOM      1  C   UNL     1      42.607   5.444  11.816  0.00  0.00    +0.000 C 
ATOM      2  C   UNL     1      43.618   4.385  12.274  0.00  0.00    +0.000 C 
ENDROOT
BRANCH   2   3
ATOM      3  C   UNL     1      44.970   5.020  12.591  0.00  0.00    +0.000 A 
ATOM      4  C   UNL     1      45.607   5.867  11.672  0.00  0.00    +0.000 A 
ATOM      5  C   UNL     1      46.853   6.404  11.966  0.00  0.00    +0.000 A 
ATOM      6  F   UNL     1      47.450   7.206  11.074  0.00  0.00    +0.000 F 
ATOM      7  C   UNL     1      47.495   6.122  13.166  0.00  0.00    +0.000 A 
ATOM      8  C   UNL     1      46.877   5.308  14.122  0.00  0.00    +0.000 A 
ATOM      9  C   UNL     1      45.622   4.751  13.813  0.00  0.00    +0.000 A 
BRANCH   8  10
ATOM     10  N   UNL     1      47.570   5.009  15.317  0.00  0.00    +0.000 N 
ATOM     11  H   UNL     1      48.084   5.813  15.670  0.00  0.00    +0.000 HD
BRANCH  10  12
ATOM     12  C   UNL     1      47.102   4.151  16.376  0.00  0.00    +0.000 C 
ATOM     13  C   UNL     1      47.269   4.757  17.789  0.00  0.00    +0.000 C 
ATOM     14  N   UNL     1      47.819   3.460  18.252  0.00  0.00    +0.000 NA
ATOM     15  C   UNL     1      48.167   3.135  16.849  0.00  0.00    +0.000 C 
ATOM     16  H   UNL     1      47.108   2.839  18.643  0.00  0.00    +0.000 HD
ENDBRANCH  10  12
ENDBRANCH   8  10
ENDBRANCH   2   3
BRANCH   2  17
ATOM     17  C   UNL     1      43.766   3.259  11.229  0.00  0.00    +0.000 C 
BRANCH  17  18
ATOM     18  O   UNL     1      43.640   3.774   9.891  0.00  0.00    +0.000 OA
BRANCH  18  19
ATOM     19  C   UNL     1      44.647   3.318   9.060  0.00  0.00    +0.000 A 
ATOM     20  C   UNL     1      45.097   2.009   9.203  0.00  0.00    +0.000 A 
ATOM     21  N   UNL     1      46.068   1.464   8.416  0.00  0.00    +0.000 NA
ATOM     22  C   UNL     1      46.571   2.310   7.470  0.00  0.00    +0.000 A 
ATOM     23  C   UNL     1      46.126   3.616   7.332  0.00  0.00    +0.000 A 
ATOM     24  N   UNL     1      45.160   4.147   8.121  0.00  0.00    +0.000 NA
BRANCH  22  25
ATOM     25  C   UNL     1      47.623   1.807   6.547  0.00  0.00    +0.000 C 
ATOM     26  N   UNL     1      48.706   2.619   6.360  0.00  0.00    +0.000 N 
ATOM     27  O   UNL     1      47.535   0.722   5.984  0.00  0.00    +0.000 OA
ATOM     28  H   UNL     1      48.768   3.511   6.840  0.00  0.00    +0.000 HD
ATOM     29  H   UNL     1      49.453   2.313   5.752  0.00  0.00    +0.000 HD
ENDBRANCH  22  25
ENDBRANCH  18  19
ENDBRANCH  17  18
ENDBRANCH   2  17
TORSDOF 7
ENDMDL
MODEL 2
REMARK VINA RESULT:    -7.545      2.815      7.861
REMARK INTER + INTRA:         -11.370
REMARK INTER:                 -10.651
REMARK INTRA:                  -0.719
REMARK UNBOUND:                -0.738
REMARK  Name = 
REMARK  8 active torsions:
REMARK  status: ('A' for Active; 'I' for Inactive)
REMARK    1  A    between atoms: C_1  and  C_2
REMARK    2  A    between atoms: C_2  and  C_3
REMARK    3  A    between atoms: C_2  and  C_14
REMARK    4  A    between atoms: C_3  and  O_4
REMARK    5  A    between atoms: O_4  and  C_5
REMARK    6  A    between atoms: C_8  and  C_9
REMARK    7  A    between atoms: C_19  and  N_20
REMARK    8  A    between atoms: N_20  and  C_21
REMARK                            x       y       z     vdW  Elec       q    Type
REMARK                         _______ _______ _______ _____ _____    ______ ____
ROOT
ATOM      1  C   UNL     1      44.994   7.366  11.948  0.00  0.00    +0.000 C 
ATOM      2  C   UNL     1      46.032   6.658  11.068  0.00  0.00    +0.000 C 
ENDROOT
BRANCH   2   3
ATOM      3  C   UNL     1      45.451   5.387  10.453  0.00  0.00    +0.000 A 
ATOM      4  C   UNL     1      44.553   4.581  11.166  0.00  0.00    +0.000 A 
ATOM      5  C   UNL     1      44.067   3.410  10.601  0.00  0.00    +0.000 A 
ATOM      6  F   UNL     1      43.213   2.648  11.299  0.00  0.00    +0.000 F 
ATOM      7  C   UNL     1      44.451   3.010   9.326  0.00  0.00    +0.000 A 
ATOM      8  C   UNL     1      45.320   3.805   8.571  0.00  0.00    +0.000 A 
ATOM      9  C   UNL     1      45.825   4.982   9.154  0.00  0.00    +0.000 A 
BRANCH   8  10
ATOM     10  N   UNL     1      45.722   3.353   7.293  0.00  0.00    +0.000 N 
ATOM     11  H   UNL     1      45.132   3.728   6.554  0.00  0.00    +0.000 HD
BRANCH  10  12
ATOM     12  C   UNL     1      47.080   3.147   6.856  0.00  0.00    +0.000 C 
ATOM     13  C   UNL     1      47.202   2.753   5.366  0.00  0.00    +0.000 C 
ATOM     14  N   UNL     1      48.155   1.685   5.752  0.00  0.00    +0.000 NA
ATOM     15  C   UNL     1      47.591   1.712   7.122  0.00  0.00    +0.000 C 
ATOM     16  H   UNL     1      49.131   1.985   5.715  0.00  0.00    +0.000 HD
ENDBRANCH  10  12
ENDBRANCH   8  10
ENDBRANCH   2   3
BRANCH   2  17
ATOM     17  C   UNL     1      47.323   6.353  11.856  0.00  0.00    +0.000 C 
BRANCH  17  18
ATOM     18  O   UNL     1      47.280   6.942  13.169  0.00  0.00    +0.000 OA
BRANCH  18  19
ATOM     19  C   UNL     1      47.454   6.001  14.168  0.00  0.00    +0.000 A 
ATOM     20  C   UNL     1      46.764   4.795  14.085  0.00  0.00    +0.000 A 
ATOM     21  N   UNL     1      46.890   3.800  15.009  0.00  0.00    +0.000 NA
ATOM     22  C   UNL     1      47.750   4.080  16.031  0.00  0.00    +0.000 A 
ATOM     23  C   UNL     1      48.431   5.285  16.116  0.00  0.00    +0.000 A 
ATOM     24  N   UNL     1      48.298   6.268  15.192  0.00  0.00    +0.000 NA
BRANCH  22  25
ATOM     25  C   UNL     1      47.971   3.052  17.082  0.00  0.00    +0.000 C 
ATOM     26  N   UNL     1      46.881   2.701  17.827  0.00  0.00    +0.000 N 
ATOM     27  O   UNL     1      49.067   2.539  17.273  0.00  0.00    +0.000 OA
ATOM     28  H   UNL     1      45.979   3.129  17.652  0.00  0.00    +0.000 HD
ATOM     29  H   UNL     1      46.981   1.996  18.545  0.00  0.00    +0.000 HD
ENDBRANCH  22  25
ENDBRANCH  18  19
ENDBRANCH  17  18
ENDBRANCH   2  17
TORSDOF 7
ENDMDL
MODEL 3
REMARK VINA RESULT:    -7.307      3.003      4.688
REMARK INTER + INTRA:         -11.035
REMARK INTER:                 -10.390
REMARK INTRA:                  -0.644
REMARK UNBOUND:                -0.738
REMARK  Name = 
REMARK  8 active torsions:
REMARK  status: ('A' for Active; 'I' for Inactive)
REMARK    1  A    between atoms: C_1  and  C_2
REMARK    2  A    between atoms: C_2  and  C_3
REMARK    3  A    between atoms: C_2  and  C_14
REMARK    4  A    between atoms: C_3  and  O_4
REMARK    5  A    between atoms: O_4  and  C_5
REMARK    6  A    between atoms: C_8  and  C_9
REMARK    7  A    between atoms: C_19  and  N_20
REMARK    8  A    between atoms: N_20  and  C_21
REMARK                            x       y       z     vdW  Elec       q    Type
REMARK                         _______ _______ _______ _____ _____    ______ ____
ROOT
ATOM      1  C   UNL     1      44.671   4.072  12.796  0.00  0.00    +0.000 C 
ATOM      2  C   UNL     1      45.267   4.922  11.666  0.00  0.00    +0.000 C 
ENDROOT
BRANCH   2   3
ATOM      3  C   UNL     1      45.773   6.261  12.198  0.00  0.00    +0.000 A 
ATOM      4  C   UNL     1      47.017   6.364  12.837  0.00  0.00    +0.000 A 
ATOM      5  C   UNL     1      47.440   7.585  13.346  0.00  0.00    +0.000 A 
ATOM      6  F   UNL     1      48.630   7.665  13.958  0.00  0.00    +0.000 F 
ATOM      7  C   UNL     1      46.653   8.725  13.236  0.00  0.00    +0.000 A 
ATOM      8  C   UNL     1      45.419   8.668  12.577  0.00  0.00    +0.000 A 
ATOM      9  C   UNL     1      44.986   7.426  12.077  0.00  0.00    +0.000 A 
BRANCH   8  10
ATOM     10  N   UNL     1      44.624   9.835  12.513  0.00  0.00    +0.000 N 
ATOM     11  H   UNL     1      44.779  10.445  13.313  0.00  0.00    +0.000 HD
BRANCH  10  12
ATOM     12  C   UNL     1      44.294  10.571  11.320  0.00  0.00    +0.000 C 
ATOM     13  C   UNL     1      43.310  11.740  11.560  0.00  0.00    +0.000 C 
ATOM     14  N   UNL     1      42.536  11.299  10.375  0.00  0.00    +0.000 NA
ATOM     15  C   UNL     1      43.124   9.946  10.525  0.00  0.00    +0.000 C 
ATOM     16  H   UNL     1      42.822  11.766   9.512  0.00  0.00    +0.000 HD
ENDBRANCH  10  12
ENDBRANCH   8  10
ENDBRANCH   2   3
BRANCH   2  17
ATOM     17  C   UNL     1      44.252   5.127  10.522  0.00  0.00    +0.000 C 
BRANCH  17  18
ATOM     18  O   UNL     1      43.866   3.869   9.940  0.00  0.00    +0.000 OA
BRANCH  18  19
ATOM     19  C   UNL     1      44.822   3.385   9.064  0.00  0.00    +0.000 A 
ATOM     20  C   UNL     1      45.227   2.058   9.174  0.00  0.00    +0.000 A 
ATOM     21  N   UNL     1      46.144   1.488   8.342  0.00  0.00    +0.000 NA
ATOM     22  C   UNL     1      46.641   2.326   7.387  0.00  0.00    +0.000 A 
ATOM     23  C   UNL     1      46.243   3.650   7.283  0.00  0.00    +0.000 A 
ATOM     24  N   UNL     1      45.329   4.207   8.116  0.00  0.00    +0.000 NA
BRANCH  22  25
ATOM     25  C   UNL     1      47.636   1.796   6.417  0.00  0.00    +0.000 C 
ATOM     26  N   UNL     1      48.804   2.496   6.302  0.00  0.00    +0.000 N 
ATOM     27  O   UNL     1      47.430   0.785   5.756  0.00  0.00    +0.000 OA
ATOM     28  H   UNL     1      48.964   3.326   6.862  0.00  0.00    +0.000 HD
ATOM     29  H   UNL     1      49.517   2.165   5.665  0.00  0.00    +0.000 HD
ENDBRANCH  22  25
ENDBRANCH  18  19
ENDBRANCH  17  18
ENDBRANCH   2  17
TORSDOF 7
ENDMDL
MODEL 4
REMARK VINA RESULT:    -7.123      2.472      3.768
REMARK INTER + INTRA:         -10.776
REMARK INTER:                 -10.022
REMARK INTRA:                  -0.753
REMARK UNBOUND:                -0.738
REMARK  Name = 
REMARK  8 active torsions:
REMARK  status: ('A' for Active; 'I' for Inactive)
REMARK    1  A    between atoms: C_1  and  C_2
REMARK    2  A    between atoms: C_2  and  C_3
REMARK    3  A    between atoms: C_2  and  C_14
REMARK    4  A    between atoms: C_3  and  O_4
REMARK    5  A    between atoms: O_4  and  C_5
REMARK    6  A    between atoms: C_8  and  C_9
REMARK    7  A    between atoms: C_19  and  N_20
REMARK    8  A    between atoms: N_20  and  C_21
REMARK                            x       y       z     vdW  Elec       q    Type
REMARK                         _______ _______ _______ _____ _____    ______ ____
ROOT
ATOM      1  C   UNL     1      42.973   4.981  13.236  0.00  0.00    +0.000 C 
ATOM      2  C   UNL     1      44.107   4.454  12.347  0.00  0.00    +0.000 C 
ENDROOT
BRANCH   2   3
ATOM      3  C   UNL     1      45.454   5.026  12.783  0.00  0.00    +0.000 A 
ATOM      4  C   UNL     1      46.083   4.587  13.957  0.00  0.00    +0.000 A 
ATOM      5  C   UNL     1      47.289   5.148  14.353  0.00  0.00    +0.000 A 
ATOM      6  F   UNL     1      47.874   4.721  15.480  0.00  0.00    +0.000 F 
ATOM      7  C   UNL     1      47.901   6.147  13.605  0.00  0.00    +0.000 A 
ATOM      8  C   UNL     1      47.320   6.589  12.410  0.00  0.00    +0.000 A 
ATOM      9  C   UNL     1      46.089   6.030  12.021  0.00  0.00    +0.000 A 
BRANCH   8  10
ATOM     10  N   UNL     1      47.946   7.632  11.691  0.00  0.00    +0.000 N 
ATOM     11  H   UNL     1      47.378   7.948  10.908  0.00  0.00    +0.000 HD
BRANCH  10  12
ATOM     12  C   UNL     1      48.737   8.695  12.256  0.00  0.00    +0.000 C 
ATOM     13  C   UNL     1      47.939   9.644  13.179  0.00  0.00    +0.000 C 
ATOM     14  N   UNL     1      48.574  10.799  12.499  0.00  0.00    +0.000 NA
ATOM     15  C   UNL     1      48.846   9.929  11.331  0.00  0.00    +0.000 C 
ATOM     16  H   UNL     1      49.424  11.120  12.966  0.00  0.00    +0.000 HD
ENDBRANCH  10  12
ENDBRANCH   8  10
ENDBRANCH   2   3
BRANCH   2  17
ATOM     17  C   UNL     1      43.835   4.749  10.857  0.00  0.00    +0.000 C 
BRANCH  17  18
ATOM     18  O   UNL     1      43.553   3.537  10.132  0.00  0.00    +0.000 OA
BRANCH  18  19
ATOM     19  C   UNL     1      44.556   3.223   9.234  0.00  0.00    +0.000 A 
ATOM     20  C   UNL     1      45.112   4.238   8.461  0.00  0.00    +0.000 A 
ATOM     21  N   UNL     1      46.120   4.028   7.567  0.00  0.00    +0.000 NA
ATOM     22  C   UNL     1      46.543   2.733   7.485  0.00  0.00    +0.000 A 
ATOM     23  C   UNL     1      45.983   1.721   8.249  0.00  0.00    +0.000 A 
ATOM     24  N   UNL     1      44.981   1.941   9.136  0.00  0.00    +0.000 NA
BRANCH  22  25
ATOM     25  C   UNL     1      47.652   2.400   6.551  0.00  0.00    +0.000 C 
ATOM     26  N   UNL     1      47.678   3.087   5.370  0.00  0.00    +0.000 N 
ATOM     27  O   UNL     1      48.503   1.562   6.820  0.00  0.00    +0.000 OA
ATOM     28  H   UNL     1      46.970   3.784   5.165  0.00  0.00    +0.000 HD
ATOM     29  H   UNL     1      48.421   2.904   4.709  0.00  0.00    +0.000 HD
ENDBRANCH  22  25
ENDBRANCH  18  19
ENDBRANCH  17  18
ENDBRANCH   2  17
TORSDOF 7
ENDMDL
MODEL 5
REMARK VINA RESULT:    -7.100      2.359      2.949
REMARK INTER + INTRA:         -10.744
REMARK INTER:                 -10.323
REMARK INTRA:                  -0.421
REMARK UNBOUND:                -0.738
REMARK  Name = 
REMARK  8 active torsions:
REMARK  status: ('A' for Active; 'I' for Inactive)
REMARK    1  A    between atoms: C_1  and  C_2
REMARK    2  A    between atoms: C_2  and  C_3
REMARK    3  A    between atoms: C_2  and  C_14
REMARK    4  A    between atoms: C_3  and  O_4
REMARK    5  A    between atoms: O_4  and  C_5
REMARK    6  A    between atoms: C_8  and  C_9
REMARK    7  A    between atoms: C_19  and  N_20
REMARK    8  A    between atoms: N_20  and  C_21
REMARK                            x       y       z     vdW  Elec       q    Type
REMARK                         _______ _______ _______ _____ _____    ______ ____
ROOT
ATOM      1  C   UNL     1      45.818   3.546  12.673  0.00  0.00    +0.000 C 
ATOM      2  C   UNL     1      45.326   4.521  11.595  0.00  0.00    +0.000 C 
ENDROOT
BRANCH   2   3
ATOM      3  C   UNL     1      45.535   5.970  12.031  0.00  0.00    +0.000 A 
ATOM      4  C   UNL     1      44.820   7.017  11.433  0.00  0.00    +0.000 A 
ATOM      5  C   UNL     1      45.054   8.330  11.820  0.00  0.00    +0.000 A 
ATOM      6  F   UNL     1      44.366   9.320  11.234  0.00  0.00    +0.000 F 
ATOM      7  C   UNL     1      45.991   8.638  12.799  0.00  0.00    +0.000 A 
ATOM      8  C   UNL     1      46.701   7.617  13.441  0.00  0.00    +0.000 A 
ATOM      9  C   UNL     1      46.474   6.289  13.035  0.00  0.00    +0.000 A 
BRANCH   8  10
ATOM     10  N   UNL     1      47.674   7.964  14.406  0.00  0.00    +0.000 N 
ATOM     11  H   UNL     1      47.671   7.324  15.197  0.00  0.00    +0.000 HD
BRANCH  10  12
ATOM     12  C   UNL     1      48.988   8.488  14.133  0.00  0.00    +0.000 C 
ATOM     13  C   UNL     1      49.663   7.864  12.889  0.00  0.00    +0.000 C 
ATOM     14  N   UNL     1      50.911   7.711  13.675  0.00  0.00    +0.000 NA
ATOM     15  C   UNL     1      50.106   7.763  14.918  0.00  0.00    +0.000 C 
ATOM     16  H   UNL     1      51.547   8.504  13.576  0.00  0.00    +0.000 HD
ENDBRANCH  10  12
ENDBRANCH   8  10
ENDBRANCH   2   3
BRANCH   2  17
ATOM     17  C   UNL     1      43.849   4.258  11.232  0.00  0.00    +0.000 C 
BRANCH  17  18
ATOM     18  O   UNL     1      43.630   4.401   9.817  0.00  0.00    +0.000 OA
BRANCH  18  19
ATOM     19  C   UNL     1      44.608   3.766   9.072  0.00  0.00    +0.000 A 
ATOM     20  C   UNL     1      44.761   2.388   9.196  0.00  0.00    +0.000 A 
ATOM     21  N   UNL     1      45.680   1.674   8.486  0.00  0.00    +0.000 NA
ATOM     22  C   UNL     1      46.447   2.420   7.640  0.00  0.00    +0.000 A 
ATOM     23  C   UNL     1      46.299   3.794   7.522  0.00  0.00    +0.000 A 
ATOM     24  N   UNL     1      45.381   4.494   8.234  0.00  0.00    +0.000 NA
BRANCH  22  25
ATOM     25  C   UNL     1      47.469   1.733   6.806  0.00  0.00    +0.000 C 
ATOM     26  N   UNL     1      48.556   2.477   6.442  0.00  0.00    +0.000 N 
ATOM     27  O   UNL     1      47.354   0.562   6.464  0.00  0.00    +0.000 OA
ATOM     28  H   UNL     1      48.641   3.443   6.739  0.00  0.00    +0.000 HD
ATOM     29  H   UNL     1      49.284   2.048   5.886  0.00  0.00    +0.000 HD
ENDBRANCH  22  25
ENDBRANCH  18  19
ENDBRANCH  17  18
ENDBRANCH   2  17
TORSDOF 7
ENDMDL
MODEL 6
REMARK VINA RESULT:    -6.787      3.254      8.263
REMARK INTER + INTRA:         -10.303
REMARK INTER:                  -9.698
REMARK INTRA:                  -0.604
REMARK UNBOUND:                -0.738
REMARK  Name = 
REMARK  8 active torsions:
REMARK  status: ('A' for Active; 'I' for Inactive)
REMARK    1  A    between atoms: C_1  and  C_2
REMARK    2  A    between atoms: C_2  and  C_3
REMARK    3  A    between atoms: C_2  and  C_14
REMARK    4  A    between atoms: C_3  and  O_4
REMARK    5  A    between atoms: O_4  and  C_5
REMARK    6  A    between atoms: C_8  and  C_9
REMARK    7  A    between atoms: C_19  and  N_20
REMARK    8  A    between atoms: N_20  and  C_21
REMARK                            x       y       z     vdW  Elec       q    Type
REMARK                         _______ _______ _______ _____ _____    ______ ____
ROOT
ATOM      1  C   UNL     1      46.250   8.024  12.906  0.00  0.00    +0.000 C 
ATOM      2  C   UNL     1      46.793   6.805  12.147  0.00  0.00    +0.000 C 
ENDROOT
BRANCH   2   3
ATOM      3  C   UNL     1      45.670   5.824  11.815  0.00  0.00    +0.000 A 
ATOM      4  C   UNL     1      44.951   5.175  12.828  0.00  0.00    +0.000 A 
ATOM      5  C   UNL     1      43.960   4.259  12.502  0.00  0.00    +0.000 A 
ATOM      6  F   UNL     1      43.285   3.644  13.483  0.00  0.00    +0.000 F 
ATOM      7  C   UNL     1      43.656   3.965  11.178  0.00  0.00    +0.000 A 
ATOM      8  C   UNL     1      44.331   4.616  10.139  0.00  0.00    +0.000 A 
ATOM      9  C   UNL     1      45.346   5.531  10.473  0.00  0.00    +0.000 A 
BRANCH   8  10
ATOM     10  N   UNL     1      44.027   4.269   8.803  0.00  0.00    +0.000 N 
ATOM     11  H   UNL     1      43.823   5.088   8.234  0.00  0.00    +0.000 HD
BRANCH  10  12
ATOM     12  C   UNL     1      44.644   3.214   8.041  0.00  0.00    +0.000 C 
ATOM     13  C   UNL     1      45.334   2.138   8.911  0.00  0.00    +0.000 C 
ATOM     14  N   UNL     1      46.511   2.201   8.011  0.00  0.00    +0.000 NA
ATOM     15  C   UNL     1      46.082   3.555   7.586  0.00  0.00    +0.000 C 
ATOM     16  H   UNL     1      46.475   1.514   7.255  0.00  0.00    +0.000 HD
ENDBRANCH  10  12
ENDBRANCH   8  10
ENDBRANCH   2   3
BRANCH   2  17
ATOM     17  C   UNL     1      47.922   6.110  12.936  0.00  0.00    +0.000 C 
BRANCH  17  18
ATOM     18  O   UNL     1      48.400   6.947  14.004  0.00  0.00    +0.000 OA
BRANCH  18  19
ATOM     19  C   UNL     1      48.500   6.259  15.200  0.00  0.00    +0.000 A 
ATOM     20  C   UNL     1      49.261   6.804  16.230  0.00  0.00    +0.000 A 
ATOM     21  N   UNL     1      49.398   6.211  17.450  0.00  0.00    +0.000 NA
ATOM     22  C   UNL     1      48.727   5.030  17.584  0.00  0.00    +0.000 A 
ATOM     23  C   UNL     1      47.975   4.485  16.556  0.00  0.00    +0.000 A 
ATOM     24  N   UNL     1      47.846   5.083  15.346  0.00  0.00    +0.000 NA
BRANCH  22  25
ATOM     25  C   UNL     1      48.797   4.311  18.884  0.00  0.00    +0.000 C 
ATOM     26  N   UNL     1      48.185   3.090  18.936  0.00  0.00    +0.000 N 
ATOM     27  O   UNL     1      49.375   4.777  19.859  0.00  0.00    +0.000 OA
ATOM     28  H   UNL     1      47.718   2.714  18.119  0.00  0.00    +0.000 HD
ATOM     29  H   UNL     1      48.218   2.558  19.796  0.00  0.00    +0.000 HD
ENDBRANCH  22  25
ENDBRANCH  18  19
ENDBRANCH  17  18
ENDBRANCH   2  17
TORSDOF 7
ENDMDL
MODEL 7
REMARK VINA RESULT:    -6.520      3.941      7.628
REMARK INTER + INTRA:          -9.926
REMARK INTER:                  -8.861
REMARK INTRA:                  -1.065
REMARK UNBOUND:                -0.738
REMARK  Name = 
REMARK  8 active torsions:
REMARK  status: ('A' for Active; 'I' for Inactive)
REMARK    1  A    between atoms: C_1  and  C_2
REMARK    2  A    between atoms: C_2  and  C_3
REMARK    3  A    between atoms: C_2  and  C_14
REMARK    4  A    between atoms: C_3  and  O_4
REMARK    5  A    between atoms: O_4  and  C_5
REMARK    6  A    between atoms: C_8  and  C_9
REMARK    7  A    between atoms: C_19  and  N_20
REMARK    8  A    between atoms: N_20  and  C_21
REMARK                            x       y       z     vdW  Elec       q    Type
REMARK                         _______ _______ _______ _____ _____    ______ ____
ROOT
ATOM      1  C   UNL     1      49.274   9.994  13.228  0.00  0.00    +0.000 C 
ATOM      2  C   UNL     1      49.080   8.621  12.571  0.00  0.00    +0.000 C 
ENDROOT
BRANCH   2   3
ATOM      3  C   UNL     1      47.610   8.377  12.238  0.00  0.00    +0.000 A 
ATOM      4  C   UNL     1      46.639   9.361  12.475  0.00  0.00    +0.000 A 
ATOM      5  C   UNL     1      45.303   9.103  12.199  0.00  0.00    +0.000 A 
ATOM      6  F   UNL     1      44.388  10.052  12.438  0.00  0.00    +0.000 F 
ATOM      7  C   UNL     1      44.896   7.878  11.685  0.00  0.00    +0.000 A 
ATOM      8  C   UNL     1      45.839   6.882  11.404  0.00  0.00    +0.000 A 
ATOM      9  C   UNL     1      47.190   7.141  11.701  0.00  0.00    +0.000 A 
BRANCH   8  10
ATOM     10  N   UNL     1      45.391   5.634  10.917  0.00  0.00    +0.000 N 
ATOM     11  H   UNL     1      46.075   5.197  10.302  0.00  0.00    +0.000 HD
BRANCH  10  12
ATOM     12  C   UNL     1      44.620   4.664  11.653  0.00  0.00    +0.000 C 
ATOM     13  C   UNL     1      45.341   4.117  12.907  0.00  0.00    +0.000 C 
ATOM     14  N   UNL     1      44.939   2.747  12.509  0.00  0.00    +0.000 NA
ATOM     15  C   UNL     1      44.784   3.224  11.115  0.00  0.00    +0.000 C 
ATOM     16  H   UNL     1      44.057   2.449  12.931  0.00  0.00    +0.000 HD
ENDBRANCH  10  12
ENDBRANCH   8  10
ENDBRANCH   2   3
BRANCH   2  17
ATOM     17  C   UNL     1      49.643   7.490  13.457  0.00  0.00    +0.000 C 
BRANCH  17  18
ATOM     18  O   UNL     1      49.468   7.789  14.854  0.00  0.00    +0.000 OA
BRANCH  18  19
ATOM     19  C   UNL     1      49.014   6.695  15.568  0.00  0.00    +0.000 A 
ATOM     20  C   UNL     1      49.508   6.475  16.851  0.00  0.00    +0.000 A 
ATOM     21  N   UNL     1      49.103   5.438  17.638  0.00  0.00    +0.000 NA
ATOM     22  C   UNL     1      48.171   4.622  17.065  0.00  0.00    +0.000 A 
ATOM     23  C   UNL     1      47.686   4.837  15.784  0.00  0.00    +0.000 A 
ATOM     24  N   UNL     1      48.096   5.872  15.010  0.00  0.00    +0.000 NA
BRANCH  22  25
ATOM     25  C   UNL     1      47.650   3.469  17.847  0.00  0.00    +0.000 C 
ATOM     26  N   UNL     1      48.292   3.193  19.021  0.00  0.00    +0.000 N 
ATOM     27  O   UNL     1      46.695   2.802  17.470  0.00  0.00    +0.000 OA
ATOM     28  H   UNL     1      49.077   3.760  19.324  0.00  0.00    +0.000 HD
ATOM     29  H   UNL     1      47.965   2.427  19.594  0.00  0.00    +0.000 HD
ENDBRANCH  22  25
ENDBRANCH  18  19
ENDBRANCH  17  18
ENDBRANCH   2  17
TORSDOF 7
ENDMDL
MODEL 8
REMARK VINA RESULT:    -6.264      3.520      5.461
REMARK INTER + INTRA:          -9.565
REMARK INTER:                  -8.595
REMARK INTRA:                  -0.970
REMARK UNBOUND:                -0.738
REMARK  Name = 
REMARK  8 active torsions:
REMARK  status: ('A' for Active; 'I' for Inactive)
REMARK    1  A    between atoms: C_1  and  C_2
REMARK    2  A    between atoms: C_2  and  C_3
REMARK    3  A    between atoms: C_2  and  C_14
REMARK    4  A    between atoms: C_3  and  O_4
REMARK    5  A    between atoms: O_4  and  C_5
REMARK    6  A    between atoms: C_8  and  C_9
REMARK    7  A    between atoms: C_19  and  N_20
REMARK    8  A    between atoms: N_20  and  C_21
REMARK                            x       y       z     vdW  Elec       q    Type
REMARK                         _______ _______ _______ _____ _____    ______ ____
ROOT
ATOM      1  C   UNL     1      49.965   8.184  13.199  0.00  0.00    +0.000 C 
ATOM      2  C   UNL     1      48.709   8.739  13.882  0.00  0.00    +0.000 C 
ENDROOT
BRANCH   2   3
ATOM      3  C   UNL     1      48.624   8.273  15.333  0.00  0.00    +0.000 A 
ATOM      4  C   UNL     1      48.250   9.155  16.357  0.00  0.00    +0.000 A 
ATOM      5  C   UNL     1      48.216   8.718  17.675  0.00  0.00    +0.000 A 
ATOM      6  F   UNL     1      47.862   9.576  18.642  0.00  0.00    +0.000 F 
ATOM      7  C   UNL     1      48.546   7.411  18.011  0.00  0.00    +0.000 A 
ATOM      8  C   UNL     1      48.893   6.493  17.013  0.00  0.00    +0.000 A 
ATOM      9  C   UNL     1      48.943   6.943  15.681  0.00  0.00    +0.000 A 
BRANCH   8  10
ATOM     10  N   UNL     1      49.261   5.181  17.389  0.00  0.00    +0.000 N 
ATOM     11  H   UNL     1      49.627   5.145  18.337  0.00  0.00    +0.000 HD
BRANCH  10  12
ATOM     12  C   UNL     1      48.569   3.971  17.023  0.00  0.00    +0.000 C 
ATOM     13  C   UNL     1      47.047   4.158  16.823  0.00  0.00    +0.000 C 
ATOM     14  N   UNL     1      46.816   2.935  17.629  0.00  0.00    +0.000 NA
ATOM     15  C   UNL     1      48.152   3.118  18.244  0.00  0.00    +0.000 C 
ATOM     16  H   UNL     1      46.749   2.088  17.062  0.00  0.00    +0.000 HD
ENDBRANCH  10  12
ENDBRANCH   8  10
ENDBRANCH   2   3
BRANCH   2  17
ATOM     17  C   UNL     1      47.432   8.361  13.102  0.00  0.00    +0.000 C 
BRANCH  17  18
ATOM     18  O   UNL     1      47.721   7.402  12.068  0.00  0.00    +0.000 OA
BRANCH  18  19
ATOM     19  C   UNL     1      46.753   6.418  11.985  0.00  0.00    +0.000 A 
ATOM     20  C   UNL     1      46.358   5.761  13.147  0.00  0.00    +0.000 A 
ATOM     21  N   UNL     1      45.395   4.795  13.167  0.00  0.00    +0.000 NA
ATOM     22  C   UNL     1      44.846   4.518  11.949  0.00  0.00    +0.000 A 
ATOM     23  C   UNL     1      45.245   5.167  10.791  0.00  0.00    +0.000 A 
ATOM     24  N   UNL     1      46.204   6.126  10.783  0.00  0.00    +0.000 NA
BRANCH  22  25
ATOM     25  C   UNL     1      43.773   3.491  11.864  0.00  0.00    +0.000 C 
ATOM     26  N   UNL     1      43.903   2.408  12.687  0.00  0.00    +0.000 N 
ATOM     27  O   UNL     1      42.819   3.605  11.105  0.00  0.00    +0.000 OA
ATOM     28  H   UNL     1      44.695   2.332  13.316  0.00  0.00    +0.000 HD
ATOM     29  H   UNL     1      43.191   1.691  12.674  0.00  0.00    +0.000 HD
ENDBRANCH  22  25
ENDBRANCH  18  19
ENDBRANCH  17  18
ENDBRANCH   2  17
TORSDOF 7
ENDMDL
MODEL 9
REMARK VINA RESULT:    -6.125      3.827      6.114
REMARK INTER + INTRA:          -9.370
REMARK INTER:                  -8.533
REMARK INTRA:                  -0.837
REMARK UNBOUND:                -0.738
REMARK  Name = 
REMARK  8 active torsions:
REMARK  status: ('A' for Active; 'I' for Inactive)
REMARK    1  A    between atoms: C_1  and  C_2
REMARK    2  A    between atoms: C_2  and  C_3
REMARK    3  A    between atoms: C_2  and  C_14
REMARK    4  A    between atoms: C_3  and  O_4
REMARK    5  A    between atoms: O_4  and  C_5
REMARK    6  A    between atoms: C_8  and  C_9
REMARK    7  A    between atoms: C_19  and  N_20
REMARK    8  A    between atoms: N_20  and  C_21
REMARK                            x       y       z     vdW  Elec       q    Type
REMARK                         _______ _______ _______ _____ _____    ______ ____
ROOT
ATOM      1  C   UNL     1      50.780   7.717  14.818  0.00  0.00    +0.000 C 
ATOM      2  C   UNL     1      49.398   8.095  15.367  0.00  0.00    +0.000 C 
ENDROOT
BRANCH   2   3
ATOM      3  C   UNL     1      49.100   7.343  16.662  0.00  0.00    +0.000 A 
ATOM      4  C   UNL     1      48.286   7.906  17.656  0.00  0.00    +0.000 A 
ATOM      5  C   UNL     1      48.060   7.220  18.842  0.00  0.00    +0.000 A 
ATOM      6  F   UNL     1      47.284   7.774  19.783  0.00  0.00    +0.000 F 
ATOM      7  C   UNL     1      48.625   5.972  19.073  0.00  0.00    +0.000 A 
ATOM      8  C   UNL     1      49.418   5.364  18.092  0.00  0.00    +0.000 A 
ATOM      9  C   UNL     1      49.659   6.070  16.899  0.00  0.00    +0.000 A 
BRANCH   8  10
ATOM     10  N   UNL     1      50.010   4.112  18.371  0.00  0.00    +0.000 N 
ATOM     11  H   UNL     1      50.420   4.083  19.302  0.00  0.00    +0.000 HD
BRANCH  10  12
ATOM     12  C   UNL     1      49.509   2.827  17.954  0.00  0.00    +0.000 C 
ATOM     13  C   UNL     1      50.460   2.067  17.000  0.00  0.00    +0.000 C 
ATOM     14  N   UNL     1      49.299   1.753  16.133  0.00  0.00    +0.000 NA
ATOM     15  C   UNL     1      48.580   2.908  16.721  0.00  0.00    +0.000 C 
ATOM     16  H   UNL     1      48.863   0.856  16.355  0.00  0.00    +0.000 HD
ENDBRANCH  10  12
ENDBRANCH   8  10
ENDBRANCH   2   3
BRANCH   2  17
ATOM     17  C   UNL     1      48.292   7.853  14.318  0.00  0.00    +0.000 C 
BRANCH  17  18
ATOM     18  O   UNL     1      48.678   6.828  13.384  0.00  0.00    +0.000 OA
BRANCH  18  19
ATOM     19  C   UNL     1      47.643   5.950  13.117  0.00  0.00    +0.000 A 
ATOM     20  C   UNL     1      46.700   6.294  12.153  0.00  0.00    +0.000 A 
ATOM     21  N   UNL     1      45.659   5.484  11.806  0.00  0.00    +0.000 NA
ATOM     22  C   UNL     1      45.612   4.301  12.484  0.00  0.00    +0.000 A 
ATOM     23  C   UNL     1      46.548   3.963  13.450  0.00  0.00    +0.000 A 
ATOM     24  N   UNL     1      47.579   4.776  13.787  0.00  0.00    +0.000 NA
BRANCH  22  25
ATOM     25  C   UNL     1      44.525   3.337  12.167  0.00  0.00    +0.000 C 
ATOM     26  N   UNL     1      44.562   2.766  10.927  0.00  0.00    +0.000 N 
ATOM     27  O   UNL     1      43.643   3.059  12.971  0.00  0.00    +0.000 OA
ATOM     28  H   UNL     1      45.304   2.999  10.275  0.00  0.00    +0.000 HD
ATOM     29  H   UNL     1      43.851   2.093  10.671  0.00  0.00    +0.000 HD
ENDBRANCH  22  25
ENDBRANCH  18  19
ENDBRANCH  17  18
ENDBRANCH   2  17
TORSDOF 7
ENDMDL
