MODEL 1
REMARK VINA RESULT:    -8.450      0.000      0.000
REMARK INTER + INTRA:         -11.891
REMARK INTER:                 -10.920
REMARK INTRA:                  -0.970
REMARK UNBOUND:                -0.970
REMARK  Name = 
REMARK  5 active torsions:
REMARK  status: ('A' for Active; 'I' for Inactive)
REMARK    1  A    between atoms: C_2  and  C_18
REMARK    2  A    between atoms: N_3  and  C_4
REMARK    3  A    between atoms: C_4  and  C_5
REMARK    4  A    between atoms: C_8  and  C_9
REMARK    5  A    between atoms: C_9  and  C_10
REMARK                            x       y       z     vdW  Elec       q    Type
REMARK                         _______ _______ _______ _____ _____    ______ ____
ROOT
ATOM      1  O   UNL     1      45.047   3.133  12.555  0.00  0.00    +0.000 OA
ATOM      2  C   UNL     1      45.255   4.087  11.807  0.00  0.00    +0.000 C 
ATOM      3  N   UNL     1      45.046   4.025  10.455  0.00  0.00    +0.000 N 
ATOM      4  H   UNL     1      45.380   4.777   9.861  0.00  0.00    +0.000 HD
ENDROOT
BRANCH   2   5
ATOM      5  C   UNL     1      45.706   5.381  12.330  0.00  0.00    +0.000 A 
ATOM      6  C   UNL     1      46.854   5.454  13.105  0.00  0.00    +0.000 A 
ATOM      7  S   UNL     1      47.253   7.044  13.579  0.00  0.00    +0.000 S 
ATOM      8  C   UNL     1      45.921   7.688  12.737  0.00  0.00    +0.000 A 
ATOM      9  N   UNL     1      45.704   9.030  12.687  0.00  0.00    +0.000 NA
ATOM     10  C   UNL     1      44.684   9.377  11.976  0.00  0.00    +0.000 A 
ATOM     11  N   UNL     1      43.844   8.508  11.333  0.00  0.00    +0.000 N 
ATOM     12  C   UNL     1      43.970   7.145  11.440  0.00  0.00    +0.000 A 
ATOM     13  O   UNL     1      43.097   6.395  11.006  0.00  0.00    +0.000 OA
ATOM     14  C   UNL     1      45.150   6.701  12.151  0.00  0.00    +0.000 A 
ATOM     15  H   UNL     1      43.028   8.846  10.839  0.00  0.00    +0.000 HD
ENDBRANCH   2   5
BRANCH   3  16
ATOM     16  C   UNL     1      44.658   2.812   9.784  0.00  0.00    +0.000 C 
BRANCH  16  17
ATOM     17  C   UNL     1      45.502   2.543   8.566  0.00  0.00    +0.000 A 
ATOM     18  C   UNL     1      46.083   1.283   8.377  0.00  0.00    +0.000 A 
ATOM     19  C   UNL     1      46.815   1.003   7.221  0.00  0.00    +0.000 A 
ATOM     20  C   UNL     1      46.977   1.976   6.225  0.00  0.00    +0.000 A 
ATOM     21  C   UNL     1      46.429   3.248   6.432  0.00  0.00    +0.000 A 
ATOM     22  C   UNL     1      45.713   3.534   7.598  0.00  0.00    +0.000 A 
BRANCH  20  23
ATOM     23  C   UNL     1      47.730   1.663   4.951  0.00  0.00    +0.000 C 
BRANCH  23  24
ATOM     24  C   UNL     1      46.991   0.819   3.933  0.00  0.00    +0.000 A 
ATOM     25  C   UNL     1      45.954   1.356   3.171  0.00  0.00    +0.000 A 
ATOM     26  C   UNL     1      45.207   0.517   2.348  0.00  0.00    +0.000 A 
ATOM     27  C   UNL     1      45.515  -0.836   2.298  0.00  0.00    +0.000 A 
ATOM     28  C   UNL     1      46.573  -1.290   3.065  0.00  0.00    +0.000 A 
ATOM     29  N   UNL     1      47.310  -0.501   3.879  0.00  0.00    +0.000 NA
ENDBRANCH  23  24
ENDBRANCH  20  23
ENDBRANCH  16  17
ENDBRANCH   3  16
TORSDOF 5
ENDMDL
MODEL 2
REMARK VINA RESULT:    -8.321      3.442      5.589
REMARK INTER + INTRA:         -11.724
REMARK INTER:                 -11.173
REMARK INTRA:                  -0.550
REMARK UNBOUND:                -0.970
REMARK  Name = 
REMARK  5 active torsions:
REMARK  status: ('A' for Active; 'I' for Inactive)
REMARK    1  A    between atoms: C_2  and  C_18
REMARK    2  A    between atoms: N_3  and  C_4
REMARK    3  A    between atoms: C_4  and  C_5
REMARK    4  A    between atoms: C_8  and  C_9
REMARK    5  A    between atoms: C_9  and  C_10
REMARK                            x       y       z     vdW  Elec       q    Type
REMARK                         _______ _______ _______ _____ _____    ______ ____
ROOT
ATOM      1  O   UNL     1      48.889   6.558  13.135  0.00  0.00    +0.000 OA
ATOM      2  C   UNL     1      48.100   6.497  14.076  0.00  0.00    +0.000 C 
ATOM      3  N   UNL     1      46.758   6.729  13.932  0.00  0.00    +0.000 N 
ATOM      4  H   UNL     1      46.175   6.824  14.756  0.00  0.00    +0.000 HD
ENDROOT
BRANCH   2   5
ATOM      5  C   UNL     1      48.548   6.125  15.422  0.00  0.00    +0.000 A 
ATOM      6  C   UNL     1      49.396   6.966  16.128  0.00  0.00    +0.000 A 
ATOM      7  S   UNL     1      49.767   6.397  17.694  0.00  0.00    +0.000 S 
ATOM      8  C   UNL     1      48.782   5.025  17.488  0.00  0.00    +0.000 A 
ATOM      9  N   UNL     1      48.607   4.128  18.497  0.00  0.00    +0.000 NA
ATOM     10  C   UNL     1      47.798   3.162  18.215  0.00  0.00    +0.000 A 
ATOM     11  N   UNL     1      47.167   2.993  17.011  0.00  0.00    +0.000 N 
ATOM     12  C   UNL     1      47.394   3.819  15.938  0.00  0.00    +0.000 A 
ATOM     13  O   UNL     1      46.959   3.536  14.822  0.00  0.00    +0.000 OA
ATOM     14  C   UNL     1      48.223   4.970  16.225  0.00  0.00    +0.000 A 
ATOM     15  H   UNL     1      46.589   2.181  16.839  0.00  0.00    +0.000 HD
ENDBRANCH   2   5
BRANCH   3  16
ATOM     16  C   UNL     1      46.173   7.158  12.688  0.00  0.00    +0.000 C 
BRANCH  16  17
ATOM     17  C   UNL     1      45.743   5.995  11.833  0.00  0.00    +0.000 A 
ATOM     18  C   UNL     1      45.801   6.089  10.437  0.00  0.00    +0.000 A 
ATOM     19  C   UNL     1      45.466   4.995   9.636  0.00  0.00    +0.000 A 
ATOM     20  C   UNL     1      45.070   3.781  10.214  0.00  0.00    +0.000 A 
ATOM     21  C   UNL     1      44.975   3.699  11.609  0.00  0.00    +0.000 A 
ATOM     22  C   UNL     1      45.292   4.800  12.410  0.00  0.00    +0.000 A 
BRANCH  20  23
ATOM     23  C   UNL     1      44.749   2.580   9.352  0.00  0.00    +0.000 C 
BRANCH  23  24
ATOM     24  C   UNL     1      45.736   2.277   8.242  0.00  0.00    +0.000 A 
ATOM     25  C   UNL     1      45.964   3.190   7.214  0.00  0.00    +0.000 A 
ATOM     26  C   UNL     1      46.770   2.820   6.140  0.00  0.00    +0.000 A 
ATOM     27  C   UNL     1      47.335   1.553   6.119  0.00  0.00    +0.000 A 
ATOM     28  C   UNL     1      47.081   0.710   7.187  0.00  0.00    +0.000 A 
ATOM     29  N   UNL     1      46.297   1.039   8.238  0.00  0.00    +0.000 NA
ENDBRANCH  23  24
ENDBRANCH  20  23
ENDBRANCH  16  17
ENDBRANCH   3  16
TORSDOF 5
ENDMDL
MODEL 3
REMARK VINA RESULT:    -8.167      1.536      2.299
REMARK INTER + INTRA:         -11.524
REMARK INTER:                 -10.794
REMARK INTRA:                  -0.731
REMARK UNBOUND:                -0.970
REMARK  Name = 
REMARK  5 active torsions:
REMARK  status: ('A' for Active; 'I' for Inactive)
REMARK    1  A    between atoms: C_2  and  C_18
REMARK    2  A    between atoms: N_3  and  C_4
REMARK    3  A    between atoms: C_4  and  C_5
REMARK    4  A    between atoms: C_8  and  C_9
REMARK    5  A    between atoms: C_9  and  C_10
REMARK                            x       y       z     vdW  Elec       q    Type
REMARK                         _______ _______ _______ _____ _____    ______ ____
ROOT
ATOM      1  O   UNL     1      44.746   4.347  12.456  0.00  0.00    +0.000 OA
ATOM      2  C   UNL     1      44.900   5.242  11.628  0.00  0.00    +0.000 C 
ATOM      3  N   UNL     1      44.603   5.080  10.301  0.00  0.00    +0.000 N 
ATOM      4  H   UNL     1      44.894   5.785   9.632  0.00  0.00    +0.000 HD
ENDROOT
BRANCH   2   5
ATOM      5  C   UNL     1      45.379   6.571  12.022  0.00  0.00    +0.000 A 
ATOM      6  C   UNL     1      44.743   7.707  11.544  0.00  0.00    +0.000 A 
ATOM      7  S   UNL     1      45.402   9.160  12.151  0.00  0.00    +0.000 S 
ATOM      8  C   UNL     1      46.537   8.315  13.095  0.00  0.00    +0.000 A 
ATOM      9  N   UNL     1      47.395   8.974  13.920  0.00  0.00    +0.000 NA
ATOM     10  C   UNL     1      48.168   8.204  14.610  0.00  0.00    +0.000 A 
ATOM     11  N   UNL     1      48.184   6.837  14.532  0.00  0.00    +0.000 N 
ATOM     12  C   UNL     1      47.406   6.139  13.642  0.00  0.00    +0.000 A 
ATOM     13  O   UNL     1      47.574   4.934  13.467  0.00  0.00    +0.000 OA
ATOM     14  C   UNL     1      46.455   6.947  12.909  0.00  0.00    +0.000 A 
ATOM     15  H   UNL     1      48.856   6.296  15.060  0.00  0.00    +0.000 HD
ENDBRANCH   2   5
BRANCH   3  16
ATOM     16  C   UNL     1      44.177   3.820   9.749  0.00  0.00    +0.000 C 
BRANCH  16  17
ATOM     17  C   UNL     1      45.188   3.252   8.788  0.00  0.00    +0.000 A 
ATOM     18  C   UNL     1      45.477   1.882   8.800  0.00  0.00    +0.000 A 
ATOM     19  C   UNL     1      46.364   1.333   7.871  0.00  0.00    +0.000 A 
ATOM     20  C   UNL     1      46.979   2.143   6.906  0.00  0.00    +0.000 A 
ATOM     21  C   UNL     1      46.720   3.520   6.919  0.00  0.00    +0.000 A 
ATOM     22  C   UNL     1      45.846   4.071   7.862  0.00  0.00    +0.000 A 
BRANCH  20  23
ATOM     23  C   UNL     1      47.906   1.547   5.870  0.00  0.00    +0.000 C 
BRANCH  23  24
ATOM     24  C   UNL     1      47.237   0.887   4.682  0.00  0.00    +0.000 A 
ATOM     25  C   UNL     1      46.413   1.615   3.825  0.00  0.00    +0.000 A 
ATOM     26  C   UNL     1      45.706   0.946   2.829  0.00  0.00    +0.000 A 
ATOM     27  C   UNL     1      45.842  -0.429   2.705  0.00  0.00    +0.000 A 
ATOM     28  C   UNL     1      46.695  -1.079   3.578  0.00  0.00    +0.000 A 
ATOM     29  N   UNL     1      47.388  -0.458   4.560  0.00  0.00    +0.000 NA
ENDBRANCH  23  24
ENDBRANCH  20  23
ENDBRANCH  16  17
ENDBRANCH   3  16
TORSDOF 5
ENDMDL
MODEL 4
REMARK VINA RESULT:    -7.824      3.722      6.333
REMARK INTER + INTRA:         -11.082
REMARK INTER:                 -10.333
REMARK INTRA:                  -0.749
REMARK UNBOUND:                -0.970
REMARK  Name = 
REMARK  5 active torsions:
REMARK  status: ('A' for Active; 'I' for Inactive)
REMARK    1  A    between atoms: C_2  and  C_18
REMARK    2  A    between atoms: N_3  and  C_4
REMARK    3  A    between atoms: C_4  and  C_5
REMARK    4  A    between atoms: C_8  and  C_9
REMARK    5  A    between atoms: C_9  and  C_10
REMARK                            x       y       z     vdW  Elec       q    Type
REMARK                         _______ _______ _______ _____ _____    ______ ____
ROOT
ATOM      1  O   UNL     1      49.629   7.036  13.897  0.00  0.00    +0.000 OA
ATOM      2  C   UNL     1      48.739   6.830  14.719  0.00  0.00    +0.000 C 
ATOM      3  N   UNL     1      47.423   7.121  14.472  0.00  0.00    +0.000 N 
ATOM      4  H   UNL     1      46.751   7.084  15.231  0.00  0.00    +0.000 HD
ENDROOT
BRANCH   2   5
ATOM      5  C   UNL     1      49.028   6.210  16.016  0.00  0.00    +0.000 A 
ATOM      6  C   UNL     1      49.913   6.820  16.894  0.00  0.00    +0.000 A 
ATOM      7  S   UNL     1      50.085   5.986  18.373  0.00  0.00    +0.000 S 
ATOM      8  C   UNL     1      48.959   4.801  17.899  0.00  0.00    +0.000 A 
ATOM      9  N   UNL     1      48.596   3.799  18.744  0.00  0.00    +0.000 NA
ATOM     10  C   UNL     1      47.700   3.000  18.268  0.00  0.00    +0.000 A 
ATOM     11  N   UNL     1      47.153   3.092  17.016  0.00  0.00    +0.000 N 
ATOM     12  C   UNL     1      47.564   4.027  16.099  0.00  0.00    +0.000 A 
ATOM     13  O   UNL     1      47.189   3.969  14.929  0.00  0.00    +0.000 OA
ATOM     14  C   UNL     1      48.501   5.005  16.610  0.00  0.00    +0.000 A 
ATOM     15  H   UNL     1      46.496   2.397  16.686  0.00  0.00    +0.000 HD
ENDBRANCH   2   5
BRANCH   3  16
ATOM     16  C   UNL     1      46.987   7.782  13.270  0.00  0.00    +0.000 C 
BRANCH  16  17
ATOM     17  C   UNL     1      46.211   6.860  12.366  0.00  0.00    +0.000 A 
ATOM     18  C   UNL     1      46.603   6.688  11.033  0.00  0.00    +0.000 A 
ATOM     19  C   UNL     1      45.931   5.788  10.204  0.00  0.00    +0.000 A 
ATOM     20  C   UNL     1      44.855   5.034  10.692  0.00  0.00    +0.000 A 
ATOM     21  C   UNL     1      44.438   5.234  12.014  0.00  0.00    +0.000 A 
ATOM     22  C   UNL     1      45.099   6.150  12.838  0.00  0.00    +0.000 A 
BRANCH  20  23
ATOM     23  C   UNL     1      44.152   4.025   9.811  0.00  0.00    +0.000 C 
BRANCH  23  24
ATOM     24  C   UNL     1      45.018   3.323   8.785  0.00  0.00    +0.000 A 
ATOM     25  C   UNL     1      45.418   2.000   8.966  0.00  0.00    +0.000 A 
ATOM     26  C   UNL     1      46.326   1.434   8.074  0.00  0.00    +0.000 A 
ATOM     27  C   UNL     1      46.807   2.197   7.020  0.00  0.00    +0.000 A 
ATOM     28  C   UNL     1      46.347   3.495   6.892  0.00  0.00    +0.000 A 
ATOM     29  N   UNL     1      45.472   4.073   7.746  0.00  0.00    +0.000 NA
ENDBRANCH  23  24
ENDBRANCH  20  23
ENDBRANCH  16  17
ENDBRANCH   3  16
TORSDOF 5
ENDMDL
MODEL 5
REMARK VINA RESULT:    -7.703      4.357      6.222
REMARK INTER + INTRA:         -10.925
REMARK INTER:                 -10.212
REMARK INTRA:                  -0.713
REMARK UNBOUND:                -0.970
REMARK  Name = 
REMARK  5 active torsions:
REMARK  status: ('A' for Active; 'I' for Inactive)
REMARK    1  A    between atoms: C_2  and  C_18
REMARK    2  A    between atoms: N_3  and  C_4
REMARK    3  A    between atoms: C_4  and  C_5
REMARK    4  A    between atoms: C_8  and  C_9
REMARK    5  A    between atoms: C_9  and  C_10
REMARK                            x       y       z     vdW  Elec       q    Type
REMARK                         _______ _______ _______ _____ _____    ______ ____
ROOT
ATOM      1  O   UNL     1      49.074   6.442  14.878  0.00  0.00    +0.000 OA
ATOM      2  C   UNL     1      48.091   5.801  15.244  0.00  0.00    +0.000 C 
ATOM      3  N   UNL     1      46.929   5.756  14.521  0.00  0.00    +0.000 N 
ATOM      4  H   UNL     1      46.097   5.349  14.935  0.00  0.00    +0.000 HD
ENDROOT
BRANCH   2   5
ATOM      5  C   UNL     1      48.117   4.999  16.471  0.00  0.00    +0.000 A 
ATOM      6  C   UNL     1      47.891   3.632  16.411  0.00  0.00    +0.000 A 
ATOM      7  S   UNL     1      48.014   2.856  17.927  0.00  0.00    +0.000 S 
ATOM      8  C   UNL     1      48.403   4.319  18.705  0.00  0.00    +0.000 A 
ATOM      9  N   UNL     1      48.693   4.352  20.034  0.00  0.00    +0.000 NA
ATOM     10  C   UNL     1      49.014   5.521  20.479  0.00  0.00    +0.000 A 
ATOM     11  N   UNL     1      49.048   6.664  19.727  0.00  0.00    +0.000 N 
ATOM     12  C   UNL     1      48.667   6.691  18.408  0.00  0.00    +0.000 A 
ATOM     13  O   UNL     1      48.532   7.759  17.812  0.00  0.00    +0.000 OA
ATOM     14  C   UNL     1      48.384   5.393  17.834  0.00  0.00    +0.000 A 
ATOM     15  H   UNL     1      49.254   7.558  20.153  0.00  0.00    +0.000 HD
ENDBRANCH   2   5
BRANCH   3  16
ATOM     16  C   UNL     1      46.727   6.531  13.325  0.00  0.00    +0.000 C 
BRANCH  16  17
ATOM     17  C   UNL     1      46.126   5.713  12.213  0.00  0.00    +0.000 A 
ATOM     18  C   UNL     1      46.155   6.186  10.895  0.00  0.00    +0.000 A 
ATOM     19  C   UNL     1      45.659   5.408   9.848  0.00  0.00    +0.000 A 
ATOM     20  C   UNL     1      45.126   4.135  10.094  0.00  0.00    +0.000 A 
ATOM     21  C   UNL     1      45.061   3.677  11.417  0.00  0.00    +0.000 A 
ATOM     22  C   UNL     1      45.540   4.465  12.467  0.00  0.00    +0.000 A 
BRANCH  20  23
ATOM     23  C   UNL     1      44.628   3.270   8.958  0.00  0.00    +0.000 C 
BRANCH  23  24
ATOM     24  C   UNL     1      45.695   2.609   8.110  0.00  0.00    +0.000 A 
ATOM     25  C   UNL     1      46.235   3.258   7.000  0.00  0.00    +0.000 A 
ATOM     26  C   UNL     1      47.110   2.567   6.165  0.00  0.00    +0.000 A 
ATOM     27  C   UNL     1      47.432   1.249   6.459  0.00  0.00    +0.000 A 
ATOM     28  C   UNL     1      46.874   0.681   7.590  0.00  0.00    +0.000 A 
ATOM     29  N   UNL     1      46.016   1.324   8.414  0.00  0.00    +0.000 NA
ENDBRANCH  23  24
ENDBRANCH  20  23
ENDBRANCH  16  17
ENDBRANCH   3  16
TORSDOF 5
ENDMDL
MODEL 6
REMARK VINA RESULT:    -7.216      6.421     11.187
REMARK INTER + INTRA:         -10.295
REMARK INTER:                  -9.464
REMARK INTRA:                  -0.832
REMARK UNBOUND:                -0.970
REMARK  Name = 
REMARK  5 active torsions:
REMARK  status: ('A' for Active; 'I' for Inactive)
REMARK    1  A    between atoms: C_2  and  C_18
REMARK    2  A    between atoms: N_3  and  C_4
REMARK    3  A    between atoms: C_4  and  C_5
REMARK    4  A    between atoms: C_8  and  C_9
REMARK    5  A    between atoms: C_9  and  C_10
REMARK                            x       y       z     vdW  Elec       q    Type
REMARK                         _______ _______ _______ _____ _____    ______ ____
ROOT
ATOM      1  O   UNL     1      47.313   3.132  14.018  0.00  0.00    +0.000 OA
ATOM      2  C   UNL     1      46.906   4.171  14.533  0.00  0.00    +0.000 C 
ATOM      3  N   UNL     1      46.900   4.370  15.888  0.00  0.00    +0.000 N 
ATOM      4  H   UNL     1      46.411   5.171  16.275  0.00  0.00    +0.000 HD
ENDROOT
BRANCH   2   5
ATOM      5  C   UNL     1      46.436   5.294  13.715  0.00  0.00    +0.000 A 
ATOM      6  C   UNL     1      47.252   6.398  13.519  0.00  0.00    +0.000 A 
ATOM      7  S   UNL     1      46.562   7.580  12.498  0.00  0.00    +0.000 S 
ATOM      8  C   UNL     1      45.164   6.638  12.263  0.00  0.00    +0.000 A 
ATOM      9  N   UNL     1      44.170   7.053  11.432  0.00  0.00    +0.000 NA
ATOM     10  C   UNL     1      43.192   6.218  11.315  0.00  0.00    +0.000 A 
ATOM     11  N   UNL     1      43.101   5.020  11.972  0.00  0.00    +0.000 N 
ATOM     12  C   UNL     1      44.033   4.611  12.893  0.00  0.00    +0.000 A 
ATOM     13  O   UNL     1      43.832   3.624  13.598  0.00  0.00    +0.000 OA
ATOM     14  C   UNL     1      45.196   5.467  12.996  0.00  0.00    +0.000 A 
ATOM     15  H   UNL     1      42.278   4.439  11.877  0.00  0.00    +0.000 HD
ENDBRANCH   2   5
BRANCH   3  16
ATOM     16  C   UNL     1      47.277   3.345  16.826  0.00  0.00    +0.000 C 
BRANCH  16  17
ATOM     17  C   UNL     1      48.732   3.430  17.203  0.00  0.00    +0.000 A 
ATOM     18  C   UNL     1      49.552   2.299  17.103  0.00  0.00    +0.000 A 
ATOM     19  C   UNL     1      50.917   2.382  17.388  0.00  0.00    +0.000 A 
ATOM     20  C   UNL     1      51.493   3.599  17.776  0.00  0.00    +0.000 A 
ATOM     21  C   UNL     1      50.666   4.721  17.914  0.00  0.00    +0.000 A 
ATOM     22  C   UNL     1      49.296   4.634  17.647  0.00  0.00    +0.000 A 
BRANCH  20  23
ATOM     23  C   UNL     1      52.978   3.704  18.044  0.00  0.00    +0.000 C 
BRANCH  23  24
ATOM     24  C   UNL     1      53.427   3.338  19.444  0.00  0.00    +0.000 A 
ATOM     25  C   UNL     1      53.062   4.114  20.543  0.00  0.00    +0.000 A 
ATOM     26  C   UNL     1      53.607   3.827  21.791  0.00  0.00    +0.000 A 
ATOM     27  C   UNL     1      54.497   2.770  21.918  0.00  0.00    +0.000 A 
ATOM     28  C   UNL     1      54.794   2.031  20.787  0.00  0.00    +0.000 A 
ATOM     29  N   UNL     1      54.287   2.291  19.560  0.00  0.00    +0.000 NA
ENDBRANCH  23  24
ENDBRANCH  20  23
ENDBRANCH  16  17
ENDBRANCH   3  16
TORSDOF 5
ENDMDL
MODEL 7
REMARK VINA RESULT:    -6.991      4.032      6.927
REMARK INTER + INTRA:         -10.005
REMARK INTER:                  -9.008
REMARK INTRA:                  -0.997
REMARK UNBOUND:                -0.970
REMARK  Name = 
REMARK  5 active torsions:
REMARK  status: ('A' for Active; 'I' for Inactive)
REMARK    1  A    between atoms: C_2  and  C_18
REMARK    2  A    between atoms: N_3  and  C_4
REMARK    3  A    between atoms: C_4  and  C_5
REMARK    4  A    between atoms: C_8  and  C_9
REMARK    5  A    between atoms: C_9  and  C_10
REMARK                            x       y       z     vdW  Elec       q    Type
REMARK                         _______ _______ _______ _____ _____    ______ ____
ROOT
ATOM      1  O   UNL     1      48.986   9.990  14.491  0.00  0.00    +0.000 OA
ATOM      2  C   UNL     1      48.294   9.161  15.078  0.00  0.00    +0.000 C 
ATOM      3  N   UNL     1      47.244   8.517  14.478  0.00  0.00    +0.000 N 
ATOM      4  H   UNL     1      46.607   7.965  15.042  0.00  0.00    +0.000 HD
ENDROOT
BRANCH   2   5
ATOM      5  C   UNL     1      48.581   8.772  16.462  0.00  0.00    +0.000 A 
ATOM      6  C   UNL     1      48.661   9.740  17.452  0.00  0.00    +0.000 A 
ATOM      7  S   UNL     1      48.948   9.098  19.008  0.00  0.00    +0.000 S 
ATOM      8  C   UNL     1      48.945   7.505  18.410  0.00  0.00    +0.000 A 
ATOM      9  N   UNL     1      49.085   6.441  19.247  0.00  0.00    +0.000 NA
ATOM     10  C   UNL     1      49.018   5.292  18.662  0.00  0.00    +0.000 A 
ATOM     11  N   UNL     1      48.850   5.106  17.316  0.00  0.00    +0.000 N 
ATOM     12  C   UNL     1      48.804   6.151  16.427  0.00  0.00    +0.000 A 
ATOM     13  O   UNL     1      48.839   5.950  15.214  0.00  0.00    +0.000 OA
ATOM     14  C   UNL     1      48.784   7.463  17.038  0.00  0.00    +0.000 A 
ATOM     15  H   UNL     1      48.864   4.177  16.916  0.00  0.00    +0.000 HD
ENDBRANCH   2   5
BRANCH   3  16
ATOM     16  C   UNL     1      46.802   8.829  13.143  0.00  0.00    +0.000 C 
BRANCH  16  17
ATOM     17  C   UNL     1      46.052   7.685  12.514  0.00  0.00    +0.000 A 
ATOM     18  C   UNL     1      44.925   7.935  11.721  0.00  0.00    +0.000 A 
ATOM     19  C   UNL     1      44.259   6.888  11.079  0.00  0.00    +0.000 A 
ATOM     20  C   UNL     1      44.710   5.567  11.213  0.00  0.00    +0.000 A 
ATOM     21  C   UNL     1      45.814   5.313  12.037  0.00  0.00    +0.000 A 
ATOM     22  C   UNL     1      46.467   6.359  12.695  0.00  0.00    +0.000 A 
BRANCH  20  23
ATOM     23  C   UNL     1      44.019   4.435  10.485  0.00  0.00    +0.000 C 
BRANCH  23  24
ATOM     24  C   UNL     1      44.830   3.750   9.404  0.00  0.00    +0.000 A 
ATOM     25  C   UNL     1      44.989   2.365   9.393  0.00  0.00    +0.000 A 
ATOM     26  C   UNL     1      45.853   1.785   8.467  0.00  0.00    +0.000 A 
ATOM     27  C   UNL     1      46.532   2.597   7.570  0.00  0.00    +0.000 A 
ATOM     28  C   UNL     1      46.306   3.960   7.627  0.00  0.00    +0.000 A 
ATOM     29  N   UNL     1      45.479   4.552   8.519  0.00  0.00    +0.000 NA
ENDBRANCH  23  24
ENDBRANCH  20  23
ENDBRANCH  16  17
ENDBRANCH   3  16
TORSDOF 5
ENDMDL
MODEL 8
REMARK VINA RESULT:    -6.883      4.976      9.830
REMARK INTER + INTRA:          -9.865
REMARK INTER:                  -8.992
REMARK INTRA:                  -0.873
REMARK UNBOUND:                -0.970
REMARK  Name = 
REMARK  5 active torsions:
REMARK  status: ('A' for Active; 'I' for Inactive)
REMARK    1  A    between atoms: C_2  and  C_18
REMARK    2  A    between atoms: N_3  and  C_4
REMARK    3  A    between atoms: C_4  and  C_5
REMARK    4  A    between atoms: C_8  and  C_9
REMARK    5  A    between atoms: C_9  and  C_10
REMARK                            x       y       z     vdW  Elec       q    Type
REMARK                         _______ _______ _______ _____ _____    ______ ____
ROOT
ATOM      1  O   UNL     1      45.795   7.944  11.750  0.00  0.00    +0.000 OA
ATOM      2  C   UNL     1      46.324   6.841  11.628  0.00  0.00    +0.000 C 
ATOM      3  N   UNL     1      47.529   6.532  12.202  0.00  0.00    +0.000 N 
ATOM      4  H   UNL     1      47.999   5.671  11.945  0.00  0.00    +0.000 HD
ENDROOT
BRANCH   2   5
ATOM      5  C   UNL     1      45.667   5.759  10.887  0.00  0.00    +0.000 A 
ATOM      6  C   UNL     1      45.874   5.629   9.522  0.00  0.00    +0.000 A 
ATOM      7  S   UNL     1      45.075   4.284   8.839  0.00  0.00    +0.000 S 
ATOM      8  C   UNL     1      44.452   3.817  10.353  0.00  0.00    +0.000 A 
ATOM      9  N   UNL     1      43.708   2.686  10.487  0.00  0.00    +0.000 NA
ATOM     10  C   UNL     1      43.340   2.432  11.699  0.00  0.00    +0.000 A 
ATOM     11  N   UNL     1      43.625   3.216  12.785  0.00  0.00    +0.000 N 
ATOM     12  C   UNL     1      44.287   4.414  12.677  0.00  0.00    +0.000 A 
ATOM     13  O   UNL     1      44.365   5.180  13.636  0.00  0.00    +0.000 OA
ATOM     14  C   UNL     1      44.800   4.704  11.355  0.00  0.00    +0.000 A 
ATOM     15  H   UNL     1      43.257   2.987  13.699  0.00  0.00    +0.000 HD
ENDBRANCH   2   5
BRANCH   3  16
ATOM     16  C   UNL     1      48.322   7.500  12.912  0.00  0.00    +0.000 C 
BRANCH  16  17
ATOM     17  C   UNL     1      48.805   6.974  14.238  0.00  0.00    +0.000 A 
ATOM     18  C   UNL     1      48.018   6.074  14.967  0.00  0.00    +0.000 A 
ATOM     19  C   UNL     1      48.484   5.531  16.166  0.00  0.00    +0.000 A 
ATOM     20  C   UNL     1      49.751   5.871  16.660  0.00  0.00    +0.000 A 
ATOM     21  C   UNL     1      50.522   6.801  15.951  0.00  0.00    +0.000 A 
ATOM     22  C   UNL     1      50.047   7.360  14.761  0.00  0.00    +0.000 A 
BRANCH  20  23
ATOM     23  C   UNL     1      50.278   5.251  17.935  0.00  0.00    +0.000 C 
BRANCH  23  24
ATOM     24  C   UNL     1      51.032   3.947  17.776  0.00  0.00    +0.000 A 
ATOM     25  C   UNL     1      50.380   2.785  17.364  0.00  0.00    +0.000 A 
ATOM     26  C   UNL     1      51.073   1.578  17.364  0.00  0.00    +0.000 A 
ATOM     27  C   UNL     1      52.401   1.556  17.767  0.00  0.00    +0.000 A 
ATOM     28  C   UNL     1      52.986   2.753  18.141  0.00  0.00    +0.000 A 
ATOM     29  N   UNL     1      52.336   3.938  18.159  0.00  0.00    +0.000 NA
ENDBRANCH  23  24
ENDBRANCH  20  23
ENDBRANCH  16  17
ENDBRANCH   3  16
TORSDOF 5
ENDMDL
MODEL 9
REMARK VINA RESULT:    -6.700      4.662      7.895
REMARK INTER + INTRA:          -9.629
REMARK INTER:                  -8.730
REMARK INTRA:                  -0.899
REMARK UNBOUND:                -0.970
REMARK  Name = 
REMARK  5 active torsions:
REMARK  status: ('A' for Active; 'I' for Inactive)
REMARK    1  A    between atoms: C_2  and  C_18
REMARK    2  A    between atoms: N_3  and  C_4
REMARK    3  A    between atoms: C_4  and  C_5
REMARK    4  A    between atoms: C_8  and  C_9
REMARK    5  A    between atoms: C_9  and  C_10
REMARK                            x       y       z     vdW  Elec       q    Type
REMARK                         _______ _______ _______ _____ _____    ______ ____
ROOT
ATOM      1  O   UNL     1      44.260   7.789  11.265  0.00  0.00    +0.000 OA
ATOM      2  C   UNL     1      45.008   6.898  11.663  0.00  0.00    +0.000 C 
ATOM      3  N   UNL     1      46.214   7.158  12.259  0.00  0.00    +0.000 N 
ATOM      4  H   UNL     1      46.865   6.398  12.425  0.00  0.00    +0.000 HD
ENDROOT
BRANCH   2   5
ATOM      5  C   UNL     1      44.632   5.485  11.562  0.00  0.00    +0.000 A 
ATOM      6  C   UNL     1      43.964   4.868  12.610  0.00  0.00    +0.000 A 
ATOM      7  S   UNL     1      43.560   3.240  12.293  0.00  0.00    +0.000 S 
ATOM      8  C   UNL     1      44.238   3.318  10.734  0.00  0.00    +0.000 A 
ATOM      9  N   UNL     1      44.179   2.254   9.889  0.00  0.00    +0.000 NA
ATOM     10  C   UNL     1      44.693   2.471   8.724  0.00  0.00    +0.000 A 
ATOM     11  N   UNL     1      45.285   3.642   8.334  0.00  0.00    +0.000 N 
ATOM     12  C   UNL     1      45.453   4.704   9.189  0.00  0.00    +0.000 A 
ATOM     13  O   UNL     1      46.147   5.667   8.868  0.00  0.00    +0.000 OA
ATOM     14  C   UNL     1      44.815   4.548  10.478  0.00  0.00    +0.000 A 
ATOM     15  H   UNL     1      45.719   3.725   7.424  0.00  0.00    +0.000 HD
ENDBRANCH   2   5
BRANCH   3  16
ATOM     16  C   UNL     1      46.749   8.489  12.381  0.00  0.00    +0.000 C 
BRANCH  16  17
ATOM     17  C   UNL     1      48.180   8.569  11.920  0.00  0.00    +0.000 A 
ATOM     18  C   UNL     1      48.769   9.814  11.666  0.00  0.00    +0.000 A 
ATOM     19  C   UNL     1      50.114   9.904  11.300  0.00  0.00    +0.000 A 
ATOM     20  C   UNL     1      50.901   8.750  11.185  0.00  0.00    +0.000 A 
ATOM     21  C   UNL     1      50.303   7.502  11.400  0.00  0.00    +0.000 A 
ATOM     22  C   UNL     1      48.951   7.411  11.747  0.00  0.00    +0.000 A 
BRANCH  20  23
ATOM     23  C   UNL     1      52.369   8.845  10.832  0.00  0.00    +0.000 C 
BRANCH  23  24
ATOM     24  C   UNL     1      52.920   7.723   9.976  0.00  0.00    +0.000 A 
ATOM     25  C   UNL     1      52.596   7.625   8.623  0.00  0.00    +0.000 A 
ATOM     26  C   UNL     1      53.006   6.505   7.903  0.00  0.00    +0.000 A 
ATOM     27  C   UNL     1      53.735   5.514   8.545  0.00  0.00    +0.000 A 
ATOM     28  C   UNL     1      54.037   5.693   9.883  0.00  0.00    +0.000 A 
ATOM     29  N   UNL     1      53.646   6.764  10.610  0.00  0.00    +0.000 NA
ENDBRANCH  23  24
ENDBRANCH  20  23
ENDBRANCH  16  17
ENDBRANCH   3  16
TORSDOF 5
ENDMDL
