MODEL 1
REMARK VINA RESULT:    -6.841      0.000      0.000
REMARK INTER + INTRA:         -11.617
REMARK INTER:                 -10.440
REMARK INTRA:                  -1.178
REMARK UNBOUND:                -1.178
REMARK  Name = 
REMARK  12 active torsions:
REMARK  status: ('A' for Active; 'I' for Inactive)
REMARK    1  A    between atoms: C_1  and  O_2
REMARK    2  A    between atoms: O_2  and  C_3
REMARK    3  A    between atoms: C_8  and  C_9
REMARK    4  A    between atoms: C_9  and  C_10
REMARK    5  A    between atoms: C_10  and  C_11
REMARK    6  A    between atoms: C_11  and  C_12
REMARK    7  A    between atoms: C_15  and  C_16
REMARK    8  A    between atoms: C_16  and  N_17
REMARK    9  A    between atoms: N_17  and  C_18
REMARK   10  A    between atoms: C_19  and  C_21
REMARK   11  A    between atoms: C_28  and  O_29
REMARK   12  A    between atoms: O_29  and  C_30
REMARK                            x       y       z     vdW  Elec       q    Type
REMARK                         _______ _______ _______ _____ _____    ______ ____
ROOT
ATOM      1  C   UNL     1      46.861   7.482  12.913  0.00  0.00    +0.000 A 
ATOM      2  C   UNL     1      47.471   6.405  13.567  0.00  0.00    +0.000 A 
ATOM      3  C   UNL     1      48.292   6.621  14.673  0.00  0.00    +0.000 A 
ATOM      4  C   UNL     1      48.553   7.922  15.135  0.00  0.00    +0.000 A 
ATOM      5  C   UNL     1      48.007   9.001  14.434  0.00  0.00    +0.000 A 
ATOM      6  C   UNL     1      47.164   8.785  13.338  0.00  0.00    +0.000 A 
ENDROOT
BRANCH   1   7
ATOM      7  C   UNL     1      45.844   7.231  11.820  0.00  0.00    +0.000 C 
BRANCH   7   8
ATOM      8  C   UNL     1      45.210   5.827  11.889  0.00  0.00    +0.000 C 
BRANCH   8   9
ATOM      9  C   UNL     1      44.252   5.566  10.721  0.00  0.00    +0.000 C 
BRANCH   9  15
ATOM     10  C   UNL     1      44.192   3.112  10.003  0.00  0.00    +0.000 A 
ATOM     11  C   UNL     1      44.700   2.077   9.209  0.00  0.00    +0.000 A 
ATOM     12  C   UNL     1      45.672   2.334   8.238  0.00  0.00    +0.000 A 
ATOM     13  C   UNL     1      46.126   3.632   8.036  0.00  0.00    +0.000 A 
ATOM     14  C   UNL     1      45.626   4.671   8.819  0.00  0.00    +0.000 A 
ATOM     15  C   UNL     1      44.673   4.422   9.823  0.00  0.00    +0.000 A 
BRANCH  10  17
ATOM     16  C   UNL     1      43.657   2.474  12.230  0.00  0.00    +0.000 C 
ATOM     17  O   UNL     1      43.224   2.945  10.960  0.00  0.00    +0.000 OA
ENDBRANCH  10  17
ENDBRANCH   9  15
ENDBRANCH   8   9
ENDBRANCH   7   8
ENDBRANCH   1   7
BRANCH   4  18
ATOM     18  C   UNL     1      49.334   8.131  16.417  0.00  0.00    +0.000 C 
BRANCH  18  19
ATOM     19  N   UNL     1      50.472   7.245  16.665  0.00  0.00    +0.000 N 
ATOM     20  C   UNL     1      51.570   7.228  15.708  0.00  0.00    +0.000 C 
ATOM     21  C   UNL     1      50.269   6.242  17.639  0.00  0.00    +0.000 C 
ATOM     22  O   UNL     1      49.204   6.174  18.252  0.00  0.00    +0.000 OA
BRANCH  21  23
ATOM     23  C   UNL     1      51.362   5.307  17.946  0.00  0.00    +0.000 A 
ATOM     24  C   UNL     1      52.551   5.619  18.594  0.00  0.00    +0.000 A 
ATOM     25  N   UNL     1      53.297   4.481  18.723  0.00  0.00    +0.000 N 
ATOM     26  C   UNL     1      52.586   3.411  18.267  0.00  0.00    +0.000 A 
ATOM     27  N   UNL     1      53.032   2.144  18.338  0.00  0.00    +0.000 NA
ATOM     28  C   UNL     1      52.163   1.252  17.821  0.00  0.00    +0.000 A 
ATOM     29  C   UNL     1      50.939   1.555  17.240  0.00  0.00    +0.000 A 
ATOM     30  C   UNL     1      50.529   2.895  17.182  0.00  0.00    +0.000 A 
ATOM     31  C   UNL     1      51.382   3.875  17.743  0.00  0.00    +0.000 A 
ATOM     32  H   UNL     1      54.218   4.404  19.128  0.00  0.00    +0.000 HD
BRANCH  30  33
ATOM     33  O   UNL     1      49.383   3.296  16.547  0.00  0.00    +0.000 OA
ATOM     34  C   UNL     1      48.175   2.747  17.065  0.00  0.00    +0.000 C 
ENDBRANCH  30  33
ENDBRANCH  21  23
ENDBRANCH  18  19
ENDBRANCH   4  18
TORSDOF 9
ENDMDL
MODEL 2
REMARK VINA RESULT:    -6.617      3.373      8.313
REMARK INTER + INTRA:         -11.277
REMARK INTER:                  -9.074
REMARK INTRA:                  -2.203
REMARK UNBOUND:                -1.178
REMARK  Name = 
REMARK  12 active torsions:
REMARK  status: ('A' for Active; 'I' for Inactive)
REMARK    1  A    between atoms: C_1  and  O_2
REMARK    2  A    between atoms: O_2  and  C_3
REMARK    3  A    between atoms: C_8  and  C_9
REMARK    4  A    between atoms: C_9  and  C_10
REMARK    5  A    between atoms: C_10  and  C_11
REMARK    6  A    between atoms: C_11  and  C_12
REMARK    7  A    between atoms: C_15  and  C_16
REMARK    8  A    between atoms: C_16  and  N_17
REMARK    9  A    between atoms: N_17  and  C_18
REMARK   10  A    between atoms: C_19  and  C_21
REMARK   11  A    between atoms: C_28  and  O_29
REMARK   12  A    between atoms: O_29  and  C_30
REMARK                            x       y       z     vdW  Elec       q    Type
REMARK                         _______ _______ _______ _____ _____    ______ ____
ROOT
ATOM      1  C   UNL     1      50.961   6.892  15.996  0.00  0.00    +0.000 A 
ATOM      2  C   UNL     1      51.529   7.650  14.965  0.00  0.00    +0.000 A 
ATOM      3  C   UNL     1      50.733   8.168  13.945  0.00  0.00    +0.000 A 
ATOM      4  C   UNL     1      49.352   7.916  13.909  0.00  0.00    +0.000 A 
ATOM      5  C   UNL     1      48.798   7.094  14.894  0.00  0.00    +0.000 A 
ATOM      6  C   UNL     1      49.592   6.592  15.932  0.00  0.00    +0.000 A 
ENDROOT
BRANCH   1   7
ATOM      7  C   UNL     1      51.800   6.472  17.184  0.00  0.00    +0.000 C 
BRANCH   7   8
ATOM      8  C   UNL     1      51.037   6.535  18.522  0.00  0.00    +0.000 C 
BRANCH   8   9
ATOM      9  C   UNL     1      50.824   5.147  19.134  0.00  0.00    +0.000 C 
BRANCH   9  15
ATOM     10  C   UNL     1      49.939   3.261  17.652  0.00  0.00    +0.000 A 
ATOM     11  C   UNL     1      48.861   2.639  17.009  0.00  0.00    +0.000 A 
ATOM     12  C   UNL     1      47.555   3.093  17.207  0.00  0.00    +0.000 A 
ATOM     13  C   UNL     1      47.311   4.158  18.067  0.00  0.00    +0.000 A 
ATOM     14  C   UNL     1      48.376   4.783  18.714  0.00  0.00    +0.000 A 
ATOM     15  C   UNL     1      49.700   4.358  18.499  0.00  0.00    +0.000 A 
BRANCH  10  17
ATOM     16  C   UNL     1      51.475   1.464  17.389  0.00  0.00    +0.000 C 
ATOM     17  O   UNL     1      51.245   2.861  17.527  0.00  0.00    +0.000 OA
ENDBRANCH  10  17
ENDBRANCH   9  15
ENDBRANCH   8   9
ENDBRANCH   7   8
ENDBRANCH   1   7
BRANCH   4  18
ATOM     18  C   UNL     1      48.481   8.599  12.873  0.00  0.00    +0.000 C 
BRANCH  18  19
ATOM     19  N   UNL     1      47.394   7.817  12.284  0.00  0.00    +0.000 N 
ATOM     20  C   UNL     1      47.676   6.991  11.117  0.00  0.00    +0.000 C 
ATOM     21  C   UNL     1      46.089   8.173  12.692  0.00  0.00    +0.000 C 
ATOM     22  O   UNL     1      45.918   9.062  13.527  0.00  0.00    +0.000 OA
BRANCH  21  23
ATOM     23  C   UNL     1      44.939   7.439  12.145  0.00  0.00    +0.000 A 
ATOM     24  C   UNL     1      43.988   7.941  11.264  0.00  0.00    +0.000 A 
ATOM     25  N   UNL     1      43.097   6.950  10.962  0.00  0.00    +0.000 N 
ATOM     26  C   UNL     1      43.494   5.782  11.541  0.00  0.00    +0.000 A 
ATOM     27  N   UNL     1      42.857   4.612  11.356  0.00  0.00    +0.000 NA
ATOM     28  C   UNL     1      43.425   3.593  12.032  0.00  0.00    +0.000 A 
ATOM     29  C   UNL     1      44.532   3.688  12.864  0.00  0.00    +0.000 A 
ATOM     30  C   UNL     1      45.151   4.936  13.030  0.00  0.00    +0.000 A 
ATOM     31  C   UNL     1      44.624   6.039  12.317  0.00  0.00    +0.000 A 
ATOM     32  H   UNL     1      42.284   7.028  10.369  0.00  0.00    +0.000 HD
BRANCH  30  33
ATOM     33  O   UNL     1      46.188   5.143  13.900  0.00  0.00    +0.000 OA
ATOM     34  C   UNL     1      47.240   4.183  13.834  0.00  0.00    +0.000 C 
ENDBRANCH  30  33
ENDBRANCH  21  23
ENDBRANCH  18  19
ENDBRANCH   4  18
TORSDOF 9
ENDMDL
MODEL 3
REMARK VINA RESULT:    -6.521      5.075      7.574
REMARK INTER + INTRA:         -11.130
REMARK INTER:                  -9.852
REMARK INTRA:                  -1.279
REMARK UNBOUND:                -1.178
REMARK  Name = 
REMARK  12 active torsions:
REMARK  status: ('A' for Active; 'I' for Inactive)
REMARK    1  A    between atoms: C_1  and  O_2
REMARK    2  A    between atoms: O_2  and  C_3
REMARK    3  A    between atoms: C_8  and  C_9
REMARK    4  A    between atoms: C_9  and  C_10
REMARK    5  A    between atoms: C_10  and  C_11
REMARK    6  A    between atoms: C_11  and  C_12
REMARK    7  A    between atoms: C_15  and  C_16
REMARK    8  A    between atoms: C_16  and  N_17
REMARK    9  A    between atoms: N_17  and  C_18
REMARK   10  A    between atoms: C_19  and  C_21
REMARK   11  A    between atoms: C_28  and  O_29
REMARK   12  A    between atoms: O_29  and  C_30
REMARK                            x       y       z     vdW  Elec       q    Type
REMARK                         _______ _______ _______ _____ _____    ______ ____
ROOT
ATOM      1  C   UNL     1      44.650   4.765  11.501  0.00  0.00    +0.000 A 
ATOM      2  C   UNL     1      44.478   6.113  11.165  0.00  0.00    +0.000 A 
ATOM      3  C   UNL     1      45.261   7.098  11.765  0.00  0.00    +0.000 A 
ATOM      4  C   UNL     1      46.215   6.766  12.741  0.00  0.00    +0.000 A 
ATOM      5  C   UNL     1      46.331   5.430  13.134  0.00  0.00    +0.000 A 
ATOM      6  C   UNL     1      45.562   4.436  12.515  0.00  0.00    +0.000 A 
ENDROOT
BRANCH   1   7
ATOM      7  C   UNL     1      43.915   3.689  10.730  0.00  0.00    +0.000 C 
BRANCH   7   8
ATOM      8  C   UNL     1      44.419   3.525   9.282  0.00  0.00    +0.000 C 
BRANCH   8   9
ATOM      9  C   UNL     1      45.397   2.353   9.138  0.00  0.00    +0.000 C 
BRANCH   9  15
ATOM     10  C   UNL     1      46.773   1.157   7.345  0.00  0.00    +0.000 A 
ATOM     11  C   UNL     1      47.513   1.213   6.158  0.00  0.00    +0.000 A 
ATOM     12  C   UNL     1      47.599   2.401   5.427  0.00  0.00    +0.000 A 
ATOM     13  C   UNL     1      46.928   3.537   5.865  0.00  0.00    +0.000 A 
ATOM     14  C   UNL     1      46.187   3.492   7.045  0.00  0.00    +0.000 A 
ATOM     15  C   UNL     1      46.118   2.312   7.808  0.00  0.00    +0.000 A 
BRANCH  10  17
ATOM     16  C   UNL     1      46.755  -1.220   7.432  0.00  0.00    +0.000 C 
ATOM     17  O   UNL     1      46.621   0.026   8.106  0.00  0.00    +0.000 OA
ENDBRANCH  10  17
ENDBRANCH   9  15
ENDBRANCH   8   9
ENDBRANCH   7   8
ENDBRANCH   1   7
BRANCH   4  18
ATOM     18  C   UNL     1      47.151   7.829  13.282  0.00  0.00    +0.000 C 
BRANCH  18  19
ATOM     19  N   UNL     1      48.142   8.387  12.362  0.00  0.00    +0.000 N 
ATOM     20  C   UNL     1      48.780   7.502  11.397  0.00  0.00    +0.000 C 
ATOM     21  C   UNL     1      48.638   9.667  12.695  0.00  0.00    +0.000 C 
ATOM     22  O   UNL     1      48.208  10.265  13.682  0.00  0.00    +0.000 OA
BRANCH  21  23
ATOM     23  C   UNL     1      49.640  10.299  11.824  0.00  0.00    +0.000 A 
ATOM     24  C   UNL     1      51.016  10.112  11.886  0.00  0.00    +0.000 A 
ATOM     25  N   UNL     1      51.607  10.843  10.894  0.00  0.00    +0.000 N 
ATOM     26  C   UNL     1      50.649  11.427  10.119  0.00  0.00    +0.000 A 
ATOM     27  N   UNL     1      50.928  12.146   9.017  0.00  0.00    +0.000 NA
ATOM     28  C   UNL     1      49.824  12.630   8.414  0.00  0.00    +0.000 A 
ATOM     29  C   UNL     1      48.518  12.461   8.854  0.00  0.00    +0.000 A 
ATOM     30  C   UNL     1      48.286  11.712  10.016  0.00  0.00    +0.000 A 
ATOM     31  C   UNL     1      49.403  11.144  10.674  0.00  0.00    +0.000 A 
ATOM     32  H   UNL     1      52.596  10.925  10.710  0.00  0.00    +0.000 HD
BRANCH  30  33
ATOM     33  O   UNL     1      47.043  11.569  10.574  0.00  0.00    +0.000 OA
ATOM     34  C   UNL     1      46.642  12.622  11.448  0.00  0.00    +0.000 C 
ENDBRANCH  30  33
ENDBRANCH  21  23
ENDBRANCH  18  19
ENDBRANCH   4  18
TORSDOF 9
ENDMDL
MODEL 4
REMARK VINA RESULT:    -6.495      2.349      3.081
REMARK INTER + INTRA:         -11.090
REMARK INTER:                  -9.811
REMARK INTRA:                  -1.279
REMARK UNBOUND:                -1.178
REMARK  Name = 
REMARK  12 active torsions:
REMARK  status: ('A' for Active; 'I' for Inactive)
REMARK    1  A    between atoms: C_1  and  O_2
REMARK    2  A    between atoms: O_2  and  C_3
REMARK    3  A    between atoms: C_8  and  C_9
REMARK    4  A    between atoms: C_9  and  C_10
REMARK    5  A    between atoms: C_10  and  C_11
REMARK    6  A    between atoms: C_11  and  C_12
REMARK    7  A    between atoms: C_15  and  C_16
REMARK    8  A    between atoms: C_16  and  N_17
REMARK    9  A    between atoms: N_17  and  C_18
REMARK   10  A    between atoms: C_19  and  C_21
REMARK   11  A    between atoms: C_28  and  O_29
REMARK   12  A    between atoms: O_29  and  C_30
REMARK                            x       y       z     vdW  Elec       q    Type
REMARK                         _______ _______ _______ _____ _____    ______ ____
ROOT
ATOM      1  C   UNL     1      46.607   7.546  12.338  0.00  0.00    +0.000 A 
ATOM      2  C   UNL     1      47.742   6.736  12.211  0.00  0.00    +0.000 A 
ATOM      3  C   UNL     1      48.778   6.818  13.139  0.00  0.00    +0.000 A 
ATOM      4  C   UNL     1      48.724   7.735  14.202  0.00  0.00    +0.000 A 
ATOM      5  C   UNL     1      47.628   8.598  14.283  0.00  0.00    +0.000 A 
ATOM      6  C   UNL     1      46.575   8.501  13.365  0.00  0.00    +0.000 A 
ENDROOT
BRANCH   1   7
ATOM      7  C   UNL     1      45.417   7.337  11.426  0.00  0.00    +0.000 C 
BRANCH   7   8
ATOM      8  C   UNL     1      44.717   5.980  11.638  0.00  0.00    +0.000 C 
BRANCH   8   9
ATOM      9  C   UNL     1      43.891   5.557  10.418  0.00  0.00    +0.000 C 
BRANCH   9  15
ATOM     10  C   UNL     1      44.116   3.039  10.033  0.00  0.00    +0.000 A 
ATOM     11  C   UNL     1      44.748   1.971   9.384  0.00  0.00    +0.000 A 
ATOM     12  C   UNL     1      45.699   2.206   8.386  0.00  0.00    +0.000 A 
ATOM     13  C   UNL     1      46.008   3.509   8.013  0.00  0.00    +0.000 A 
ATOM     14  C   UNL     1      45.383   4.579   8.652  0.00  0.00    +0.000 A 
ATOM     15  C   UNL     1      44.449   4.358   9.680  0.00  0.00    +0.000 A 
BRANCH  10  17
ATOM     16  C   UNL     1      43.618   2.540  12.305  0.00  0.00    +0.000 C 
ATOM     17  O   UNL     1      43.159   2.892  11.005  0.00  0.00    +0.000 OA
ENDBRANCH  10  17
ENDBRANCH   9  15
ENDBRANCH   8   9
ENDBRANCH   7   8
ENDBRANCH   1   7
BRANCH   4  18
ATOM     18  C   UNL     1      49.793   7.716  15.277  0.00  0.00    +0.000 C 
BRANCH  18  19
ATOM     19  N   UNL     1      49.353   7.547  16.662  0.00  0.00    +0.000 N 
ATOM     20  C   UNL     1      49.543   8.647  17.598  0.00  0.00    +0.000 C 
ATOM     21  C   UNL     1      49.077   6.220  17.062  0.00  0.00    +0.000 C 
ATOM     22  O   UNL     1      49.169   5.294  16.255  0.00  0.00    +0.000 OA
BRANCH  21  23
ATOM     23  C   UNL     1      48.633   5.962  18.439  0.00  0.00    +0.000 A 
ATOM     24  C   UNL     1      47.317   5.827  18.866  0.00  0.00    +0.000 A 
ATOM     25  N   UNL     1      47.310   5.563  20.207  0.00  0.00    +0.000 N 
ATOM     26  C   UNL     1      48.590   5.422  20.654  0.00  0.00    +0.000 A 
ATOM     27  N   UNL     1      48.897   5.081  21.918  0.00  0.00    +0.000 NA
ATOM     28  C   UNL     1      50.226   5.006  22.133  0.00  0.00    +0.000 A 
ATOM     29  C   UNL     1      51.216   5.269  21.196  0.00  0.00    +0.000 A 
ATOM     30  C   UNL     1      50.839   5.632  19.895  0.00  0.00    +0.000 A 
ATOM     31  C   UNL     1      49.457   5.691  19.596  0.00  0.00    +0.000 A 
ATOM     32  H   UNL     1      46.500   5.442  20.795  0.00  0.00    +0.000 HD
BRANCH  30  33
ATOM     33  O   UNL     1      51.742   5.998  18.932  0.00  0.00    +0.000 OA
ATOM     34  C   UNL     1      53.094   5.631  19.194  0.00  0.00    +0.000 C 
ENDBRANCH  30  33
ENDBRANCH  21  23
ENDBRANCH  18  19
ENDBRANCH   4  18
TORSDOF 9
ENDMDL
MODEL 5
REMARK VINA RESULT:    -6.492      1.788      3.401
REMARK INTER + INTRA:         -11.085
REMARK INTER:                  -9.987
REMARK INTRA:                  -1.098
REMARK UNBOUND:                -1.178
REMARK  Name = 
REMARK  12 active torsions:
REMARK  status: ('A' for Active; 'I' for Inactive)
REMARK    1  A    between atoms: C_1  and  O_2
REMARK    2  A    between atoms: O_2  and  C_3
REMARK    3  A    between atoms: C_8  and  C_9
REMARK    4  A    between atoms: C_9  and  C_10
REMARK    5  A    between atoms: C_10  and  C_11
REMARK    6  A    between atoms: C_11  and  C_12
REMARK    7  A    between atoms: C_15  and  C_16
REMARK    8  A    between atoms: C_16  and  N_17
REMARK    9  A    between atoms: N_17  and  C_18
REMARK   10  A    between atoms: C_19  and  C_21
REMARK   11  A    between atoms: C_28  and  O_29
REMARK   12  A    between atoms: O_29  and  C_30
REMARK                            x       y       z     vdW  Elec       q    Type
REMARK                         _______ _______ _______ _____ _____    ______ ____
ROOT
ATOM      1  C   UNL     1      44.577   4.635  12.494  0.00  0.00    +0.000 A 
ATOM      2  C   UNL     1      45.879   4.412  12.958  0.00  0.00    +0.000 A 
ATOM      3  C   UNL     1      46.713   5.484  13.269  0.00  0.00    +0.000 A 
ATOM      4  C   UNL     1      46.281   6.810  13.093  0.00  0.00    +0.000 A 
ATOM      5  C   UNL     1      45.011   7.031  12.555  0.00  0.00    +0.000 A 
ATOM      6  C   UNL     1      44.163   5.955  12.264  0.00  0.00    +0.000 A 
ENDROOT
BRANCH   1   7
ATOM      7  C   UNL     1      43.623   3.473  12.315  0.00  0.00    +0.000 C 
BRANCH   7   8
ATOM      8  C   UNL     1      44.008   2.544  11.146  0.00  0.00    +0.000 C 
BRANCH   8   9
ATOM      9  C   UNL     1      44.017   3.278   9.801  0.00  0.00    +0.000 C 
BRANCH   9  15
ATOM     10  C   UNL     1      45.890   3.834   8.151  0.00  0.00    +0.000 A 
ATOM     11  C   UNL     1      46.867   3.399   7.246  0.00  0.00    +0.000 A 
ATOM     12  C   UNL     1      47.129   2.037   7.081  0.00  0.00    +0.000 A 
ATOM     13  C   UNL     1      46.434   1.098   7.834  0.00  0.00    +0.000 A 
ATOM     14  C   UNL     1      45.461   1.520   8.739  0.00  0.00    +0.000 A 
ATOM     15  C   UNL     1      45.163   2.886   8.892  0.00  0.00    +0.000 A 
BRANCH  10  17
ATOM     16  C   UNL     1      46.365   5.815   9.378  0.00  0.00    +0.000 C 
ATOM     17  O   UNL     1      45.590   5.151   8.387  0.00  0.00    +0.000 OA
ENDBRANCH  10  17
ENDBRANCH   9  15
ENDBRANCH   8   9
ENDBRANCH   7   8
ENDBRANCH   1   7
BRANCH   4  18
ATOM     18  C   UNL     1      47.148   7.960  13.564  0.00  0.00    +0.000 C 
BRANCH  18  19
ATOM     19  N   UNL     1      48.575   7.696  13.753  0.00  0.00    +0.000 N 
ATOM     20  C   UNL     1      49.338   7.137  12.645  0.00  0.00    +0.000 C 
ATOM     21  C   UNL     1      49.029   7.700  15.091  0.00  0.00    +0.000 C 
ATOM     22  O   UNL     1      48.253   7.957  16.012  0.00  0.00    +0.000 OA
BRANCH  21  23
ATOM     23  C   UNL     1      50.449   7.440  15.369  0.00  0.00    +0.000 A 
ATOM     24  C   UNL     1      51.525   8.203  14.930  0.00  0.00    +0.000 A 
ATOM     25  N   UNL     1      52.681   7.662  15.418  0.00  0.00    +0.000 N 
ATOM     26  C   UNL     1      52.387   6.622  16.249  0.00  0.00    +0.000 A 
ATOM     27  N   UNL     1      53.319   5.942  16.940  0.00  0.00    +0.000 NA
ATOM     28  C   UNL     1      52.797   4.953  17.692  0.00  0.00    +0.000 A 
ATOM     29  C   UNL     1      51.454   4.609  17.762  0.00  0.00    +0.000 A 
ATOM     30  C   UNL     1      50.526   5.344  17.011  0.00  0.00    +0.000 A 
ATOM     31  C   UNL     1      51.008   6.421  16.230  0.00  0.00    +0.000 A 
ATOM     32  H   UNL     1      53.621   7.985  15.245  0.00  0.00    +0.000 HD
BRANCH  30  33
ATOM     33  O   UNL     1      49.196   5.020  16.946  0.00  0.00    +0.000 OA
ATOM     34  C   UNL     1      48.879   3.673  17.287  0.00  0.00    +0.000 C 
ENDBRANCH  30  33
ENDBRANCH  21  23
ENDBRANCH  18  19
ENDBRANCH   4  18
TORSDOF 9
ENDMDL
MODEL 6
REMARK VINA RESULT:    -6.436      4.105      5.884
REMARK INTER + INTRA:         -11.000
REMARK INTER:                  -9.223
REMARK INTRA:                  -1.776
REMARK UNBOUND:                -1.178
REMARK  Name = 
REMARK  12 active torsions:
REMARK  status: ('A' for Active; 'I' for Inactive)
REMARK    1  A    between atoms: C_1  and  O_2
REMARK    2  A    between atoms: O_2  and  C_3
REMARK    3  A    between atoms: C_8  and  C_9
REMARK    4  A    between atoms: C_9  and  C_10
REMARK    5  A    between atoms: C_10  and  C_11
REMARK    6  A    between atoms: C_11  and  C_12
REMARK    7  A    between atoms: C_15  and  C_16
REMARK    8  A    between atoms: C_16  and  N_17
REMARK    9  A    between atoms: N_17  and  C_18
REMARK   10  A    between atoms: C_19  and  C_21
REMARK   11  A    between atoms: C_28  and  O_29
REMARK   12  A    between atoms: O_29  and  C_30
REMARK                            x       y       z     vdW  Elec       q    Type
REMARK                         _______ _______ _______ _____ _____    ______ ____
ROOT
ATOM      1  C   UNL     1      44.583   4.594  12.548  0.00  0.00    +0.000 A 
ATOM      2  C   UNL     1      45.912   4.316  12.888  0.00  0.00    +0.000 A 
ATOM      3  C   UNL     1      46.791   5.349  13.213  0.00  0.00    +0.000 A 
ATOM      4  C   UNL     1      46.374   6.690  13.174  0.00  0.00    +0.000 A 
ATOM      5  C   UNL     1      45.070   6.971  12.758  0.00  0.00    +0.000 A 
ATOM      6  C   UNL     1      44.180   5.934  12.454  0.00  0.00    +0.000 A 
ENDROOT
BRANCH   1   7
ATOM      7  C   UNL     1      43.595   3.463  12.357  0.00  0.00    +0.000 C 
BRANCH   7   8
ATOM      8  C   UNL     1      43.923   2.564  11.148  0.00  0.00    +0.000 C 
BRANCH   8   9
ATOM      9  C   UNL     1      43.991   3.357   9.838  0.00  0.00    +0.000 C 
BRANCH   9  15
ATOM     10  C   UNL     1      45.879   3.902   8.201  0.00  0.00    +0.000 A 
ATOM     11  C   UNL     1      46.857   3.462   7.301  0.00  0.00    +0.000 A 
ATOM     12  C   UNL     1      47.107   2.097   7.131  0.00  0.00    +0.000 A 
ATOM     13  C   UNL     1      46.398   1.163   7.876  0.00  0.00    +0.000 A 
ATOM     14  C   UNL     1      45.424   1.590   8.777  0.00  0.00    +0.000 A 
ATOM     15  C   UNL     1      45.138   2.958   8.934  0.00  0.00    +0.000 A 
BRANCH  10  17
ATOM     16  C   UNL     1      46.364   5.873   9.441  0.00  0.00    +0.000 C 
ATOM     17  O   UNL     1      45.590   5.221   8.441  0.00  0.00    +0.000 OA
ENDBRANCH  10  17
ENDBRANCH   9  15
ENDBRANCH   8   9
ENDBRANCH   7   8
ENDBRANCH   1   7
BRANCH   4  18
ATOM     18  C   UNL     1      47.299   7.787  13.662  0.00  0.00    +0.000 C 
BRANCH  18  19
ATOM     19  N   UNL     1      48.728   7.638  13.384  0.00  0.00    +0.000 N 
ATOM     20  C   UNL     1      49.598   7.131  14.437  0.00  0.00    +0.000 C 
ATOM     21  C   UNL     1      49.202   8.299  12.230  0.00  0.00    +0.000 C 
ATOM     22  O   UNL     1      48.425   8.918  11.502  0.00  0.00    +0.000 OA
BRANCH  21  23
ATOM     23  C   UNL     1      50.627   8.203  11.881  0.00  0.00    +0.000 A 
ATOM     24  C   UNL     1      51.182   7.367  10.919  0.00  0.00    +0.000 A 
ATOM     25  N   UNL     1      52.530   7.588  10.864  0.00  0.00    +0.000 N 
ATOM     26  C   UNL     1      52.861   8.618  11.693  0.00  0.00    +0.000 A 
ATOM     27  N   UNL     1      54.107   9.115  11.791  0.00  0.00    +0.000 NA
ATOM     28  C   UNL     1      54.199  10.127  12.677  0.00  0.00    +0.000 A 
ATOM     29  C   UNL     1      53.161  10.625  13.452  0.00  0.00    +0.000 A 
ATOM     30  C   UNL     1      51.884  10.061  13.317  0.00  0.00    +0.000 A 
ATOM     31  C   UNL     1      51.714   9.019  12.375  0.00  0.00    +0.000 A 
ATOM     32  H   UNL     1      53.198   7.109  10.279  0.00  0.00    +0.000 HD
BRANCH  30  33
ATOM     33  O   UNL     1      50.823  10.424  14.104  0.00  0.00    +0.000 OA
ATOM     34  C   UNL     1      50.128  11.597  13.686  0.00  0.00    +0.000 C 
ENDBRANCH  30  33
ENDBRANCH  21  23
ENDBRANCH  18  19
ENDBRANCH   4  18
TORSDOF 9
ENDMDL
MODEL 7
REMARK VINA RESULT:    -6.397      3.143      8.365
REMARK INTER + INTRA:         -10.940
REMARK INTER:                  -8.740
REMARK INTRA:                  -2.200
REMARK UNBOUND:                -1.178
REMARK  Name = 
REMARK  12 active torsions:
REMARK  status: ('A' for Active; 'I' for Inactive)
REMARK    1  A    between atoms: C_1  and  O_2
REMARK    2  A    between atoms: O_2  and  C_3
REMARK    3  A    between atoms: C_8  and  C_9
REMARK    4  A    between atoms: C_9  and  C_10
REMARK    5  A    between atoms: C_10  and  C_11
REMARK    6  A    between atoms: C_11  and  C_12
REMARK    7  A    between atoms: C_15  and  C_16
REMARK    8  A    between atoms: C_16  and  N_17
REMARK    9  A    between atoms: N_17  and  C_18
REMARK   10  A    between atoms: C_19  and  C_21
REMARK   11  A    between atoms: C_28  and  O_29
REMARK   12  A    between atoms: O_29  and  C_30
REMARK                            x       y       z     vdW  Elec       q    Type
REMARK                         _______ _______ _______ _____ _____    ______ ____
ROOT
ATOM      1  C   UNL     1      52.282   7.008  16.230  0.00  0.00    +0.000 A 
ATOM      2  C   UNL     1      52.748   7.831  15.198  0.00  0.00    +0.000 A 
ATOM      3  C   UNL     1      51.858   8.397  14.287  0.00  0.00    +0.000 A 
ATOM      4  C   UNL     1      50.480   8.131  14.363  0.00  0.00    +0.000 A 
ATOM      5  C   UNL     1      50.025   7.246  15.345  0.00  0.00    +0.000 A 
ATOM      6  C   UNL     1      50.915   6.695  16.275  0.00  0.00    +0.000 A 
ENDROOT
BRANCH   1   7
ATOM      7  C   UNL     1      53.230   6.531  17.310  0.00  0.00    +0.000 C 
BRANCH   7   8
ATOM      8  C   UNL     1      53.333   4.995  17.394  0.00  0.00    +0.000 C 
BRANCH   8   9
ATOM      9  C   UNL     1      52.689   4.439  18.669  0.00  0.00    +0.000 C 
BRANCH   9  15
ATOM     10  C   UNL     1      50.220   4.643  19.301  0.00  0.00    +0.000 A 
ATOM     11  C   UNL     1      48.904   4.180  19.183  0.00  0.00    +0.000 A 
ATOM     12  C   UNL     1      48.586   3.158  18.284  0.00  0.00    +0.000 A 
ATOM     13  C   UNL     1      49.577   2.607  17.479  0.00  0.00    +0.000 A 
ATOM     14  C   UNL     1      50.890   3.063  17.587  0.00  0.00    +0.000 A 
ATOM     15  C   UNL     1      51.230   4.067  18.511  0.00  0.00    +0.000 A 
BRANCH  10  17
ATOM     16  C   UNL     1      50.054   6.941  19.891  0.00  0.00    +0.000 C 
ATOM     17  O   UNL     1      50.607   5.655  20.142  0.00  0.00    +0.000 OA
ENDBRANCH  10  17
ENDBRANCH   9  15
ENDBRANCH   8   9
ENDBRANCH   7   8
ENDBRANCH   1   7
BRANCH   4  18
ATOM     18  C   UNL     1      49.514   8.861  13.452  0.00  0.00    +0.000 C 
BRANCH  18  19
ATOM     19  N   UNL     1      48.556   8.053  12.697  0.00  0.00    +0.000 N 
ATOM     20  C   UNL     1      48.937   7.560  11.380  0.00  0.00    +0.000 C 
ATOM     21  C   UNL     1      47.223   8.085  13.163  0.00  0.00    +0.000 C 
ATOM     22  O   UNL     1      46.930   8.729  14.171  0.00  0.00    +0.000 OA
BRANCH  21  23
ATOM     23  C   UNL     1      46.196   7.302  12.459  0.00  0.00    +0.000 A 
ATOM     24  C   UNL     1      45.274   7.794  11.543  0.00  0.00    +0.000 A 
ATOM     25  N   UNL     1      44.510   6.758  11.084  0.00  0.00    +0.000 N 
ATOM     26  C   UNL     1      44.971   5.583  11.598  0.00  0.00    +0.000 A 
ATOM     27  N   UNL     1      44.467   4.382  11.263  0.00  0.00    +0.000 NA
ATOM     28  C   UNL     1      45.076   3.362  11.899  0.00  0.00    +0.000 A 
ATOM     29  C   UNL     1      46.098   3.481  12.830  0.00  0.00    +0.000 A 
ATOM     30  C   UNL     1      46.578   4.758  13.151  0.00  0.00    +0.000 A 
ATOM     31  C   UNL     1      46.005   5.869  12.487  0.00  0.00    +0.000 A 
ATOM     32  H   UNL     1      43.743   6.816  10.430  0.00  0.00    +0.000 HD
BRANCH  30  33
ATOM     33  O   UNL     1      47.519   4.979  14.122  0.00  0.00    +0.000 OA
ATOM     34  C   UNL     1      47.159   4.540  15.430  0.00  0.00    +0.000 C 
ENDBRANCH  30  33
ENDBRANCH  21  23
ENDBRANCH  18  19
ENDBRANCH   4  18
TORSDOF 9
ENDMDL
MODEL 8
REMARK VINA RESULT:    -6.396      1.054      2.047
REMARK INTER + INTRA:         -10.939
REMARK INTER:                  -9.487
REMARK INTRA:                  -1.452
REMARK UNBOUND:                -1.178
REMARK  Name = 
REMARK  12 active torsions:
REMARK  status: ('A' for Active; 'I' for Inactive)
REMARK    1  A    between atoms: C_1  and  O_2
REMARK    2  A    between atoms: O_2  and  C_3
REMARK    3  A    between atoms: C_8  and  C_9
REMARK    4  A    between atoms: C_9  and  C_10
REMARK    5  A    between atoms: C_10  and  C_11
REMARK    6  A    between atoms: C_11  and  C_12
REMARK    7  A    between atoms: C_15  and  C_16
REMARK    8  A    between atoms: C_16  and  N_17
REMARK    9  A    between atoms: N_17  and  C_18
REMARK   10  A    between atoms: C_19  and  C_21
REMARK   11  A    between atoms: C_28  and  O_29
REMARK   12  A    between atoms: O_29  and  C_30
REMARK                            x       y       z     vdW  Elec       q    Type
REMARK                         _______ _______ _______ _____ _____    ______ ____
ROOT
ATOM      1  C   UNL     1      47.721   8.200  13.410  0.00  0.00    +0.000 A 
ATOM      2  C   UNL     1      47.911   6.929  13.963  0.00  0.00    +0.000 A 
ATOM      3  C   UNL     1      48.561   6.779  15.187  0.00  0.00    +0.000 A 
ATOM      4  C   UNL     1      49.070   7.894  15.875  0.00  0.00    +0.000 A 
ATOM      5  C   UNL     1      48.950   9.154  15.284  0.00  0.00    +0.000 A 
ATOM      6  C   UNL     1      48.276   9.309  14.066  0.00  0.00    +0.000 A 
ENDROOT
BRANCH   1   7
ATOM      7  C   UNL     1      46.873   8.370  12.167  0.00  0.00    +0.000 C 
BRANCH   7   8
ATOM      8  C   UNL     1      45.448   7.801  12.320  0.00  0.00    +0.000 C 
BRANCH   8   9
ATOM      9  C   UNL     1      45.034   6.944  11.118  0.00  0.00    +0.000 C 
BRANCH   9  15
ATOM     10  C   UNL     1      44.588   4.488  10.564  0.00  0.00    +0.000 A 
ATOM     11  C   UNL     1      44.048   3.249  10.931  0.00  0.00    +0.000 A 
ATOM     12  C   UNL     1      43.502   3.058  12.203  0.00  0.00    +0.000 A 
ATOM     13  C   UNL     1      43.512   4.097  13.127  0.00  0.00    +0.000 A 
ATOM     14  C   UNL     1      44.049   5.334  12.773  0.00  0.00    +0.000 A 
ATOM     15  C   UNL     1      44.572   5.550  11.486  0.00  0.00    +0.000 A 
BRANCH  10  17
ATOM     16  C   UNL     1      45.009   3.751   8.343  0.00  0.00    +0.000 C 
ATOM     17  O   UNL     1      45.161   4.748   9.346  0.00  0.00    +0.000 OA
ENDBRANCH  10  17
ENDBRANCH   9  15
ENDBRANCH   8   9
ENDBRANCH   7   8
ENDBRANCH   1   7
BRANCH   4  18
ATOM     18  C   UNL     1      49.651   7.728  17.265  0.00  0.00    +0.000 C 
BRANCH  18  19
ATOM     19  N   UNL     1      50.757   6.784  17.426  0.00  0.00    +0.000 N 
ATOM     20  C   UNL     1      51.776   6.714  16.388  0.00  0.00    +0.000 C 
ATOM     21  C   UNL     1      50.577   5.789  18.412  0.00  0.00    +0.000 C 
ATOM     22  O   UNL     1      49.559   5.774  19.105  0.00  0.00    +0.000 OA
BRANCH  21  23
ATOM     23  C   UNL     1      51.639   4.797  18.636  0.00  0.00    +0.000 A 
ATOM     24  C   UNL     1      52.763   4.964  19.436  0.00  0.00    +0.000 A 
ATOM     25  N   UNL     1      53.498   3.812  19.415  0.00  0.00    +0.000 N 
ATOM     26  C   UNL     1      52.836   2.858  18.702  0.00  0.00    +0.000 A 
ATOM     27  N   UNL     1      53.277   1.594  18.572  0.00  0.00    +0.000 NA
ATOM     28  C   UNL     1      52.462   0.828  17.819  0.00  0.00    +0.000 A 
ATOM     29  C   UNL     1      51.297   1.252  17.197  0.00  0.00    +0.000 A 
ATOM     30  C   UNL     1      50.889   2.585  17.356  0.00  0.00    +0.000 A 
ATOM     31  C   UNL     1      51.683   3.430  18.168  0.00  0.00    +0.000 A 
ATOM     32  H   UNL     1      54.377   3.647  19.881  0.00  0.00    +0.000 HD
BRANCH  30  33
ATOM     33  O   UNL     1      49.806   3.115  16.707  0.00  0.00    +0.000 OA
ATOM     34  C   UNL     1      48.539   2.816  17.289  0.00  0.00    +0.000 C 
ENDBRANCH  30  33
ENDBRANCH  21  23
ENDBRANCH  18  19
ENDBRANCH   4  18
TORSDOF 9
ENDMDL
MODEL 9
REMARK VINA RESULT:    -6.311      4.649      6.275
REMARK INTER + INTRA:         -10.809
REMARK INTER:                  -9.544
REMARK INTRA:                  -1.265
REMARK UNBOUND:                -1.178
REMARK  Name = 
REMARK  12 active torsions:
REMARK  status: ('A' for Active; 'I' for Inactive)
REMARK    1  A    between atoms: C_1  and  O_2
REMARK    2  A    between atoms: O_2  and  C_3
REMARK    3  A    between atoms: C_8  and  C_9
REMARK    4  A    between atoms: C_9  and  C_10
REMARK    5  A    between atoms: C_10  and  C_11
REMARK    6  A    between atoms: C_11  and  C_12
REMARK    7  A    between atoms: C_15  and  C_16
REMARK    8  A    between atoms: C_16  and  N_17
REMARK    9  A    between atoms: N_17  and  C_18
REMARK   10  A    between atoms: C_19  and  C_21
REMARK   11  A    between atoms: C_28  and  O_29
REMARK   12  A    between atoms: O_29  and  C_30
REMARK                            x       y       z     vdW  Elec       q    Type
REMARK                         _______ _______ _______ _____ _____    ______ ____
ROOT
ATOM      1  C   UNL     1      44.796   4.922  11.563  0.00  0.00    +0.000 A 
ATOM      2  C   UNL     1      44.515   6.277  11.352  0.00  0.00    +0.000 A 
ATOM      3  C   UNL     1      45.235   7.263  12.026  0.00  0.00    +0.000 A 
ATOM      4  C   UNL     1      46.233   6.921  12.953  0.00  0.00    +0.000 A 
ATOM      5  C   UNL     1      46.459   5.568  13.221  0.00  0.00    +0.000 A 
ATOM      6  C   UNL     1      45.753   4.577  12.529  0.00  0.00    +0.000 A 
ENDROOT
BRANCH   1   7
ATOM      7  C   UNL     1      44.127   3.865  10.710  0.00  0.00    +0.000 C 
BRANCH   7   8
ATOM      8  C   UNL     1      44.714   3.769   9.287  0.00  0.00    +0.000 C 
BRANCH   8   9
ATOM      9  C   UNL     1      45.417   2.429   9.040  0.00  0.00    +0.000 C 
BRANCH   9  15
ATOM     10  C   UNL     1      46.805   1.183   7.290  0.00  0.00    +0.000 A 
ATOM     11  C   UNL     1      47.541   1.203   6.100  0.00  0.00    +0.000 A 
ATOM     12  C   UNL     1      47.610   2.363   5.324  0.00  0.00    +0.000 A 
ATOM     13  C   UNL     1      46.925   3.506   5.719  0.00  0.00    +0.000 A 
ATOM     14  C   UNL     1      46.186   3.496   6.902  0.00  0.00    +0.000 A 
ATOM     15  C   UNL     1      46.135   2.346   7.710  0.00  0.00    +0.000 A 
BRANCH  10  17
ATOM     16  C   UNL     1      46.709  -1.188   7.451  0.00  0.00    +0.000 C 
ATOM     17  O   UNL     1      46.670   0.080   8.094  0.00  0.00    +0.000 OA
ENDBRANCH  10  17
ENDBRANCH   9  15
ENDBRANCH   8   9
ENDBRANCH   7   8
ENDBRANCH   1   7
BRANCH   4  18
ATOM     18  C   UNL     1      47.097   8.001  13.573  0.00  0.00    +0.000 C 
BRANCH  18  19
ATOM     19  N   UNL     1      48.224   8.500  12.783  0.00  0.00    +0.000 N 
ATOM     20  C   UNL     1      47.961   9.440  11.702  0.00  0.00    +0.000 C 
ATOM     21  C   UNL     1      49.434   7.784  12.918  0.00  0.00    +0.000 C 
ATOM     22  O   UNL     1      49.511   6.832  13.696  0.00  0.00    +0.000 OA
BRANCH  21  23
ATOM     23  C   UNL     1      50.614   8.217  12.157  0.00  0.00    +0.000 A 
ATOM     24  C   UNL     1      51.077   7.656  10.972  0.00  0.00    +0.000 A 
ATOM     25  N   UNL     1      52.177   8.351  10.553  0.00  0.00    +0.000 N 
ATOM     26  C   UNL     1      52.391   9.415  11.378  0.00  0.00    +0.000 A 
ATOM     27  N   UNL     1      53.357  10.328  11.171  0.00  0.00    +0.000 NA
ATOM     28  C   UNL     1      53.383  11.287  12.118  0.00  0.00    +0.000 A 
ATOM     29  C   UNL     1      52.547  11.360  13.223  0.00  0.00    +0.000 A 
ATOM     30  C   UNL     1      51.563  10.375  13.395  0.00  0.00    +0.000 A 
ATOM     31  C   UNL     1      51.460   9.361  12.414  0.00  0.00    +0.000 A 
ATOM     32  H   UNL     1      52.741   8.158   9.739  0.00  0.00    +0.000 HD
BRANCH  30  33
ATOM     33  O   UNL     1      50.755  10.315  14.500  0.00  0.00    +0.000 OA
ATOM     34  C   UNL     1      49.711  11.284  14.546  0.00  0.00    +0.000 C 
ENDBRANCH  30  33
ENDBRANCH  21  23
ENDBRANCH  18  19
ENDBRANCH   4  18
TORSDOF 9
ENDMDL
