MODEL 1
REMARK VINA RESULT:    -8.240      0.000      0.000
REMARK INTER + INTRA:         -11.313
REMARK INTER:                 -10.648
REMARK INTRA:                  -0.665
REMARK UNBOUND:                -0.665
REMARK  Name = 
REMARK  5 active torsions:
REMARK  status: ('A' for Active; 'I' for Inactive)
REMARK    1  A    between atoms: C_2  and  C_4
REMARK    2  A    between atoms: C_7  and  C_8
REMARK    3  A    between atoms: C_8  and  O_9
REMARK    4  A    between atoms: O_9  and  C_10
REMARK    5  A    between atoms: C_14  and  C_15
REMARK                            x       y       z     vdW  Elec       q    Type
REMARK                         _______ _______ _______ _____ _____    ______ ____
ROOT
ATOM      1  O   UNL     1      44.240   5.358  10.772  0.00  0.00    +0.000 OA
ENDROOT
BRANCH   1   2
ATOM      2  C   UNL     1      45.182   5.364  11.758  0.00  0.00    +0.000 A 
ATOM      3  C   UNL     1      44.969   4.523  12.840  0.00  0.00    +0.000 A 
ATOM      4  N   UNL     1      45.807   4.415  13.898  0.00  0.00    +0.000 NA
ATOM      5  C   UNL     1      46.914   5.193  13.879  0.00  0.00    +0.000 A 
ATOM      6  C   UNL     1      47.235   6.080  12.854  0.00  0.00    +0.000 A 
ATOM      7  C   UNL     1      46.335   6.140  11.781  0.00  0.00    +0.000 A 
BRANCH   6   8
ATOM      8  C   UNL     1      48.501   6.918  12.930  0.00  0.00    +0.000 C 
ATOM      9  C   UNL     1      48.851   7.402  14.347  0.00  0.00    +0.000 C 
ATOM     10  C   UNL     1      48.050   8.625  14.795  0.00  0.00    +0.000 C 
ATOM     11  N   UNL     1      48.057   9.715  13.820  0.00  0.00    +0.000 NA
ATOM     12  C   UNL     1      47.704   9.303  12.461  0.00  0.00    +0.000 C 
ATOM     13  C   UNL     1      48.515   8.109  11.962  0.00  0.00    +0.000 C 
ATOM     14  H   UNL     1      48.989  10.132  13.802  0.00  0.00    +0.000 HD
ENDBRANCH   6   8
ENDBRANCH   1   2
BRANCH   1  15
ATOM     15  C   UNL     1      43.768   4.081  10.323  0.00  0.00    +0.000 C 
BRANCH  15  19
ATOM     16  C   UNL     1      46.570   2.381   7.493  0.00  0.00    +0.000 A 
ATOM     17  C   UNL     1      45.881   1.549   8.380  0.00  0.00    +0.000 A 
ATOM     18  C   UNL     1      44.969   2.095   9.288  0.00  0.00    +0.000 A 
ATOM     19  C   UNL     1      44.747   3.480   9.338  0.00  0.00    +0.000 A 
ATOM     20  C   UNL     1      45.422   4.304   8.425  0.00  0.00    +0.000 A 
ATOM     21  C   UNL     1      46.336   3.760   7.516  0.00  0.00    +0.000 A 
BRANCH  16  23
ATOM     22  N   UNL     1      48.694   2.621   6.322  0.00  0.00    +0.000 N 
ATOM     23  C   UNL     1      47.587   1.849   6.548  0.00  0.00    +0.000 C 
ATOM     24  O   UNL     1      47.459   0.759   6.012  0.00  0.00    +0.000 OA
ATOM     25  H   UNL     1      49.413   2.216   5.738  0.00  0.00    +0.000 HD
ATOM     26  H   UNL     1      48.948   3.396   6.916  0.00  0.00    +0.000 HD
ENDBRANCH  16  23
ENDBRANCH  15  19
ENDBRANCH   1  15
TORSDOF 5
ENDMDL
MODEL 2
REMARK VINA RESULT:    -7.192      4.644      8.080
REMARK INTER + INTRA:          -9.959
REMARK INTER:                  -9.630
REMARK INTRA:                  -0.330
REMARK UNBOUND:                -0.665
REMARK  Name = 
REMARK  5 active torsions:
REMARK  status: ('A' for Active; 'I' for Inactive)
REMARK    1  A    between atoms: C_2  and  C_4
REMARK    2  A    between atoms: C_7  and  C_8
REMARK    3  A    between atoms: C_8  and  O_9
REMARK    4  A    between atoms: O_9  and  C_10
REMARK    5  A    between atoms: C_14  and  C_15
REMARK                            x       y       z     vdW  Elec       q    Type
REMARK                         _______ _______ _______ _____ _____    ______ ____
ROOT
ATOM      1  O   UNL     1      46.778   4.030  15.432  0.00  0.00    +0.000 OA
ENDROOT
BRANCH   1   2
ATOM      2  C   UNL     1      46.606   4.701  14.258  0.00  0.00    +0.000 A 
ATOM      3  C   UNL     1      47.540   5.675  13.944  0.00  0.00    +0.000 A 
ATOM      4  N   UNL     1      47.508   6.429  12.819  0.00  0.00    +0.000 NA
ATOM      5  C   UNL     1      46.484   6.202  11.964  0.00  0.00    +0.000 A 
ATOM      6  C   UNL     1      45.481   5.257  12.171  0.00  0.00    +0.000 A 
ATOM      7  C   UNL     1      45.575   4.500  13.347  0.00  0.00    +0.000 A 
BRANCH   6   8
ATOM      8  C   UNL     1      44.367   5.084  11.152  0.00  0.00    +0.000 C 
ATOM      9  C   UNL     1      43.153   4.298  11.674  0.00  0.00    +0.000 C 
ATOM     10  C   UNL     1      43.352   2.782  11.671  0.00  0.00    +0.000 C 
ATOM     11  N   UNL     1      43.840   2.263  10.394  0.00  0.00    +0.000 NA
ATOM     12  C   UNL     1      45.013   2.965   9.871  0.00  0.00    +0.000 C 
ATOM     13  C   UNL     1      44.834   4.481   9.820  0.00  0.00    +0.000 C 
ATOM     14  H   UNL     1      43.089   2.326   9.706  0.00  0.00    +0.000 HD
ENDBRANCH   6   8
ENDBRANCH   1   2
BRANCH   1  15
ATOM     15  C   UNL     1      47.507   4.699  16.470  0.00  0.00    +0.000 C 
BRANCH  15  19
ATOM     16  C   UNL     1      51.052   2.426  17.481  0.00  0.00    +0.000 A 
ATOM     17  C   UNL     1      51.022   3.807  17.694  0.00  0.00    +0.000 A 
ATOM     18  C   UNL     1      49.875   4.541  17.377  0.00  0.00    +0.000 A 
ATOM     19  C   UNL     1      48.750   3.911  16.824  0.00  0.00    +0.000 A 
ATOM     20  C   UNL     1      48.778   2.520  16.640  0.00  0.00    +0.000 A 
ATOM     21  C   UNL     1      49.924   1.784  16.956  0.00  0.00    +0.000 A 
BRANCH  16  23
ATOM     22  N   UNL     1      52.077   0.318  18.147  0.00  0.00    +0.000 N 
ATOM     23  C   UNL     1      52.267   1.616  17.755  0.00  0.00    +0.000 C 
ATOM     24  O   UNL     1      53.391   2.072  17.613  0.00  0.00    +0.000 OA
ATOM     25  H   UNL     1      52.910  -0.245  18.256  0.00  0.00    +0.000 HD
ATOM     26  H   UNL     1      51.194  -0.159  18.044  0.00  0.00    +0.000 HD
ENDBRANCH  16  23
ENDBRANCH  15  19
ENDBRANCH   1  15
TORSDOF 5
ENDMDL
MODEL 3
REMARK VINA RESULT:    -6.714      2.037      3.158
REMARK INTER + INTRA:          -9.341
REMARK INTER:                  -8.771
REMARK INTRA:                  -0.570
REMARK UNBOUND:                -0.665
REMARK  Name = 
REMARK  5 active torsions:
REMARK  status: ('A' for Active; 'I' for Inactive)
REMARK    1  A    between atoms: C_2  and  C_4
REMARK    2  A    between atoms: C_7  and  C_8
REMARK    3  A    between atoms: C_8  and  O_9
REMARK    4  A    between atoms: O_9  and  C_10
REMARK    5  A    between atoms: C_14  and  C_15
REMARK                            x       y       z     vdW  Elec       q    Type
REMARK                         _______ _______ _______ _____ _____    ______ ____
ROOT
ATOM      1  O   UNL     1      44.818   3.270  12.020  0.00  0.00    +0.000 OA
ENDROOT
BRANCH   1   2
ATOM      2  C   UNL     1      45.583   4.118  12.765  0.00  0.00    +0.000 A 
ATOM      3  C   UNL     1      45.454   5.474  12.508  0.00  0.00    +0.000 A 
ATOM      4  N   UNL     1      46.142   6.442  13.159  0.00  0.00    +0.000 NA
ATOM      5  C   UNL     1      47.011   6.035  14.112  0.00  0.00    +0.000 A 
ATOM      6  C   UNL     1      47.234   4.703  14.457  0.00  0.00    +0.000 A 
ATOM      7  C   UNL     1      46.484   3.748  13.757  0.00  0.00    +0.000 A 
BRANCH   6   8
ATOM      8  C   UNL     1      48.239   4.347  15.539  0.00  0.00    +0.000 C 
ATOM      9  C   UNL     1      47.963   3.006  16.238  0.00  0.00    +0.000 C 
ATOM     10  C   UNL     1      46.879   3.083  17.313  0.00  0.00    +0.000 C 
ATOM     11  N   UNL     1      47.081   4.173  18.266  0.00  0.00    +0.000 NA
ATOM     12  C   UNL     1      47.321   5.476  17.644  0.00  0.00    +0.000 C 
ATOM     13  C   UNL     1      48.430   5.446  16.594  0.00  0.00    +0.000 C 
ATOM     14  H   UNL     1      47.878   3.944  18.862  0.00  0.00    +0.000 HD
ENDBRANCH   6   8
ENDBRANCH   1   2
BRANCH   1  15
ATOM     15  C   UNL     1      44.241   3.791  10.816  0.00  0.00    +0.000 C 
BRANCH  15  19
ATOM     16  C   UNL     1      46.554   2.538   7.376  0.00  0.00    +0.000 A 
ATOM     17  C   UNL     1      46.004   1.582   8.234  0.00  0.00    +0.000 A 
ATOM     18  C   UNL     1      45.249   1.985   9.340  0.00  0.00    +0.000 A 
ATOM     19  C   UNL     1      45.051   3.346   9.616  0.00  0.00    +0.000 A 
ATOM     20  C   UNL     1      45.582   4.298   8.734  0.00  0.00    +0.000 A 
ATOM     21  C   UNL     1      46.338   3.898   7.627  0.00  0.00    +0.000 A 
BRANCH  16  23
ATOM     22  N   UNL     1      48.660   2.702   6.160  0.00  0.00    +0.000 N 
ATOM     23  C   UNL     1      47.406   2.156   6.219  0.00  0.00    +0.000 C 
ATOM     24  O   UNL     1      47.022   1.369   5.369  0.00  0.00    +0.000 OA
ATOM     25  H   UNL     1      49.257   2.376   5.412  0.00  0.00    +0.000 HD
ATOM     26  H   UNL     1      49.095   3.155   6.950  0.00  0.00    +0.000 HD
ENDBRANCH  16  23
ENDBRANCH  15  19
ENDBRANCH   1  15
TORSDOF 5
ENDMDL
MODEL 4
REMARK VINA RESULT:    -6.419      1.474      2.138
REMARK INTER + INTRA:          -8.960
REMARK INTER:                  -8.641
REMARK INTRA:                  -0.319
REMARK UNBOUND:                -0.665
REMARK  Name = 
REMARK  5 active torsions:
REMARK  status: ('A' for Active; 'I' for Inactive)
REMARK    1  A    between atoms: C_2  and  C_4
REMARK    2  A    between atoms: C_7  and  C_8
REMARK    3  A    between atoms: C_8  and  O_9
REMARK    4  A    between atoms: O_9  and  C_10
REMARK    5  A    between atoms: C_14  and  C_15
REMARK                            x       y       z     vdW  Elec       q    Type
REMARK                         _______ _______ _______ _____ _____    ______ ____
ROOT
ATOM      1  O   UNL     1      43.770   5.423  10.605  0.00  0.00    +0.000 OA
ENDROOT
BRANCH   1   2
ATOM      2  C   UNL     1      44.463   6.401  11.256  0.00  0.00    +0.000 A 
ATOM      3  C   UNL     1      43.992   7.698  11.131  0.00  0.00    +0.000 A 
ATOM      4  N   UNL     1      44.568   8.778  11.712  0.00  0.00    +0.000 NA
ATOM      5  C   UNL     1      45.677   8.551  12.453  0.00  0.00    +0.000 A 
ATOM      6  C   UNL     1      46.249   7.295  12.648  0.00  0.00    +0.000 A 
ATOM      7  C   UNL     1      45.602   6.216  12.031  0.00  0.00    +0.000 A 
BRANCH   6   8
ATOM      8  C   UNL     1      47.504   7.146  13.493  0.00  0.00    +0.000 C 
ATOM      9  C   UNL     1      47.895   8.414  14.269  0.00  0.00    +0.000 C 
ATOM     10  C   UNL     1      48.626   9.455  13.421  0.00  0.00    +0.000 C 
ATOM     11  N   UNL     1      49.747   8.902  12.661  0.00  0.00    +0.000 NA
ATOM     12  C   UNL     1      49.412   7.707  11.885  0.00  0.00    +0.000 C 
ATOM     13  C   UNL     1      48.718   6.627  12.711  0.00  0.00    +0.000 C 
ATOM     14  H   UNL     1      50.500   8.670  13.310  0.00  0.00    +0.000 HD
ENDBRANCH   6   8
ENDBRANCH   1   2
BRANCH   1  15
ATOM     15  C   UNL     1      44.182   4.068  10.826  0.00  0.00    +0.000 C 
BRANCH  15  19
ATOM     16  C   UNL     1      46.466   2.616   7.445  0.00  0.00    +0.000 A 
ATOM     17  C   UNL     1      46.333   3.990   7.660  0.00  0.00    +0.000 A 
ATOM     18  C   UNL     1      45.604   4.461   8.757  0.00  0.00    +0.000 A 
ATOM     19  C   UNL     1      44.980   3.567   9.641  0.00  0.00    +0.000 A 
ATOM     20  C   UNL     1      45.143   2.190   9.434  0.00  0.00    +0.000 A 
ATOM     21  C   UNL     1      45.871   1.717   8.337  0.00  0.00    +0.000 A 
BRANCH  16  23
ATOM     22  N   UNL     1      47.877   2.966   5.490  0.00  0.00    +0.000 N 
ATOM     23  C   UNL     1      47.187   2.073   6.265  0.00  0.00    +0.000 C 
ATOM     24  O   UNL     1      47.192   0.880   6.006  0.00  0.00    +0.000 OA
ATOM     25  H   UNL     1      48.425   2.576   4.735  0.00  0.00    +0.000 HD
ATOM     26  H   UNL     1      48.094   3.902   5.798  0.00  0.00    +0.000 HD
ENDBRANCH  16  23
ENDBRANCH  15  19
ENDBRANCH   1  15
TORSDOF 5
ENDMDL
MODEL 5
REMARK VINA RESULT:    -6.266      3.554      6.187
REMARK INTER + INTRA:          -8.763
REMARK INTER:                  -8.133
REMARK INTRA:                  -0.630
REMARK UNBOUND:                -0.665
REMARK  Name = 
REMARK  5 active torsions:
REMARK  status: ('A' for Active; 'I' for Inactive)
REMARK    1  A    between atoms: C_2  and  C_4
REMARK    2  A    between atoms: C_7  and  C_8
REMARK    3  A    between atoms: C_8  and  O_9
REMARK    4  A    between atoms: O_9  and  C_10
REMARK    5  A    between atoms: C_14  and  C_15
REMARK                            x       y       z     vdW  Elec       q    Type
REMARK                         _______ _______ _______ _____ _____    ______ ____
ROOT
ATOM      1  O   UNL     1      48.004   7.325  14.446  0.00  0.00    +0.000 OA
ENDROOT
BRANCH   1   2
ATOM      2  C   UNL     1      49.002   6.882  15.261  0.00  0.00    +0.000 A 
ATOM      3  C   UNL     1      50.257   7.443  15.086  0.00  0.00    +0.000 A 
ATOM      4  N   UNL     1      51.350   7.109  15.813  0.00  0.00    +0.000 NA
ATOM      5  C   UNL     1      51.183   6.159  16.761  0.00  0.00    +0.000 A 
ATOM      6  C   UNL     1      49.975   5.518  17.029  0.00  0.00    +0.000 A 
ATOM      7  C   UNL     1      48.877   5.913  16.251  0.00  0.00    +0.000 A 
BRANCH   6   8
ATOM      8  C   UNL     1      49.892   4.456  18.112  0.00  0.00    +0.000 C 
ATOM      9  C   UNL     1      51.205   3.691  18.346  0.00  0.00    +0.000 C 
ATOM     10  C   UNL     1      51.465   2.585  17.323  0.00  0.00    +0.000 C 
ATOM     11  N   UNL     1      50.326   1.686  17.137  0.00  0.00    +0.000 NA
ATOM     12  C   UNL     1      49.058   2.372  16.885  0.00  0.00    +0.000 C 
ATOM     13  C   UNL     1      48.744   3.456  17.913  0.00  0.00    +0.000 C 
ATOM     14  H   UNL     1      50.224   1.109  17.972  0.00  0.00    +0.000 HD
ENDBRANCH   6   8
ENDBRANCH   1   2
BRANCH   1  15
ATOM     15  C   UNL     1      48.131   7.053  13.044  0.00  0.00    +0.000 C 
BRANCH  15  19
ATOM     16  C   UNL     1      45.134   4.180  11.816  0.00  0.00    +0.000 A 
ATOM     17  C   UNL     1      45.339   5.340  11.065  0.00  0.00    +0.000 A 
ATOM     18  C   UNL     1      46.313   6.264  11.454  0.00  0.00    +0.000 A 
ATOM     19  C   UNL     1      47.080   6.054  12.610  0.00  0.00    +0.000 A 
ATOM     20  C   UNL     1      46.887   4.873  13.342  0.00  0.00    +0.000 A 
ATOM     21  C   UNL     1      45.913   3.947  12.954  0.00  0.00    +0.000 A 
BRANCH  16  23
ATOM     22  N   UNL     1      43.627   2.379  12.470  0.00  0.00    +0.000 N 
ATOM     23  C   UNL     1      44.075   3.196  11.467  0.00  0.00    +0.000 C 
ATOM     24  O   UNL     1      43.600   3.133  10.344  0.00  0.00    +0.000 OA
ATOM     25  H   UNL     1      42.855   1.768  12.241  0.00  0.00    +0.000 HD
ATOM     26  H   UNL     1      43.816   2.559  13.445  0.00  0.00    +0.000 HD
ENDBRANCH  16  23
ENDBRANCH  15  19
ENDBRANCH   1  15
TORSDOF 5
ENDMDL
MODEL 6
REMARK VINA RESULT:    -6.218      4.553      9.076
REMARK INTER + INTRA:          -8.701
REMARK INTER:                  -8.342
REMARK INTRA:                  -0.358
REMARK UNBOUND:                -0.665
REMARK  Name = 
REMARK  5 active torsions:
REMARK  status: ('A' for Active; 'I' for Inactive)
REMARK    1  A    between atoms: C_2  and  C_4
REMARK    2  A    between atoms: C_7  and  C_8
REMARK    3  A    between atoms: C_8  and  O_9
REMARK    4  A    between atoms: O_9  and  C_10
REMARK    5  A    between atoms: C_14  and  C_15
REMARK                            x       y       z     vdW  Elec       q    Type
REMARK                         _______ _______ _______ _____ _____    ______ ____
ROOT
ATOM      1  O   UNL     1      47.759   5.181  14.845  0.00  0.00    +0.000 OA
ENDROOT
BRANCH   1   2
ATOM      2  C   UNL     1      47.153   5.555  13.683  0.00  0.00    +0.000 A 
ATOM      3  C   UNL     1      47.873   6.376  12.830  0.00  0.00    +0.000 A 
ATOM      4  N   UNL     1      47.411   6.835  11.642  0.00  0.00    +0.000 NA
ATOM      5  C   UNL     1      46.161   6.458  11.289  0.00  0.00    +0.000 A 
ATOM      6  C   UNL     1      45.337   5.642  12.062  0.00  0.00    +0.000 A 
ATOM      7  C   UNL     1      45.874   5.190  13.276  0.00  0.00    +0.000 A 
BRANCH   6   8
ATOM      8  C   UNL     1      43.941   5.282  11.580  0.00  0.00    +0.000 C 
ATOM      9  C   UNL     1      43.163   4.363  12.536  0.00  0.00    +0.000 C 
ATOM     10  C   UNL     1      43.551   2.888  12.425  0.00  0.00    +0.000 C 
ATOM     11  N   UNL     1      43.547   2.388  11.050  0.00  0.00    +0.000 NA
ATOM     12  C   UNL     1      44.299   3.219  10.109  0.00  0.00    +0.000 C 
ATOM     13  C   UNL     1      43.908   4.694  10.163  0.00  0.00    +0.000 C 
ATOM     14  H   UNL     1      42.581   2.323  10.728  0.00  0.00    +0.000 HD
ENDBRANCH   6   8
ENDBRANCH   1   2
BRANCH   1  15
ATOM     15  C   UNL     1      48.555   6.167  15.516  0.00  0.00    +0.000 C 
BRANCH  15  19
ATOM     16  C   UNL     1      48.913   5.158  19.713  0.00  0.00    +0.000 A 
ATOM     17  C   UNL     1      48.752   6.491  19.325  0.00  0.00    +0.000 A 
ATOM     18  C   UNL     1      48.626   6.817  17.972  0.00  0.00    +0.000 A 
ATOM     19  C   UNL     1      48.682   5.821  16.985  0.00  0.00    +0.000 A 
ATOM     20  C   UNL     1      48.815   4.483  17.385  0.00  0.00    +0.000 A 
ATOM     21  C   UNL     1      48.942   4.154  18.738  0.00  0.00    +0.000 A 
BRANCH  16  23
ATOM     22  N   UNL     1      50.390   4.646  21.582  0.00  0.00    +0.000 N 
ATOM     23  C   UNL     1      49.102   4.772  21.136  0.00  0.00    +0.000 C 
ATOM     24  O   UNL     1      48.155   4.600  21.887  0.00  0.00    +0.000 OA
ATOM     25  H   UNL     1      50.507   4.458  22.569  0.00  0.00    +0.000 HD
ATOM     26  H   UNL     1      51.182   5.007  21.072  0.00  0.00    +0.000 HD
ENDBRANCH  16  23
ENDBRANCH  15  19
ENDBRANCH   1  15
TORSDOF 5
ENDMDL
MODEL 7
REMARK VINA RESULT:    -6.163      2.694      3.579
REMARK INTER + INTRA:          -8.629
REMARK INTER:                  -8.237
REMARK INTRA:                  -0.392
REMARK UNBOUND:                -0.665
REMARK  Name = 
REMARK  5 active torsions:
REMARK  status: ('A' for Active; 'I' for Inactive)
REMARK    1  A    between atoms: C_2  and  C_4
REMARK    2  A    between atoms: C_7  and  C_8
REMARK    3  A    between atoms: C_8  and  O_9
REMARK    4  A    between atoms: O_9  and  C_10
REMARK    5  A    between atoms: C_14  and  C_15
REMARK                            x       y       z     vdW  Elec       q    Type
REMARK                         _______ _______ _______ _____ _____    ______ ____
ROOT
ATOM      1  O   UNL     1      43.610   5.507  10.644  0.00  0.00    +0.000 OA
ENDROOT
BRANCH   1   2
ATOM      2  C   UNL     1      44.181   6.568  11.282  0.00  0.00    +0.000 A 
ATOM      3  C   UNL     1      45.223   6.295  12.154  0.00  0.00    +0.000 A 
ATOM      4  N   UNL     1      45.892   7.236  12.862  0.00  0.00    +0.000 NA
ATOM      5  C   UNL     1      45.493   8.518  12.697  0.00  0.00    +0.000 A 
ATOM      6  C   UNL     1      44.457   8.918  11.857  0.00  0.00    +0.000 A 
ATOM      7  C   UNL     1      43.810   7.901  11.141  0.00  0.00    +0.000 A 
BRANCH   6   8
ATOM      8  C   UNL     1      44.079  10.387  11.747  0.00  0.00    +0.000 C 
ATOM      9  C   UNL     1      43.190  10.719  10.537  0.00  0.00    +0.000 C 
ATOM     10  C   UNL     1      43.960  10.848   9.223  0.00  0.00    +0.000 C 
ATOM     11  N   UNL     1      45.123  11.731   9.315  0.00  0.00    +0.000 NA
ATOM     12  C   UNL     1      46.012  11.434  10.438  0.00  0.00    +0.000 C 
ATOM     13  C   UNL     1      45.283  11.339  11.776  0.00  0.00    +0.000 C 
ATOM     14  H   UNL     1      44.796  12.695   9.404  0.00  0.00    +0.000 HD
ENDBRANCH   6   8
ENDBRANCH   1   2
BRANCH   1  15
ATOM     15  C   UNL     1      44.183   4.214  10.879  0.00  0.00    +0.000 C 
BRANCH  15  19
ATOM     16  C   UNL     1      46.513   2.953   7.454  0.00  0.00    +0.000 A 
ATOM     17  C   UNL     1      46.331   4.314   7.713  0.00  0.00    +0.000 A 
ATOM     18  C   UNL     1      45.587   4.723   8.824  0.00  0.00    +0.000 A 
ATOM     19  C   UNL     1      44.997   3.780   9.679  0.00  0.00    +0.000 A 
ATOM     20  C   UNL     1      45.209   2.416   9.428  0.00  0.00    +0.000 A 
ATOM     21  C   UNL     1      45.952   2.005   8.317  0.00  0.00    +0.000 A 
BRANCH  16  23
ATOM     22  N   UNL     1      48.620   2.455   6.333  0.00  0.00    +0.000 N 
ATOM     23  C   UNL     1      47.253   2.474   6.257  0.00  0.00    +0.000 C 
ATOM     24  O   UNL     1      46.673   2.087   5.255  0.00  0.00    +0.000 OA
ATOM     25  H   UNL     1      49.108   2.057   5.543  0.00  0.00    +0.000 HD
ATOM     26  H   UNL     1      49.118   2.535   7.207  0.00  0.00    +0.000 HD
ENDBRANCH  16  23
ENDBRANCH  15  19
ENDBRANCH   1  15
TORSDOF 5
ENDMDL
MODEL 8
REMARK VINA RESULT:    -6.056      3.811      8.553
REMARK INTER + INTRA:          -8.491
REMARK INTER:                  -8.021
REMARK INTRA:                  -0.471
REMARK UNBOUND:                -0.665
REMARK  Name = 
REMARK  5 active torsions:
REMARK  status: ('A' for Active; 'I' for Inactive)
REMARK    1  A    between atoms: C_2  and  C_4
REMARK    2  A    between atoms: C_7  and  C_8
REMARK    3  A    between atoms: C_8  and  O_9
REMARK    4  A    between atoms: O_9  and  C_10
REMARK    5  A    between atoms: C_14  and  C_15
REMARK                            x       y       z     vdW  Elec       q    Type
REMARK                         _______ _______ _______ _____ _____    ______ ____
ROOT
ATOM      1  O   UNL     1      45.989   3.900  14.079  0.00  0.00    +0.000 OA
ENDROOT
BRANCH   1   2
ATOM      2  C   UNL     1      45.788   4.399  12.826  0.00  0.00    +0.000 A 
ATOM      3  C   UNL     1      46.225   5.691  12.584  0.00  0.00    +0.000 A 
ATOM      4  N   UNL     1      46.097   6.330  11.396  0.00  0.00    +0.000 NA
ATOM      5  C   UNL     1      45.494   5.643  10.398  0.00  0.00    +0.000 A 
ATOM      6  C   UNL     1      45.008   4.343  10.520  0.00  0.00    +0.000 A 
ATOM      7  C   UNL     1      45.179   3.731  11.770  0.00  0.00    +0.000 A 
BRANCH   6   8
ATOM      8  C   UNL     1      44.337   3.659   9.340  0.00  0.00    +0.000 C 
ATOM      9  C   UNL     1      44.457   2.127   9.349  0.00  0.00    +0.000 C 
ATOM     10  C   UNL     1      45.805   1.611   8.844  0.00  0.00    +0.000 C 
ATOM     11  N   UNL     1      46.207   2.191   7.563  0.00  0.00    +0.000 NA
ATOM     12  C   UNL     1      46.133   3.652   7.518  0.00  0.00    +0.000 C 
ATOM     13  C   UNL     1      44.784   4.201   7.975  0.00  0.00    +0.000 C 
ATOM     14  H   UNL     1      45.607   1.811   6.829  0.00  0.00    +0.000 HD
ENDBRANCH   6   8
ENDBRANCH   1   2
BRANCH   1  15
ATOM     15  C   UNL     1      47.330   3.532  14.431  0.00  0.00    +0.000 C 
BRANCH  15  19
ATOM     16  C   UNL     1      48.170   4.716  18.511  0.00  0.00    +0.000 A 
ATOM     17  C   UNL     1      48.337   5.632  17.469  0.00  0.00    +0.000 A 
ATOM     18  C   UNL     1      48.057   5.254  16.153  0.00  0.00    +0.000 A 
ATOM     19  C   UNL     1      47.627   3.952  15.855  0.00  0.00    +0.000 A 
ATOM     20  C   UNL     1      47.434   3.048  16.911  0.00  0.00    +0.000 A 
ATOM     21  C   UNL     1      47.714   3.423  18.228  0.00  0.00    +0.000 A 
BRANCH  16  23
ATOM     22  N   UNL     1      49.241   4.146  20.625  0.00  0.00    +0.000 N 
ATOM     23  C   UNL     1      48.505   5.059  19.918  0.00  0.00    +0.000 C 
ATOM     24  O   UNL     1      48.165   6.118  20.421  0.00  0.00    +0.000 OA
ATOM     25  H   UNL     1      49.527   4.423  21.554  0.00  0.00    +0.000 HD
ATOM     26  H   UNL     1      49.737   3.387  20.183  0.00  0.00    +0.000 HD
ENDBRANCH  16  23
ENDBRANCH  15  19
ENDBRANCH   1  15
TORSDOF 5
ENDMDL
MODEL 9
REMARK VINA RESULT:    -5.852      3.453      7.544
REMARK INTER + INTRA:          -8.227
REMARK INTER:                  -7.963
REMARK INTRA:                  -0.264
REMARK UNBOUND:                -0.665
REMARK  Name = 
REMARK  5 active torsions:
REMARK  status: ('A' for Active; 'I' for Inactive)
REMARK    1  A    between atoms: C_2  and  C_4
REMARK    2  A    between atoms: C_7  and  C_8
REMARK    3  A    between atoms: C_8  and  O_9
REMARK    4  A    between atoms: O_9  and  C_10
REMARK    5  A    between atoms: C_14  and  C_15
REMARK                            x       y       z     vdW  Elec       q    Type
REMARK                         _______ _______ _______ _____ _____    ______ ____
ROOT
ATOM      1  O   UNL     1      47.993   7.845  11.850  0.00  0.00    +0.000 OA
ENDROOT
BRANCH   1   2
ATOM      2  C   UNL     1      47.466   6.797  12.545  0.00  0.00    +0.000 A 
ATOM      3  C   UNL     1      48.123   6.412  13.703  0.00  0.00    +0.000 A 
ATOM      4  N   UNL     1      47.727   5.392  14.502  0.00  0.00    +0.000 NA
ATOM      5  C   UNL     1      46.619   4.716  14.120  0.00  0.00    +0.000 A 
ATOM      6  C   UNL     1      45.877   5.003  12.976  0.00  0.00    +0.000 A 
ATOM      7  C   UNL     1      46.329   6.076  12.196  0.00  0.00    +0.000 A 
BRANCH   6   8
ATOM      8  C   UNL     1      44.649   4.176  12.629  0.00  0.00    +0.000 C 
ATOM      9  C   UNL     1      44.738   3.456  11.274  0.00  0.00    +0.000 C 
ATOM     10  C   UNL     1      44.434   4.357  10.077  0.00  0.00    +0.000 C 
ATOM     11  N   UNL     1      43.192   5.117  10.221  0.00  0.00    +0.000 NA
ATOM     12  C   UNL     1      43.077   5.840  11.487  0.00  0.00    +0.000 C 
ATOM     13  C   UNL     1      43.332   4.961  12.709  0.00  0.00    +0.000 C 
ATOM     14  H   UNL     1      42.403   4.473  10.139  0.00  0.00    +0.000 HD
ENDBRANCH   6   8
ENDBRANCH   1   2
BRANCH   1  15
ATOM     15  C   UNL     1      48.035   9.116  12.511  0.00  0.00    +0.000 C 
BRANCH  15  19
ATOM     16  C   UNL     1      44.707  11.564  11.213  0.00  0.00    +0.000 A 
ATOM     17  C   UNL     1      46.017  11.962  10.934  0.00  0.00    +0.000 A 
ATOM     18  C   UNL     1      47.093  11.168  11.344  0.00  0.00    +0.000 A 
ATOM     19  C   UNL     1      46.876   9.978  12.056  0.00  0.00    +0.000 A 
ATOM     20  C   UNL     1      45.557   9.572  12.306  0.00  0.00    +0.000 A 
ATOM     21  C   UNL     1      44.480  10.365  11.898  0.00  0.00    +0.000 A 
BRANCH  16  23
ATOM     22  N   UNL     1      42.778  12.904  11.865  0.00  0.00    +0.000 N 
ATOM     23  C   UNL     1      43.537  12.403  10.842  0.00  0.00    +0.000 C 
ATOM     24  O   UNL     1      43.274  12.661   9.678  0.00  0.00    +0.000 OA
ATOM     25  H   UNL     1      42.032  13.534  11.604  0.00  0.00    +0.000 HD
ATOM     26  H   UNL     1      43.095  12.916  12.823  0.00  0.00    +0.000 HD
ENDBRANCH  16  23
ENDBRANCH  15  19
ENDBRANCH   1  15
TORSDOF 5
ENDMDL
