MODEL 1
REMARK VINA RESULT:    -8.003      0.000      0.000
REMARK INTER + INTRA:         -12.285
REMARK INTER:                 -11.278
REMARK INTRA:                  -1.007
REMARK UNBOUND:                -1.007
REMARK  Name = 
REMARK  8 active torsions:
REMARK  status: ('A' for Active; 'I' for Inactive)
REMARK    1  A    between atoms: C_1  and  O_2
REMARK    2  A    between atoms: O_2  and  C_3
REMARK    3  A    between atoms: C_7  and  C_8
REMARK    4  A    between atoms: C_8  and  O_9
REMARK    5  A    between atoms: O_9  and  C_10
REMARK    6  A    between atoms: C_13  and  C_14
REMARK    7  A    between atoms: C_14  and  N_15
REMARK    8  A    between atoms: C_16  and  C_18
REMARK                            x       y       z     vdW  Elec       q    Type
REMARK                         _______ _______ _______ _____ _____    ______ ____
ROOT
ATOM      1  C   UNL     1      44.927   5.115  11.941  0.00  0.00    +0.000 A 
ATOM      2  C   UNL     1      45.523   4.374  12.964  0.00  0.00    +0.000 A 
ATOM      3  C   UNL     1      46.643   4.868  13.632  0.00  0.00    +0.000 A 
ATOM      4  C   UNL     1      47.198   6.099  13.259  0.00  0.00    +0.000 A 
ATOM      5  C   UNL     1      46.599   6.818  12.224  0.00  0.00    +0.000 A 
ATOM      6  F   UNL     1      47.107   8.001  11.850  0.00  0.00    +0.000 F 
ATOM      7  C   UNL     1      45.480   6.335  11.556  0.00  0.00    +0.000 A 
ENDROOT
BRANCH   1   8
ATOM      8  O   UNL     1      43.819   4.547  11.373  0.00  0.00    +0.000 OA
BRANCH   8   9
ATOM      9  C   UNL     1      43.704   4.744   9.961  0.00  0.00    +0.000 C 
BRANCH   9  14
ATOM     10  C   UNL     1      46.005   3.453   7.408  0.00  0.00    +0.000 A 
ATOM     11  C   UNL     1      46.150   2.106   7.697  0.00  0.00    +0.000 A 
ATOM     12  C   UNL     1      45.465   1.590   8.791  0.00  0.00    +0.000 A 
ATOM     13  C   UNL     1      44.667   2.434   9.554  0.00  0.00    +0.000 A 
ATOM     14  C   UNL     1      44.589   3.780   9.206  0.00  0.00    +0.000 A 
ATOM     15  N   UNL     1      45.238   4.293   8.130  0.00  0.00    +0.000 NA
BRANCH  10  17
ATOM     16  C   UNL     1      47.095   2.897   5.421  0.00  0.00    +0.000 C 
ATOM     17  O   UNL     1      46.698   3.932   6.316  0.00  0.00    +0.000 OA
ENDBRANCH  10  17
ENDBRANCH   9  14
ENDBRANCH   8   9
ENDBRANCH   1   8
BRANCH   4  18
ATOM     18  C   UNL     1      48.393   6.653  13.974  0.00  0.00    +0.000 C 
BRANCH  18  19
ATOM     19  N   UNL     1      48.149   6.789  15.388  0.00  0.00    +0.000 N 
ATOM     20  C   UNL     1      49.106   6.515  16.329  0.00  0.00    +0.000 C 
ATOM     21  O   UNL     1      50.233   6.129  16.027  0.00  0.00    +0.000 OA
ATOM     22  H   UNL     1      47.183   6.907  15.673  0.00  0.00    +0.000 HD
BRANCH  20  23
ATOM     23  C   UNL     1      48.742   6.787  17.726  0.00  0.00    +0.000 A 
ATOM     24  C   UNL     1      48.434   8.085  18.110  0.00  0.00    +0.000 A 
ATOM     25  S   UNL     1      47.973   8.224  19.744  0.00  0.00    +0.000 S 
ATOM     26  C   UNL     1      48.213   6.560  20.010  0.00  0.00    +0.000 A 
ATOM     27  N   UNL     1      48.005   6.013  21.237  0.00  0.00    +0.000 NA
ATOM     28  C   UNL     1      48.257   4.748  21.306  0.00  0.00    +0.000 A 
ATOM     29  N   UNL     1      48.693   3.980  20.257  0.00  0.00    +0.000 N 
ATOM     30  C   UNL     1      48.876   4.482  18.990  0.00  0.00    +0.000 A 
ATOM     31  O   UNL     1      49.199   3.755  18.057  0.00  0.00    +0.000 OA
ATOM     32  C   UNL     1      48.626   5.906  18.863  0.00  0.00    +0.000 A 
ATOM     33  H   UNL     1      48.860   2.992  20.375  0.00  0.00    +0.000 HD
ENDBRANCH  20  23
ENDBRANCH  18  19
ENDBRANCH   4  18
TORSDOF 7
ENDMDL
MODEL 2
REMARK VINA RESULT:    -7.666      1.951      2.780
REMARK INTER + INTRA:         -11.810
REMARK INTER:                 -10.750
REMARK INTRA:                  -1.060
REMARK UNBOUND:                -1.007
REMARK  Name = 
REMARK  8 active torsions:
REMARK  status: ('A' for Active; 'I' for Inactive)
REMARK    1  A    between atoms: C_1  and  O_2
REMARK    2  A    between atoms: O_2  and  C_3
REMARK    3  A    between atoms: C_7  and  C_8
REMARK    4  A    between atoms: C_8  and  O_9
REMARK    5  A    between atoms: O_9  and  C_10
REMARK    6  A    between atoms: C_13  and  C_14
REMARK    7  A    between atoms: C_14  and  N_15
REMARK    8  A    between atoms: C_16  and  C_18
REMARK                            x       y       z     vdW  Elec       q    Type
REMARK                         _______ _______ _______ _____ _____    ______ ____
ROOT
ATOM      1  C   UNL     1      45.072   4.826  12.035  0.00  0.00    +0.000 A 
ATOM      2  C   UNL     1      45.504   6.140  11.845  0.00  0.00    +0.000 A 
ATOM      3  C   UNL     1      46.575   6.643  12.583  0.00  0.00    +0.000 A 
ATOM      4  C   UNL     1      47.203   5.843  13.545  0.00  0.00    +0.000 A 
ATOM      5  C   UNL     1      46.746   4.538  13.734  0.00  0.00    +0.000 A 
ATOM      6  F   UNL     1      47.334   3.749  14.645  0.00  0.00    +0.000 F 
ATOM      7  C   UNL     1      45.683   4.026  12.998  0.00  0.00    +0.000 A 
ENDROOT
BRANCH   1   8
ATOM      8  O   UNL     1      44.033   4.429  11.238  0.00  0.00    +0.000 OA
BRANCH   8   9
ATOM      9  C   UNL     1      44.154   3.103  10.714  0.00  0.00    +0.000 C 
BRANCH   9  14
ATOM     10  C   UNL     1      46.227   1.859   7.950  0.00  0.00    +0.000 A 
ATOM     11  C   UNL     1      46.529   2.978   7.191  0.00  0.00    +0.000 A 
ATOM     12  C   UNL     1      46.022   4.206   7.596  0.00  0.00    +0.000 A 
ATOM     13  C   UNL     1      45.234   4.272   8.739  0.00  0.00    +0.000 A 
ATOM     14  C   UNL     1      44.963   3.098   9.438  0.00  0.00    +0.000 A 
ATOM     15  N   UNL     1      45.466   1.895   9.062  0.00  0.00    +0.000 NA
BRANCH  10  17
ATOM     16  C   UNL     1      47.356   0.751   6.235  0.00  0.00    +0.000 C 
ATOM     17  O   UNL     1      46.746   0.656   7.518  0.00  0.00    +0.000 OA
ENDBRANCH  10  17
ENDBRANCH   9  14
ENDBRANCH   8   9
ENDBRANCH   1   8
BRANCH   4  18
ATOM     18  C   UNL     1      48.364   6.362  14.340  0.00  0.00    +0.000 C 
BRANCH  18  19
ATOM     19  N   UNL     1      48.023   6.525  15.731  0.00  0.00    +0.000 N 
ATOM     20  C   UNL     1      48.768   5.976  16.741  0.00  0.00    +0.000 C 
ATOM     21  O   UNL     1      49.773   5.303  16.523  0.00  0.00    +0.000 OA
ATOM     22  H   UNL     1      47.100   6.896  15.931  0.00  0.00    +0.000 HD
BRANCH  20  23
ATOM     23  C   UNL     1      48.350   6.303  18.110  0.00  0.00    +0.000 A 
ATOM     24  C   UNL     1      48.265   5.292  19.057  0.00  0.00    +0.000 A 
ATOM     25  S   UNL     1      47.827   5.842  20.609  0.00  0.00    +0.000 S 
ATOM     26  C   UNL     1      47.691   7.447  20.061  0.00  0.00    +0.000 A 
ATOM     27  N   UNL     1      47.322   8.445  20.908  0.00  0.00    +0.000 NA
ATOM     28  C   UNL     1      47.225   9.607  20.353  0.00  0.00    +0.000 A 
ATOM     29  N   UNL     1      47.469   9.862  19.029  0.00  0.00    +0.000 N 
ATOM     30  C   UNL     1      47.883   8.894  18.146  0.00  0.00    +0.000 A 
ATOM     31  O   UNL     1      48.162   9.168  16.983  0.00  0.00    +0.000 OA
ATOM     32  C   UNL     1      47.989   7.563  18.714  0.00  0.00    +0.000 A 
ATOM     33  H   UNL     1      47.386  10.798  18.659  0.00  0.00    +0.000 HD
ENDBRANCH  20  23
ENDBRANCH  18  19
ENDBRANCH   4  18
TORSDOF 7
ENDMDL
MODEL 3
REMARK VINA RESULT:    -7.352      1.766      2.234
REMARK INTER + INTRA:         -11.368
REMARK INTER:                 -10.382
REMARK INTRA:                  -0.986
REMARK UNBOUND:                -1.007
REMARK  Name = 
REMARK  8 active torsions:
REMARK  status: ('A' for Active; 'I' for Inactive)
REMARK    1  A    between atoms: C_1  and  O_2
REMARK    2  A    between atoms: O_2  and  C_3
REMARK    3  A    between atoms: C_7  and  C_8
REMARK    4  A    between atoms: C_8  and  O_9
REMARK    5  A    between atoms: O_9  and  C_10
REMARK    6  A    between atoms: C_13  and  C_14
REMARK    7  A    between atoms: C_14  and  N_15
REMARK    8  A    between atoms: C_16  and  C_18
REMARK                            x       y       z     vdW  Elec       q    Type
REMARK                         _______ _______ _______ _____ _____    ______ ____
ROOT
ATOM      1  C   UNL     1      45.048   6.237  11.422  0.00  0.00    +0.000 A 
ATOM      2  C   UNL     1      44.632   7.486  11.889  0.00  0.00    +0.000 A 
ATOM      3  C   UNL     1      45.478   8.259  12.683  0.00  0.00    +0.000 A 
ATOM      4  C   UNL     1      46.741   7.774  13.045  0.00  0.00    +0.000 A 
ATOM      5  C   UNL     1      47.133   6.517  12.583  0.00  0.00    +0.000 A 
ATOM      6  F   UNL     1      48.339   6.031  12.911  0.00  0.00    +0.000 F 
ATOM      7  C   UNL     1      46.298   5.742  11.787  0.00  0.00    +0.000 A 
ENDROOT
BRANCH   1   8
ATOM      8  O   UNL     1      44.149   5.577  10.629  0.00  0.00    +0.000 OA
BRANCH   8   9
ATOM      9  C   UNL     1      44.259   4.151  10.660  0.00  0.00    +0.000 C 
BRANCH   9  14
ATOM     10  C   UNL     1      45.920   1.812   8.368  0.00  0.00    +0.000 A 
ATOM     11  C   UNL     1      46.435   2.602   7.354  0.00  0.00    +0.000 A 
ATOM     12  C   UNL     1      46.223   3.974   7.415  0.00  0.00    +0.000 A 
ATOM     13  C   UNL     1      45.505   4.504   8.481  0.00  0.00    +0.000 A 
ATOM     14  C   UNL     1      45.006   3.639   9.451  0.00  0.00    +0.000 A 
ATOM     15  N   UNL     1      45.221   2.300   9.413  0.00  0.00    +0.000 NA
BRANCH  10  17
ATOM     16  C   UNL     1      47.071   0.123   7.244  0.00  0.00    +0.000 C 
ATOM     17  O   UNL     1      46.148   0.455   8.277  0.00  0.00    +0.000 OA
ENDBRANCH  10  17
ENDBRANCH   9  14
ENDBRANCH   8   9
ENDBRANCH   1   8
BRANCH   4  18
ATOM     18  C   UNL     1      47.669   8.596  13.887  0.00  0.00    +0.000 C 
BRANCH  18  19
ATOM     19  N   UNL     1      47.965   7.946  15.139  0.00  0.00    +0.000 N 
ATOM     20  C   UNL     1      49.246   7.698  15.555  0.00  0.00    +0.000 C 
ATOM     21  O   UNL     1      50.226   8.008  14.883  0.00  0.00    +0.000 OA
ATOM     22  H   UNL     1      47.186   7.501  15.614  0.00  0.00    +0.000 HD
BRANCH  20  23
ATOM     23  C   UNL     1      49.394   7.111  16.894  0.00  0.00    +0.000 A 
ATOM     24  C   UNL     1      50.027   7.839  17.891  0.00  0.00    +0.000 A 
ATOM     25  S   UNL     1      50.063   7.046  19.399  0.00  0.00    +0.000 S 
ATOM     26  C   UNL     1      49.273   5.681  18.761  0.00  0.00    +0.000 A 
ATOM     27  N   UNL     1      49.005   4.601  19.543  0.00  0.00    +0.000 NA
ATOM     28  C   UNL     1      48.433   3.623  18.924  0.00  0.00    +0.000 A 
ATOM     29  N   UNL     1      48.100   3.629  17.595  0.00  0.00    +0.000 N 
ATOM     30  C   UNL     1      48.314   4.713  16.776  0.00  0.00    +0.000 A 
ATOM     31  O   UNL     1      47.940   4.714  15.608  0.00  0.00    +0.000 OA
ATOM     32  C   UNL     1      48.974   5.834  17.419  0.00  0.00    +0.000 A 
ATOM     33  H   UNL     1      47.643   2.834  17.173  0.00  0.00    +0.000 HD
ENDBRANCH  20  23
ENDBRANCH  18  19
ENDBRANCH   4  18
TORSDOF 7
ENDMDL
MODEL 4
REMARK VINA RESULT:    -7.159      2.359      3.074
REMARK INTER + INTRA:         -11.095
REMARK INTER:                 -10.217
REMARK INTRA:                  -0.878
REMARK UNBOUND:                -1.007
REMARK  Name = 
REMARK  8 active torsions:
REMARK  status: ('A' for Active; 'I' for Inactive)
REMARK    1  A    between atoms: C_1  and  O_2
REMARK    2  A    between atoms: O_2  and  C_3
REMARK    3  A    between atoms: C_7  and  C_8
REMARK    4  A    between atoms: C_8  and  O_9
REMARK    5  A    between atoms: O_9  and  C_10
REMARK    6  A    between atoms: C_13  and  C_14
REMARK    7  A    between atoms: C_14  and  N_15
REMARK    8  A    between atoms: C_16  and  C_18
REMARK                            x       y       z     vdW  Elec       q    Type
REMARK                         _______ _______ _______ _____ _____    ______ ____
ROOT
ATOM      1  C   UNL     1      45.050   4.423  11.614  0.00  0.00    +0.000 A 
ATOM      2  C   UNL     1      46.138   4.689  12.449  0.00  0.00    +0.000 A 
ATOM      3  C   UNL     1      46.395   5.990  12.880  0.00  0.00    +0.000 A 
ATOM      4  C   UNL     1      45.580   7.046  12.453  0.00  0.00    +0.000 A 
ATOM      5  C   UNL     1      44.508   6.764  11.605  0.00  0.00    +0.000 A 
ATOM      6  F   UNL     1      43.710   7.756  11.185  0.00  0.00    +0.000 F 
ATOM      7  C   UNL     1      44.242   5.470  11.174  0.00  0.00    +0.000 A 
ENDROOT
BRANCH   1   8
ATOM      8  O   UNL     1      44.877   3.109  11.275  0.00  0.00    +0.000 OA
BRANCH   8   9
ATOM      9  C   UNL     1      44.235   2.897  10.014  0.00  0.00    +0.000 C 
BRANCH   9  14
ATOM     10  C   UNL     1      46.764   1.753   7.609  0.00  0.00    +0.000 A 
ATOM     11  C   UNL     1      47.143   2.889   6.914  0.00  0.00    +0.000 A 
ATOM     12  C   UNL     1      46.536   4.096   7.241  0.00  0.00    +0.000 A 
ATOM     13  C   UNL     1      45.574   4.123   8.244  0.00  0.00    +0.000 A 
ATOM     14  C   UNL     1      45.237   2.933   8.884  0.00  0.00    +0.000 A 
ATOM     15  N   UNL     1      45.834   1.752   8.586  0.00  0.00    +0.000 NA
BRANCH  10  17
ATOM     16  C   UNL     1      46.620  -0.575   7.613  0.00  0.00    +0.000 C 
ATOM     17  O   UNL     1      47.386   0.573   7.259  0.00  0.00    +0.000 OA
ENDBRANCH  10  17
ENDBRANCH   9  14
ENDBRANCH   8   9
ENDBRANCH   1   8
BRANCH   4  18
ATOM     18  C   UNL     1      45.832   8.449  12.916  0.00  0.00    +0.000 C 
BRANCH  18  19
ATOM     19  N   UNL     1      46.716   8.481  14.054  0.00  0.00    +0.000 N 
ATOM     20  C   UNL     1      47.935   9.104  14.022  0.00  0.00    +0.000 C 
ATOM     21  O   UNL     1      48.357   9.669  13.016  0.00  0.00    +0.000 OA
ATOM     22  H   UNL     1      46.489   7.858  14.823  0.00  0.00    +0.000 HD
BRANCH  20  23
ATOM     23  C   UNL     1      48.685   9.133  15.284  0.00  0.00    +0.000 A 
ATOM     24  C   UNL     1      48.976  10.354  15.877  0.00  0.00    +0.000 A 
ATOM     25  S   UNL     1      49.795  10.216  17.365  0.00  0.00    +0.000 S 
ATOM     26  C   UNL     1      49.832   8.518  17.248  0.00  0.00    +0.000 A 
ATOM     27  N   UNL     1      50.421   7.765  18.215  0.00  0.00    +0.000 NA
ATOM     28  C   UNL     1      50.407   6.494  17.984  0.00  0.00    +0.000 A 
ATOM     29  N   UNL     1      49.852   5.909  16.876  0.00  0.00    +0.000 N 
ATOM     30  C   UNL     1      49.209   6.626  15.895  0.00  0.00    +0.000 A 
ATOM     31  O   UNL     1      48.660   6.067  14.951  0.00  0.00    +0.000 OA
ATOM     32  C   UNL     1      49.214   8.063  16.096  0.00  0.00    +0.000 A 
ATOM     33  H   UNL     1      49.864   4.906  16.761  0.00  0.00    +0.000 HD
ENDBRANCH  20  23
ENDBRANCH  18  19
ENDBRANCH   4  18
TORSDOF 7
ENDMDL
MODEL 5
REMARK VINA RESULT:    -7.075      2.869      8.906
REMARK INTER + INTRA:         -10.977
REMARK INTER:                  -9.525
REMARK INTRA:                  -1.452
REMARK UNBOUND:                -1.007
REMARK  Name = 
REMARK  8 active torsions:
REMARK  status: ('A' for Active; 'I' for Inactive)
REMARK    1  A    between atoms: C_1  and  O_2
REMARK    2  A    between atoms: O_2  and  C_3
REMARK    3  A    between atoms: C_7  and  C_8
REMARK    4  A    between atoms: C_8  and  O_9
REMARK    5  A    between atoms: O_9  and  C_10
REMARK    6  A    between atoms: C_13  and  C_14
REMARK    7  A    between atoms: C_14  and  N_15
REMARK    8  A    between atoms: C_16  and  C_18
REMARK                            x       y       z     vdW  Elec       q    Type
REMARK                         _______ _______ _______ _____ _____    ______ ____
ROOT
ATOM      1  C   UNL     1      49.852   8.269  15.293  0.00  0.00    +0.000 A 
ATOM      2  C   UNL     1      48.576   8.836  15.309  0.00  0.00    +0.000 A 
ATOM      3  C   UNL     1      47.762   8.774  14.179  0.00  0.00    +0.000 A 
ATOM      4  C   UNL     1      48.233   8.171  13.006  0.00  0.00    +0.000 A 
ATOM      5  C   UNL     1      49.518   7.625  13.002  0.00  0.00    +0.000 A 
ATOM      6  F   UNL     1      49.991   7.038  11.893  0.00  0.00    +0.000 F 
ATOM      7  C   UNL     1      50.333   7.678  14.126  0.00  0.00    +0.000 A 
ENDROOT
BRANCH   1   8
ATOM      8  O   UNL     1      50.552   8.363  16.464  0.00  0.00    +0.000 OA
BRANCH   8   9
ATOM      9  C   UNL     1      50.964   7.110  17.017  0.00  0.00    +0.000 C 
BRANCH   9  14
ATOM     10  C   UNL     1      48.506   4.381  16.996  0.00  0.00    +0.000 A 
ATOM     11  C   UNL     1      47.582   4.718  17.970  0.00  0.00    +0.000 A 
ATOM     12  C   UNL     1      47.772   5.897  18.681  0.00  0.00    +0.000 A 
ATOM     13  C   UNL     1      48.877   6.691  18.395  0.00  0.00    +0.000 A 
ATOM     14  C   UNL     1      49.769   6.273  17.411  0.00  0.00    +0.000 A 
ATOM     15  N   UNL     1      49.585   5.133  16.699  0.00  0.00    +0.000 NA
BRANCH  10  17
ATOM     16  C   UNL     1      49.176   2.166  16.707  0.00  0.00    +0.000 C 
ATOM     17  O   UNL     1      48.287   3.205  16.310  0.00  0.00    +0.000 OA
ENDBRANCH  10  17
ENDBRANCH   9  14
ENDBRANCH   8   9
ENDBRANCH   1   8
BRANCH   4  18
ATOM     18  C   UNL     1      47.370   8.084  11.784  0.00  0.00    +0.000 C 
BRANCH  18  19
ATOM     19  N   UNL     1      46.716   6.803  11.687  0.00  0.00    +0.000 N 
ATOM     20  C   UNL     1      45.356   6.662  11.771  0.00  0.00    +0.000 C 
ATOM     21  O   UNL     1      44.607   7.620  11.942  0.00  0.00    +0.000 OA
ATOM     22  H   UNL     1      47.312   5.984  11.749  0.00  0.00    +0.000 HD
BRANCH  20  23
ATOM     23  C   UNL     1      44.828   5.307  11.563  0.00  0.00    +0.000 A 
ATOM     24  C   UNL     1      44.126   4.685  12.586  0.00  0.00    +0.000 A 
ATOM     25  S   UNL     1      43.527   3.145  12.167  0.00  0.00    +0.000 S 
ATOM     26  C   UNL     1      44.226   3.235  10.618  0.00  0.00    +0.000 A 
ATOM     27  N   UNL     1      44.100   2.209   9.735  0.00  0.00    +0.000 NA
ATOM     28  C   UNL     1      44.706   2.395   8.610  0.00  0.00    +0.000 A 
ATOM     29  N   UNL     1      45.423   3.518   8.286  0.00  0.00    +0.000 N 
ATOM     30  C   UNL     1      45.541   4.597   9.130  0.00  0.00    +0.000 A 
ATOM     31  O   UNL     1      46.130   5.616   8.784  0.00  0.00    +0.000 OA
ATOM     32  C   UNL     1      44.894   4.431  10.418  0.00  0.00    +0.000 A 
ATOM     33  H   UNL     1      45.864   3.607   7.383  0.00  0.00    +0.000 HD
ENDBRANCH  20  23
ENDBRANCH  18  19
ENDBRANCH   4  18
TORSDOF 7
ENDMDL
MODEL 6
REMARK VINA RESULT:    -7.068      3.885      5.842
REMARK INTER + INTRA:         -10.967
REMARK INTER:                  -9.730
REMARK INTRA:                  -1.237
REMARK UNBOUND:                -1.007
REMARK  Name = 
REMARK  8 active torsions:
REMARK  status: ('A' for Active; 'I' for Inactive)
REMARK    1  A    between atoms: C_1  and  O_2
REMARK    2  A    between atoms: O_2  and  C_3
REMARK    3  A    between atoms: C_7  and  C_8
REMARK    4  A    between atoms: C_8  and  O_9
REMARK    5  A    between atoms: O_9  and  C_10
REMARK    6  A    between atoms: C_13  and  C_14
REMARK    7  A    between atoms: C_14  and  N_15
REMARK    8  A    between atoms: C_16  and  C_18
REMARK                            x       y       z     vdW  Elec       q    Type
REMARK                         _______ _______ _______ _____ _____    ______ ____
ROOT
ATOM      1  C   UNL     1      44.885   3.752  12.529  0.00  0.00    +0.000 A 
ATOM      2  C   UNL     1      46.072   3.180  12.992  0.00  0.00    +0.000 A 
ATOM      3  C   UNL     1      47.053   3.975  13.583  0.00  0.00    +0.000 A 
ATOM      4  C   UNL     1      46.868   5.359  13.688  0.00  0.00    +0.000 A 
ATOM      5  C   UNL     1      45.683   5.915  13.204  0.00  0.00    +0.000 A 
ATOM      6  F   UNL     1      45.478   7.237  13.296  0.00  0.00    +0.000 F 
ATOM      7  C   UNL     1      44.698   5.130  12.618  0.00  0.00    +0.000 A 
ENDROOT
BRANCH   1   8
ATOM      8  O   UNL     1      43.982   2.875  11.992  0.00  0.00    +0.000 OA
BRANCH   8   9
ATOM      9  C   UNL     1      43.405   3.296  10.752  0.00  0.00    +0.000 C 
BRANCH   9  14
ATOM     10  C   UNL     1      45.849   1.866   8.415  0.00  0.00    +0.000 A 
ATOM     11  C   UNL     1      46.316   2.940   7.677  0.00  0.00    +0.000 A 
ATOM     12  C   UNL     1      45.802   4.202   7.949  0.00  0.00    +0.000 A 
ATOM     13  C   UNL     1      44.841   4.343   8.943  0.00  0.00    +0.000 A 
ATOM     14  C   UNL     1      44.411   3.210   9.629  0.00  0.00    +0.000 A 
ATOM     15  N   UNL     1      44.918   1.975   9.384  0.00  0.00    +0.000 NA
BRANCH  10  17
ATOM     16  C   UNL     1      47.324   0.679   7.053  0.00  0.00    +0.000 C 
ATOM     17  O   UNL     1      46.380   0.628   8.118  0.00  0.00    +0.000 OA
ENDBRANCH  10  17
ENDBRANCH   9  14
ENDBRANCH   8   9
ENDBRANCH   1   8
BRANCH   4  18
ATOM     18  C   UNL     1      47.905   6.229  14.332  0.00  0.00    +0.000 C 
BRANCH  18  19
ATOM     19  N   UNL     1      48.437   7.195  13.404  0.00  0.00    +0.000 N 
ATOM     20  C   UNL     1      49.497   8.006  13.713  0.00  0.00    +0.000 C 
ATOM     21  O   UNL     1      50.057   7.966  14.805  0.00  0.00    +0.000 OA
ATOM     22  H   UNL     1      47.875   7.392  12.582  0.00  0.00    +0.000 HD
BRANCH  20  23
ATOM     23  C   UNL     1      49.987   8.876  12.635  0.00  0.00    +0.000 A 
ATOM     24  C   UNL     1      51.319   8.805  12.254  0.00  0.00    +0.000 A 
ATOM     25  S   UNL     1      51.715   9.831  10.952  0.00  0.00    +0.000 S 
ATOM     26  C   UNL     1      50.128  10.442  10.882  0.00  0.00    +0.000 A 
ATOM     27  N   UNL     1      49.787  11.394   9.973  0.00  0.00    +0.000 NA
ATOM     28  C   UNL     1      48.561  11.792  10.051  0.00  0.00    +0.000 A 
ATOM     29  N   UNL     1      47.644  11.320  10.954  0.00  0.00    +0.000 N 
ATOM     30  C   UNL     1      47.932  10.329  11.863  0.00  0.00    +0.000 A 
ATOM     31  O   UNL     1      47.070   9.878  12.610  0.00  0.00    +0.000 OA
ATOM     32  C   UNL     1      49.305   9.860  11.830  0.00  0.00    +0.000 A 
ATOM     33  H   UNL     1      46.695  11.665  10.956  0.00  0.00    +0.000 HD
ENDBRANCH  20  23
ENDBRANCH  18  19
ENDBRANCH   4  18
TORSDOF 7
ENDMDL
MODEL 7
REMARK VINA RESULT:    -7.041      4.767      5.635
REMARK INTER + INTRA:         -10.929
REMARK INTER:                 -10.068
REMARK INTRA:                  -0.861
REMARK UNBOUND:                -1.007
REMARK  Name = 
REMARK  8 active torsions:
REMARK  status: ('A' for Active; 'I' for Inactive)
REMARK    1  A    between atoms: C_1  and  O_2
REMARK    2  A    between atoms: O_2  and  C_3
REMARK    3  A    between atoms: C_7  and  C_8
REMARK    4  A    between atoms: C_8  and  O_9
REMARK    5  A    between atoms: O_9  and  C_10
REMARK    6  A    between atoms: C_13  and  C_14
REMARK    7  A    between atoms: C_14  and  N_15
REMARK    8  A    between atoms: C_16  and  C_18
REMARK                            x       y       z     vdW  Elec       q    Type
REMARK                         _______ _______ _______ _____ _____    ______ ____
ROOT
ATOM      1  C   UNL     1      44.802   4.491  11.801  0.00  0.00    +0.000 A 
ATOM      2  C   UNL     1      45.889   4.843  12.604  0.00  0.00    +0.000 A 
ATOM      3  C   UNL     1      46.110   6.177  12.947  0.00  0.00    +0.000 A 
ATOM      4  C   UNL     1      45.259   7.178  12.461  0.00  0.00    +0.000 A 
ATOM      5  C   UNL     1      44.187   6.809  11.647  0.00  0.00    +0.000 A 
ATOM      6  F   UNL     1      43.355   7.748  11.172  0.00  0.00    +0.000 F 
ATOM      7  C   UNL     1      43.957   5.482  11.303  0.00  0.00    +0.000 A 
ENDROOT
BRANCH   1   8
ATOM      8  O   UNL     1      44.666   3.153  11.550  0.00  0.00    +0.000 OA
BRANCH   8   9
ATOM      9  C   UNL     1      44.020   2.840  10.312  0.00  0.00    +0.000 C 
BRANCH   9  14
ATOM     10  C   UNL     1      46.453   1.742   7.791  0.00  0.00    +0.000 A 
ATOM     11  C   UNL     1      46.853   2.899   7.145  0.00  0.00    +0.000 A 
ATOM     12  C   UNL     1      46.294   4.106   7.547  0.00  0.00    +0.000 A 
ATOM     13  C   UNL     1      45.357   4.112   8.574  0.00  0.00    +0.000 A 
ATOM     14  C   UNL     1      44.995   2.902   9.161  0.00  0.00    +0.000 A 
ATOM     15  N   UNL     1      45.547   1.719   8.789  0.00  0.00    +0.000 NA
BRANCH  10  17
ATOM     16  C   UNL     1      47.337   0.572   5.976  0.00  0.00    +0.000 C 
ATOM     17  O   UNL     1      47.027   0.562   7.367  0.00  0.00    +0.000 OA
ENDBRANCH  10  17
ENDBRANCH   9  14
ENDBRANCH   8   9
ENDBRANCH   1   8
BRANCH   4  18
ATOM     18  C   UNL     1      45.472   8.615  12.829  0.00  0.00    +0.000 C 
BRANCH  18  19
ATOM     19  N   UNL     1      46.857   8.993  12.709  0.00  0.00    +0.000 N 
ATOM     20  C   UNL     1      47.251  10.172  12.131  0.00  0.00    +0.000 C 
ATOM     21  O   UNL     1      46.446  10.978  11.672  0.00  0.00    +0.000 OA
ATOM     22  H   UNL     1      47.543   8.268  12.891  0.00  0.00    +0.000 HD
BRANCH  20  23
ATOM     23  C   UNL     1      48.690  10.462  12.162  0.00  0.00    +0.000 A 
ATOM     24  C   UNL     1      49.120  11.748  12.462  0.00  0.00    +0.000 A 
ATOM     25  S   UNL     1      50.815  11.907  12.518  0.00  0.00    +0.000 S 
ATOM     26  C   UNL     1      51.037  10.273  12.097  0.00  0.00    +0.000 A 
ATOM     27  N   UNL     1      52.285   9.752  11.957  0.00  0.00    +0.000 NA
ATOM     28  C   UNL     1      52.308   8.511  11.602  0.00  0.00    +0.000 A 
ATOM     29  N   UNL     1      51.195   7.742  11.381  0.00  0.00    +0.000 N 
ATOM     30  C   UNL     1      49.916   8.214  11.551  0.00  0.00    +0.000 A 
ATOM     31  O   UNL     1      48.941   7.481  11.414  0.00  0.00    +0.000 OA
ATOM     32  C   UNL     1      49.833   9.612  11.930  0.00  0.00    +0.000 A 
ATOM     33  H   UNL     1      51.282   6.772  11.116  0.00  0.00    +0.000 HD
ENDBRANCH  20  23
ENDBRANCH  18  19
ENDBRANCH   4  18
TORSDOF 7
ENDMDL
MODEL 8
REMARK VINA RESULT:    -6.934      3.975      8.421
REMARK INTER + INTRA:         -10.778
REMARK INTER:                  -9.516
REMARK INTRA:                  -1.263
REMARK UNBOUND:                -1.007
REMARK  Name = 
REMARK  8 active torsions:
REMARK  status: ('A' for Active; 'I' for Inactive)
REMARK    1  A    between atoms: C_1  and  O_2
REMARK    2  A    between atoms: O_2  and  C_3
REMARK    3  A    between atoms: C_7  and  C_8
REMARK    4  A    between atoms: C_8  and  O_9
REMARK    5  A    between atoms: O_9  and  C_10
REMARK    6  A    between atoms: C_13  and  C_14
REMARK    7  A    between atoms: C_14  and  N_15
REMARK    8  A    between atoms: C_16  and  C_18
REMARK                            x       y       z     vdW  Elec       q    Type
REMARK                         _______ _______ _______ _____ _____    ______ ____
ROOT
ATOM      1  C   UNL     1      50.415   6.591  18.211  0.00  0.00    +0.000 A 
ATOM      2  C   UNL     1      50.921   6.944  16.958  0.00  0.00    +0.000 A 
ATOM      3  C   UNL     1      50.232   7.846  16.148  0.00  0.00    +0.000 A 
ATOM      4  C   UNL     1      49.010   8.381  16.573  0.00  0.00    +0.000 A 
ATOM      5  C   UNL     1      48.511   8.004  17.821  0.00  0.00    +0.000 A 
ATOM      6  F   UNL     1      47.345   8.506  18.254  0.00  0.00    +0.000 F 
ATOM      7  C   UNL     1      49.193   7.109  18.637  0.00  0.00    +0.000 A 
ENDROOT
BRANCH   1   8
ATOM      8  O   UNL     1      51.186   5.720  18.931  0.00  0.00    +0.000 OA
BRANCH   8   9
ATOM      9  C   UNL     1      52.311   5.191  18.223  0.00  0.00    +0.000 C 
BRANCH   9  14
ATOM     10  C   UNL     1      50.741   2.090  17.039  0.00  0.00    +0.000 A 
ATOM     11  C   UNL     1      51.613   1.079  17.406  0.00  0.00    +0.000 A 
ATOM     12  C   UNL     1      52.783   1.426  18.070  0.00  0.00    +0.000 A 
ATOM     13  C   UNL     1      53.039   2.765  18.340  0.00  0.00    +0.000 A 
ATOM     14  C   UNL     1      52.119   3.723  17.922  0.00  0.00    +0.000 A 
ATOM     15  N   UNL     1      50.965   3.396  17.288  0.00  0.00    +0.000 NA
BRANCH  10  17
ATOM     16  C   UNL     1      48.502   2.599  16.623  0.00  0.00    +0.000 C 
ATOM     17  O   UNL     1      49.590   1.711  16.381  0.00  0.00    +0.000 OA
ENDBRANCH  10  17
ENDBRANCH   9  14
ENDBRANCH   8   9
ENDBRANCH   1   8
BRANCH   4  18
ATOM     18  C   UNL     1      48.261   9.362  15.723  0.00  0.00    +0.000 C 
BRANCH  18  19
ATOM     19  N   UNL     1      47.262   8.709  14.915  0.00  0.00    +0.000 N 
ATOM     20  C   UNL     1      47.520   8.254  13.649  0.00  0.00    +0.000 C 
ATOM     21  O   UNL     1      48.621   8.382  13.118  0.00  0.00    +0.000 OA
ATOM     22  H   UNL     1      46.303   8.771  15.242  0.00  0.00    +0.000 HD
BRANCH  20  23
ATOM     23  C   UNL     1      46.431   7.529  12.983  0.00  0.00    +0.000 A 
ATOM     24  C   UNL     1      45.496   8.235  12.239  0.00  0.00    +0.000 A 
ATOM     25  S   UNL     1      44.335   7.245  11.480  0.00  0.00    +0.000 S 
ATOM     26  C   UNL     1      45.013   5.839  12.157  0.00  0.00    +0.000 A 
ATOM     27  N   UNL     1      44.472   4.616  11.912  0.00  0.00    +0.000 NA
ATOM     28  C   UNL     1      45.065   3.639  12.514  0.00  0.00    +0.000 A 
ATOM     29  N   UNL     1      46.155   3.775  13.335  0.00  0.00    +0.000 N 
ATOM     30  C   UNL     1      46.760   4.986  13.577  0.00  0.00    +0.000 A 
ATOM     31  O   UNL     1      47.777   5.065  14.260  0.00  0.00    +0.000 OA
ATOM     32  C   UNL     1      46.119   6.120  12.939  0.00  0.00    +0.000 A 
ATOM     33  H   UNL     1      46.580   2.969  13.767  0.00  0.00    +0.000 HD
ENDBRANCH  20  23
ENDBRANCH  18  19
ENDBRANCH   4  18
TORSDOF 7
ENDMDL
MODEL 9
REMARK VINA RESULT:    -6.649      4.852      7.090
REMARK INTER + INTRA:         -10.377
REMARK INTER:                  -9.307
REMARK INTRA:                  -1.070
REMARK UNBOUND:                -1.007
REMARK  Name = 
REMARK  8 active torsions:
REMARK  status: ('A' for Active; 'I' for Inactive)
REMARK    1  A    between atoms: C_1  and  O_2
REMARK    2  A    between atoms: O_2  and  C_3
REMARK    3  A    between atoms: C_7  and  C_8
REMARK    4  A    between atoms: C_8  and  O_9
REMARK    5  A    between atoms: O_9  and  C_10
REMARK    6  A    between atoms: C_13  and  C_14
REMARK    7  A    between atoms: C_14  and  N_15
REMARK    8  A    between atoms: C_16  and  C_18
REMARK                            x       y       z     vdW  Elec       q    Type
REMARK                         _______ _______ _______ _____ _____    ______ ____
ROOT
ATOM      1  C   UNL     1      45.307   5.745  12.183  0.00  0.00    +0.000 A 
ATOM      2  C   UNL     1      46.221   4.946  12.872  0.00  0.00    +0.000 A 
ATOM      3  C   UNL     1      47.495   5.429  13.170  0.00  0.00    +0.000 A 
ATOM      4  C   UNL     1      47.877   6.710  12.752  0.00  0.00    +0.000 A 
ATOM      5  C   UNL     1      46.956   7.488  12.050  0.00  0.00    +0.000 A 
ATOM      6  F   UNL     1      47.294   8.720  11.641  0.00  0.00    +0.000 F 
ATOM      7  C   UNL     1      45.682   7.016  11.752  0.00  0.00    +0.000 A 
ENDROOT
BRANCH   1   8
ATOM      8  O   UNL     1      44.079   5.181  11.969  0.00  0.00    +0.000 OA
BRANCH   8   9
ATOM      9  C   UNL     1      43.639   5.206  10.608  0.00  0.00    +0.000 C 
BRANCH   9  14
ATOM     10  C   UNL     1      45.712   3.746   7.952  0.00  0.00    +0.000 A 
ATOM     11  C   UNL     1      45.654   2.378   8.158  0.00  0.00    +0.000 A 
ATOM     12  C   UNL     1      44.903   1.903   9.226  0.00  0.00    +0.000 A 
ATOM     13  C   UNL     1      44.243   2.808  10.048  0.00  0.00    +0.000 A 
ATOM     14  C   UNL     1      44.366   4.170   9.784  0.00  0.00    +0.000 A 
ATOM     15  N   UNL     1      45.082   4.646   8.734  0.00  0.00    +0.000 NA
BRANCH  10  17
ATOM     16  C   UNL     1      46.844   3.124   6.010  0.00  0.00    +0.000 C 
ATOM     17  O   UNL     1      46.467   4.184   6.884  0.00  0.00    +0.000 OA
ENDBRANCH  10  17
ENDBRANCH   9  14
ENDBRANCH   8   9
ENDBRANCH   1   8
BRANCH   4  18
ATOM     18  C   UNL     1      49.237   7.252  13.073  0.00  0.00    +0.000 C 
BRANCH  18  19
ATOM     19  N   UNL     1      50.035   7.420  11.885  0.00  0.00    +0.000 N 
ATOM     20  C   UNL     1      51.200   8.140  11.877  0.00  0.00    +0.000 C 
ATOM     21  O   UNL     1      51.635   8.696  12.883  0.00  0.00    +0.000 OA
ATOM     22  H   UNL     1      49.604   7.150  11.007  0.00  0.00    +0.000 HD
BRANCH  20  23
ATOM     23  C   UNL     1      51.952   8.148  10.615  0.00  0.00    +0.000 A 
ATOM     24  C   UNL     1      52.401   6.948  10.081  0.00  0.00    +0.000 A 
ATOM     25  S   UNL     1      53.200   7.119   8.586  0.00  0.00    +0.000 S 
ATOM     26  C   UNL     1      53.016   8.811   8.621  0.00  0.00    +0.000 A 
ATOM     27  N   UNL     1      53.507   9.586   7.617  0.00  0.00    +0.000 NA
ATOM     28  C   UNL     1      53.327  10.854   7.787  0.00  0.00    +0.000 A 
ATOM     29  N   UNL     1      52.697  11.416   8.867  0.00  0.00    +0.000 N 
ATOM     30  C   UNL     1      52.150  10.669   9.883  0.00  0.00    +0.000 A 
ATOM     31  O   UNL     1      51.530  11.197  10.800  0.00  0.00    +0.000 OA
ATOM     32  C   UNL     1      52.341   9.237   9.751  0.00  0.00    +0.000 A 
ATOM     33  H   UNL     1      52.579  12.415   8.934  0.00  0.00    +0.000 HD
ENDBRANCH  20  23
ENDBRANCH  18  19
ENDBRANCH   4  18
TORSDOF 7
ENDMDL
