MODEL 1
REMARK VINA RESULT:    -8.118      0.000      0.000
REMARK INTER + INTRA:         -12.736
REMARK INTER:                 -11.440
REMARK INTRA:                  -1.296
REMARK UNBOUND:                -1.296
REMARK  Name = 
REMARK  8 active torsions:
REMARK  status: ('A' for Active; 'I' for Inactive)
REMARK    1  A    between atoms: C_1  and  C_2
REMARK    2  A    between atoms: C_2  and  N_3
REMARK    3  A    between atoms: C_4  and  C_6
REMARK    4  A    between atoms: C_10  and  C_11
REMARK    5  A    between atoms: C_11  and  C_12
REMARK    6  A    between atoms: C_15  and  C_16
REMARK    7  A    between atoms: C_16  and  N_17
REMARK    8  A    between atoms: C_18  and  C_20
REMARK                            x       y       z     vdW  Elec       q    Type
REMARK                         _______ _______ _______ _____ _____    ______ ____
ROOT
ATOM      1  C   UNL     1      44.844   6.491  11.386  0.00  0.00    +0.000 A 
ATOM      2  C   UNL     1      45.977   5.776  11.799  0.00  0.00    +0.000 A 
ATOM      3  C   UNL     1      46.964   6.390  12.577  0.00  0.00    +0.000 A 
ATOM      4  C   UNL     1      46.833   7.728  12.966  0.00  0.00    +0.000 A 
ATOM      5  C   UNL     1      45.739   8.462  12.489  0.00  0.00    +0.000 A 
ATOM      6  C   UNL     1      44.750   7.848  11.716  0.00  0.00    +0.000 A 
ENDROOT
BRANCH   1   7
ATOM      7  C   UNL     1      43.704   5.789  10.678  0.00  0.00    +0.000 C 
BRANCH   7  12
ATOM      8  C   UNL     1      45.444   3.207   8.458  0.00  0.00    +0.000 A 
ATOM      9  C   UNL     1      45.095   2.011   9.096  0.00  0.00    +0.000 A 
ATOM     10  C   UNL     1      44.239   2.034  10.198  0.00  0.00    +0.000 A 
ATOM     11  C   UNL     1      43.752   3.249  10.685  0.00  0.00    +0.000 A 
ATOM     12  C   UNL     1      44.126   4.460  10.083  0.00  0.00    +0.000 A 
ATOM     13  C   UNL     1      44.967   4.425   8.960  0.00  0.00    +0.000 A 
BRANCH   8  15
ATOM     14  N   UNL     1      46.937   2.038   6.922  0.00  0.00    +0.000 N 
ATOM     15  C   UNL     1      46.353   3.237   7.278  0.00  0.00    +0.000 C 
ATOM     16  O   UNL     1      46.527   4.282   6.660  0.00  0.00    +0.000 OA
ATOM     17  H   UNL     1      46.598   1.182   7.336  0.00  0.00    +0.000 HD
BRANCH  14  19
ATOM     18  C   UNL     1      47.049   1.445   4.544  0.00  0.00    +0.000 C 
ATOM     19  C   UNL     1      47.804   1.932   5.768  0.00  0.00    +0.000 C 
ENDBRANCH  14  19
ENDBRANCH   8  15
ENDBRANCH   7  12
ENDBRANCH   1   7
BRANCH   4  20
ATOM     20  C   UNL     1      47.840   8.372  13.883  0.00  0.00    +0.000 C 
BRANCH  20  21
ATOM     21  N   UNL     1      48.069   7.574  15.057  0.00  0.00    +0.000 N 
ATOM     22  C   UNL     1      49.282   6.979  15.293  0.00  0.00    +0.000 C 
ATOM     23  O   UNL     1      50.248   7.140  14.552  0.00  0.00    +0.000 OA
ATOM     24  H   UNL     1      47.243   7.225  15.532  0.00  0.00    +0.000 HD
BRANCH  22  25
ATOM     25  C   UNL     1      49.382   6.186  16.525  0.00  0.00    +0.000 A 
ATOM     26  C   UNL     1      50.261   6.570  17.529  0.00  0.00    +0.000 A 
ATOM     27  S   UNL     1      50.181   5.582  18.918  0.00  0.00    +0.000 S 
ATOM     28  C   UNL     1      49.013   4.572  18.201  0.00  0.00    +0.000 A 
ATOM     29  N   UNL     1      48.512   3.496  18.865  0.00  0.00    +0.000 NA
ATOM     30  C   UNL     1      47.660   2.802  18.187  0.00  0.00    +0.000 A 
ATOM     31  N   UNL     1      47.263   3.084  16.907  0.00  0.00    +0.000 N 
ATOM     32  C   UNL     1      47.721   4.172  16.205  0.00  0.00    +0.000 A 
ATOM     33  O   UNL     1      47.321   4.411  15.073  0.00  0.00    +0.000 OA
ATOM     34  C   UNL     1      48.684   4.988  16.922  0.00  0.00    +0.000 A 
ATOM     35  H   UNL     1      46.590   2.502  16.431  0.00  0.00    +0.000 HD
ENDBRANCH  22  25
ENDBRANCH  20  21
ENDBRANCH   4  20
TORSDOF 7
ENDMDL
MODEL 2
REMARK VINA RESULT:    -7.695      1.609      2.039
REMARK INTER + INTRA:         -12.139
REMARK INTER:                 -11.112
REMARK INTRA:                  -1.027
REMARK UNBOUND:                -1.296
REMARK  Name = 
REMARK  8 active torsions:
REMARK  status: ('A' for Active; 'I' for Inactive)
REMARK    1  A    between atoms: C_1  and  C_2
REMARK    2  A    between atoms: C_2  and  N_3
REMARK    3  A    between atoms: C_4  and  C_6
REMARK    4  A    between atoms: C_10  and  C_11
REMARK    5  A    between atoms: C_11  and  C_12
REMARK    6  A    between atoms: C_15  and  C_16
REMARK    7  A    between atoms: C_16  and  N_17
REMARK    8  A    between atoms: C_18  and  C_20
REMARK                            x       y       z     vdW  Elec       q    Type
REMARK                         _______ _______ _______ _____ _____    ______ ____
ROOT
ATOM      1  C   UNL     1      45.135   5.978  11.752  0.00  0.00    +0.000 A 
ATOM      2  C   UNL     1      45.626   7.291  11.763  0.00  0.00    +0.000 A 
ATOM      3  C   UNL     1      46.743   7.629  12.533  0.00  0.00    +0.000 A 
ATOM      4  C   UNL     1      47.398   6.659  13.300  0.00  0.00    +0.000 A 
ATOM      5  C   UNL     1      46.861   5.366  13.349  0.00  0.00    +0.000 A 
ATOM      6  C   UNL     1      45.747   5.026  12.576  0.00  0.00    +0.000 A 
ENDROOT
BRANCH   1   7
ATOM      7  C   UNL     1      44.024   5.577  10.804  0.00  0.00    +0.000 C 
BRANCH   7  12
ATOM      8  C   UNL     1      45.520   3.154   8.252  0.00  0.00    +0.000 A 
ATOM      9  C   UNL     1      45.116   1.919   8.772  0.00  0.00    +0.000 A 
ATOM     10  C   UNL     1      44.300   1.872   9.903  0.00  0.00    +0.000 A 
ATOM     11  C   UNL     1      43.909   3.054  10.536  0.00  0.00    +0.000 A 
ATOM     12  C   UNL     1      44.339   4.299  10.054  0.00  0.00    +0.000 A 
ATOM     13  C   UNL     1      45.140   4.336   8.901  0.00  0.00    +0.000 A 
BRANCH   8  15
ATOM     14  N   UNL     1      46.847   2.070   6.515  0.00  0.00    +0.000 N 
ATOM     15  C   UNL     1      46.390   3.259   7.047  0.00  0.00    +0.000 C 
ATOM     16  O   UNL     1      46.640   4.357   6.561  0.00  0.00    +0.000 OA
ATOM     17  H   UNL     1      46.443   1.200   6.830  0.00  0.00    +0.000 HD
BRANCH  14  19
ATOM     18  C   UNL     1      47.012   1.222   4.219  0.00  0.00    +0.000 C 
ATOM     19  C   UNL     1      47.663   2.040   5.320  0.00  0.00    +0.000 C 
ENDBRANCH  14  19
ENDBRANCH   8  15
ENDBRANCH   7  12
ENDBRANCH   1   7
BRANCH   4  20
ATOM     20  C   UNL     1      48.659   6.988  14.058  0.00  0.00    +0.000 C 
BRANCH  20  21
ATOM     21  N   UNL     1      48.398   7.166  15.460  0.00  0.00    +0.000 N 
ATOM     22  C   UNL     1      49.247   6.668  16.415  0.00  0.00    +0.000 C 
ATOM     23  O   UNL     1      50.297   6.098  16.129  0.00  0.00    +0.000 OA
ATOM     24  H   UNL     1      47.443   7.395  15.715  0.00  0.00    +0.000 HD
BRANCH  22  25
ATOM     25  C   UNL     1      48.863   6.914  17.811  0.00  0.00    +0.000 A 
ATOM     26  C   UNL     1      48.589   8.206  18.239  0.00  0.00    +0.000 A 
ATOM     27  S   UNL     1      48.077   8.289  19.865  0.00  0.00    +0.000 S 
ATOM     28  C   UNL     1      48.264   6.609  20.069  0.00  0.00    +0.000 A 
ATOM     29  N   UNL     1      47.999   6.013  21.262  0.00  0.00    +0.000 NA
ATOM     30  C   UNL     1      48.216   4.741  21.281  0.00  0.00    +0.000 A 
ATOM     31  N   UNL     1      48.674   4.009  20.216  0.00  0.00    +0.000 N 
ATOM     32  C   UNL     1      48.932   4.561  18.986  0.00  0.00    +0.000 A 
ATOM     33  O   UNL     1      49.310   3.872  18.048  0.00  0.00    +0.000 OA
ATOM     34  C   UNL     1      48.703   5.993  18.910  0.00  0.00    +0.000 A 
ATOM     35  H   UNL     1      48.822   3.014  20.295  0.00  0.00    +0.000 HD
ENDBRANCH  22  25
ENDBRANCH  20  21
ENDBRANCH   4  20
TORSDOF 7
ENDMDL
MODEL 3
REMARK VINA RESULT:    -7.525      2.144      2.825
REMARK INTER + INTRA:         -11.900
REMARK INTER:                 -10.765
REMARK INTRA:                  -1.136
REMARK UNBOUND:                -1.296
REMARK  Name = 
REMARK  8 active torsions:
REMARK  status: ('A' for Active; 'I' for Inactive)
REMARK    1  A    between atoms: C_1  and  C_2
REMARK    2  A    between atoms: C_2  and  N_3
REMARK    3  A    between atoms: C_4  and  C_6
REMARK    4  A    between atoms: C_10  and  C_11
REMARK    5  A    between atoms: C_11  and  C_12
REMARK    6  A    between atoms: C_15  and  C_16
REMARK    7  A    between atoms: C_16  and  N_17
REMARK    8  A    between atoms: C_18  and  C_20
REMARK                            x       y       z     vdW  Elec       q    Type
REMARK                         _______ _______ _______ _____ _____    ______ ____
ROOT
ATOM      1  C   UNL     1      45.120   5.997  11.773  0.00  0.00    +0.000 A 
ATOM      2  C   UNL     1      45.644   7.296  11.831  0.00  0.00    +0.000 A 
ATOM      3  C   UNL     1      46.731   7.591  12.660  0.00  0.00    +0.000 A 
ATOM      4  C   UNL     1      47.323   6.591  13.440  0.00  0.00    +0.000 A 
ATOM      5  C   UNL     1      46.751   5.312  13.439  0.00  0.00    +0.000 A 
ATOM      6  C   UNL     1      45.667   5.015  12.608  0.00  0.00    +0.000 A 
ENDROOT
BRANCH   1   7
ATOM      7  C   UNL     1      44.047   5.642  10.766  0.00  0.00    +0.000 C 
BRANCH   7  12
ATOM      8  C   UNL     1      45.524   3.168   8.251  0.00  0.00    +0.000 A 
ATOM      9  C   UNL     1      45.100   1.945   8.782  0.00  0.00    +0.000 A 
ATOM     10  C   UNL     1      44.277   1.923   9.909  0.00  0.00    +0.000 A 
ATOM     11  C   UNL     1      43.899   3.117  10.526  0.00  0.00    +0.000 A 
ATOM     12  C   UNL     1      44.349   4.350  10.032  0.00  0.00    +0.000 A 
ATOM     13  C   UNL     1      45.156   4.363   8.884  0.00  0.00    +0.000 A 
BRANCH   8  15
ATOM     14  N   UNL     1      46.832   2.046   6.524  0.00  0.00    +0.000 N 
ATOM     15  C   UNL     1      46.401   3.247   7.049  0.00  0.00    +0.000 C 
ATOM     16  O   UNL     1      46.681   4.337   6.560  0.00  0.00    +0.000 OA
ATOM     17  H   UNL     1      46.405   1.187   6.840  0.00  0.00    +0.000 HD
BRANCH  14  19
ATOM     18  C   UNL     1      47.020   1.127   4.257  0.00  0.00    +0.000 C 
ATOM     19  C   UNL     1      47.652   1.991   5.333  0.00  0.00    +0.000 C 
ENDBRANCH  14  19
ENDBRANCH   8  15
ENDBRANCH   7  12
ENDBRANCH   1   7
BRANCH   4  20
ATOM     20  C   UNL     1      48.554   6.873  14.263  0.00  0.00    +0.000 C 
BRANCH  20  21
ATOM     21  N   UNL     1      48.251   6.906  15.668  0.00  0.00    +0.000 N 
ATOM     22  C   UNL     1      49.044   6.268  16.586  0.00  0.00    +0.000 C 
ATOM     23  O   UNL     1      50.079   5.687  16.270  0.00  0.00    +0.000 OA
ATOM     24  H   UNL     1      47.298   7.148  15.917  0.00  0.00    +0.000 HD
BRANCH  22  25
ATOM     25  C   UNL     1      48.621   6.373  17.988  0.00  0.00    +0.000 A 
ATOM     26  C   UNL     1      48.668   5.258  18.814  0.00  0.00    +0.000 A 
ATOM     27  S   UNL     1      48.222   5.586  20.428  0.00  0.00    +0.000 S 
ATOM     28  C   UNL     1      47.892   7.217  20.063  0.00  0.00    +0.000 A 
ATOM     29  N   UNL     1      47.447   8.074  21.021  0.00  0.00    +0.000 NA
ATOM     30  C   UNL     1      47.207   9.269  20.595  0.00  0.00    +0.000 A 
ATOM     31  N   UNL     1      47.370   9.686  19.300  0.00  0.00    +0.000 N 
ATOM     32  C   UNL     1      47.840   8.865  18.304  0.00  0.00    +0.000 A 
ATOM     33  O   UNL     1      48.004   9.279  17.164  0.00  0.00    +0.000 OA
ATOM     34  C   UNL     1      48.127   7.507  18.731  0.00  0.00    +0.000 A 
ATOM     35  H   UNL     1      47.166  10.637  19.031  0.00  0.00    +0.000 HD
ENDBRANCH  22  25
ENDBRANCH  20  21
ENDBRANCH   4  20
TORSDOF 7
ENDMDL
MODEL 4
REMARK VINA RESULT:    -7.218      3.987      8.686
REMARK INTER + INTRA:         -11.468
REMARK INTER:                  -9.899
REMARK INTRA:                  -1.568
REMARK UNBOUND:                -1.296
REMARK  Name = 
REMARK  8 active torsions:
REMARK  status: ('A' for Active; 'I' for Inactive)
REMARK    1  A    between atoms: C_1  and  C_2
REMARK    2  A    between atoms: C_2  and  N_3
REMARK    3  A    between atoms: C_4  and  C_6
REMARK    4  A    between atoms: C_10  and  C_11
REMARK    5  A    between atoms: C_11  and  C_12
REMARK    6  A    between atoms: C_15  and  C_16
REMARK    7  A    between atoms: C_16  and  N_17
REMARK    8  A    between atoms: C_18  and  C_20
REMARK                            x       y       z     vdW  Elec       q    Type
REMARK                         _______ _______ _______ _____ _____    ______ ____
ROOT
ATOM      1  C   UNL     1      51.061   4.453  18.129  0.00  0.00    +0.000 A 
ATOM      2  C   UNL     1      50.808   3.191  17.573  0.00  0.00    +0.000 A 
ATOM      3  C   UNL     1      49.513   2.826  17.189  0.00  0.00    +0.000 A 
ATOM      4  C   UNL     1      48.447   3.720  17.344  0.00  0.00    +0.000 A 
ATOM      5  C   UNL     1      48.687   4.951  17.970  0.00  0.00    +0.000 A 
ATOM      6  C   UNL     1      49.982   5.318  18.349  0.00  0.00    +0.000 A 
ENDROOT
BRANCH   1   7
ATOM      7  C   UNL     1      52.480   4.906  18.401  0.00  0.00    +0.000 C 
BRANCH   7  12
ATOM      8  C   UNL     1      52.975   7.216  15.394  0.00  0.00    +0.000 A 
ATOM      9  C   UNL     1      54.328   7.008  15.103  0.00  0.00    +0.000 A 
ATOM     10  C   UNL     1      55.060   6.067  15.830  0.00  0.00    +0.000 A 
ATOM     11  C   UNL     1      54.454   5.355  16.867  0.00  0.00    +0.000 A 
ATOM     12  C   UNL     1      53.110   5.582  17.200  0.00  0.00    +0.000 A 
ATOM     13  C   UNL     1      52.376   6.511  16.447  0.00  0.00    +0.000 A 
BRANCH   8  15
ATOM     14  N   UNL     1      51.121   7.693  13.882  0.00  0.00    +0.000 N 
ATOM     15  C   UNL     1      52.148   8.206  14.647  0.00  0.00    +0.000 C 
ATOM     16  O   UNL     1      52.377   9.406  14.754  0.00  0.00    +0.000 OA
ATOM     17  H   UNL     1      50.854   6.726  13.996  0.00  0.00    +0.000 HD
BRANCH  14  19
ATOM     18  C   UNL     1      50.029   8.077  11.719  0.00  0.00    +0.000 C 
ATOM     19  C   UNL     1      50.222   8.556  13.146  0.00  0.00    +0.000 C 
ENDBRANCH  14  19
ENDBRANCH   8  15
ENDBRANCH   7  12
ENDBRANCH   1   7
BRANCH   4  20
ATOM     20  C   UNL     1      47.067   3.377  16.846  0.00  0.00    +0.000 C 
BRANCH  20  21
ATOM     21  N   UNL     1      46.596   4.346  15.894  0.00  0.00    +0.000 N 
ATOM     22  C   UNL     1      46.789   4.177  14.547  0.00  0.00    +0.000 C 
ATOM     23  O   UNL     1      47.318   3.172  14.079  0.00  0.00    +0.000 OA
ATOM     24  H   UNL     1      46.396   5.272  16.255  0.00  0.00    +0.000 HD
BRANCH  22  25
ATOM     25  C   UNL     1      46.264   5.241  13.681  0.00  0.00    +0.000 A 
ATOM     26  C   UNL     1      46.994   6.407  13.494  0.00  0.00    +0.000 A 
ATOM     27  S   UNL     1      46.272   7.492  12.393  0.00  0.00    +0.000 S 
ATOM     28  C   UNL     1      44.930   6.467  12.176  0.00  0.00    +0.000 A 
ATOM     29  N   UNL     1      43.908   6.815  11.349  0.00  0.00    +0.000 NA
ATOM     30  C   UNL     1      42.943   5.958  11.308  0.00  0.00    +0.000 A 
ATOM     31  N   UNL     1      42.905   4.786  12.017  0.00  0.00    +0.000 N 
ATOM     32  C   UNL     1      43.923   4.381  12.845  0.00  0.00    +0.000 A 
ATOM     33  O   UNL     1      43.870   3.313  13.441  0.00  0.00    +0.000 OA
ATOM     34  C   UNL     1      45.036   5.310  12.928  0.00  0.00    +0.000 A 
ATOM     35  H   UNL     1      42.120   4.157  11.940  0.00  0.00    +0.000 HD
ENDBRANCH  22  25
ENDBRANCH  20  21
ENDBRANCH   4  20
TORSDOF 7
ENDMDL
MODEL 5
REMARK VINA RESULT:    -7.126      1.992      2.510
REMARK INTER + INTRA:         -11.338
REMARK INTER:                 -10.152
REMARK INTRA:                  -1.186
REMARK UNBOUND:                -1.296
REMARK  Name = 
REMARK  8 active torsions:
REMARK  status: ('A' for Active; 'I' for Inactive)
REMARK    1  A    between atoms: C_1  and  C_2
REMARK    2  A    between atoms: C_2  and  N_3
REMARK    3  A    between atoms: C_4  and  C_6
REMARK    4  A    between atoms: C_10  and  C_11
REMARK    5  A    between atoms: C_11  and  C_12
REMARK    6  A    between atoms: C_15  and  C_16
REMARK    7  A    between atoms: C_16  and  N_17
REMARK    8  A    between atoms: C_18  and  C_20
REMARK                            x       y       z     vdW  Elec       q    Type
REMARK                         _______ _______ _______ _____ _____    ______ ____
ROOT
ATOM      1  C   UNL     1      45.848   7.442  12.068  0.00  0.00    +0.000 A 
ATOM      2  C   UNL     1      46.926   6.600  11.764  0.00  0.00    +0.000 A 
ATOM      3  C   UNL     1      48.171   6.785  12.375  0.00  0.00    +0.000 A 
ATOM      4  C   UNL     1      48.359   7.810  13.309  0.00  0.00    +0.000 A 
ATOM      5  C   UNL     1      47.303   8.698  13.554  0.00  0.00    +0.000 A 
ATOM      6  C   UNL     1      46.058   8.511  12.948  0.00  0.00    +0.000 A 
ENDROOT
BRANCH   1   7
ATOM      7  C   UNL     1      44.464   7.150  11.527  0.00  0.00    +0.000 C 
BRANCH   7  12
ATOM      8  C   UNL     1      44.427   3.560  10.208  0.00  0.00    +0.000 A 
ATOM      9  C   UNL     1      43.883   2.870  11.297  0.00  0.00    +0.000 A 
ATOM     10  C   UNL     1      43.461   3.572  12.426  0.00  0.00    +0.000 A 
ATOM     11  C   UNL     1      43.606   4.959  12.486  0.00  0.00    +0.000 A 
ATOM     12  C   UNL     1      44.188   5.663  11.421  0.00  0.00    +0.000 A 
ATOM     13  C   UNL     1      44.587   4.951  10.280  0.00  0.00    +0.000 A 
BRANCH   8  15
ATOM     14  N   UNL     1      45.512   3.640   8.024  0.00  0.00    +0.000 N 
ATOM     15  C   UNL     1      44.892   2.859   8.978  0.00  0.00    +0.000 C 
ATOM     16  O   UNL     1      44.742   1.647   8.866  0.00  0.00    +0.000 OA
ATOM     17  H   UNL     1      45.789   4.582   8.260  0.00  0.00    +0.000 HD
BRANCH  14  19
ATOM     18  C   UNL     1      47.507   2.689   6.960  0.00  0.00    +0.000 C 
ATOM     19  C   UNL     1      46.045   3.067   6.807  0.00  0.00    +0.000 C 
ENDBRANCH  14  19
ENDBRANCH   8  15
ENDBRANCH   7  12
ENDBRANCH   1   7
BRANCH   4  20
ATOM     20  C   UNL     1      49.666   7.961  14.045  0.00  0.00    +0.000 C 
BRANCH  20  21
ATOM     21  N   UNL     1      49.456   8.142  15.456  0.00  0.00    +0.000 N 
ATOM     22  C   UNL     1      49.888   7.214  16.368  0.00  0.00    +0.000 C 
ATOM     23  O   UNL     1      50.522   6.214  16.040  0.00  0.00    +0.000 OA
ATOM     24  H   UNL     1      48.734   8.802  15.723  0.00  0.00    +0.000 HD
BRANCH  22  25
ATOM     25  C   UNL     1      49.606   7.515  17.778  0.00  0.00    +0.000 A 
ATOM     26  C   UNL     1      50.277   8.551  18.415  0.00  0.00    +0.000 A 
ATOM     27  S   UNL     1      49.760   8.811  20.020  0.00  0.00    +0.000 S 
ATOM     28  C   UNL     1      48.667   7.508  19.938  0.00  0.00    +0.000 A 
ATOM     29  N   UNL     1      47.898   7.169  21.008  0.00  0.00    +0.000 NA
ATOM     30  C   UNL     1      47.141   6.141  20.813  0.00  0.00    +0.000 A 
ATOM     31  N   UNL     1      47.082   5.420  19.650  0.00  0.00    +0.000 N 
ATOM     32  C   UNL     1      47.821   5.738  18.536  0.00  0.00    +0.000 A 
ATOM     33  O   UNL     1      47.721   5.091  17.502  0.00  0.00    +0.000 OA
ATOM     34  C   UNL     1      48.691   6.889  18.701  0.00  0.00    +0.000 A 
ATOM     35  H   UNL     1      46.466   4.626  19.561  0.00  0.00    +0.000 HD
ENDBRANCH  22  25
ENDBRANCH  20  21
ENDBRANCH   4  20
TORSDOF 7
ENDMDL
MODEL 6
REMARK VINA RESULT:    -7.069      1.866      2.497
REMARK INTER + INTRA:         -11.257
REMARK INTER:                  -9.971
REMARK INTRA:                  -1.286
REMARK UNBOUND:                -1.296
REMARK  Name = 
REMARK  8 active torsions:
REMARK  status: ('A' for Active; 'I' for Inactive)
REMARK    1  A    between atoms: C_1  and  C_2
REMARK    2  A    between atoms: C_2  and  N_3
REMARK    3  A    between atoms: C_4  and  C_6
REMARK    4  A    between atoms: C_10  and  C_11
REMARK    5  A    between atoms: C_11  and  C_12
REMARK    6  A    between atoms: C_15  and  C_16
REMARK    7  A    between atoms: C_16  and  N_17
REMARK    8  A    between atoms: C_18  and  C_20
REMARK                            x       y       z     vdW  Elec       q    Type
REMARK                         _______ _______ _______ _____ _____    ______ ____
ROOT
ATOM      1  C   UNL     1      45.726   7.305  11.991  0.00  0.00    +0.000 A 
ATOM      2  C   UNL     1      46.168   8.634  12.059  0.00  0.00    +0.000 A 
ATOM      3  C   UNL     1      47.490   8.930  12.410  0.00  0.00    +0.000 A 
ATOM      4  C   UNL     1      48.398   7.903  12.690  0.00  0.00    +0.000 A 
ATOM      5  C   UNL     1      47.935   6.580  12.698  0.00  0.00    +0.000 A 
ATOM      6  C   UNL     1      46.616   6.283  12.343  0.00  0.00    +0.000 A 
ENDROOT
BRANCH   1   7
ATOM      7  C   UNL     1      44.345   6.978  11.464  0.00  0.00    +0.000 C 
BRANCH   7  12
ATOM      8  C   UNL     1      44.497   3.408  10.101  0.00  0.00    +0.000 A 
ATOM      9  C   UNL     1      43.906   2.686  11.145  0.00  0.00    +0.000 A 
ATOM     10  C   UNL     1      43.393   3.360  12.254  0.00  0.00    +0.000 A 
ATOM     11  C   UNL     1      43.494   4.750  12.340  0.00  0.00    +0.000 A 
ATOM     12  C   UNL     1      44.120   5.486  11.323  0.00  0.00    +0.000 A 
ATOM     13  C   UNL     1      44.611   4.801  10.200  0.00  0.00    +0.000 A 
BRANCH   8  15
ATOM     14  N   UNL     1      45.548   3.565   7.906  0.00  0.00    +0.000 N 
ATOM     15  C   UNL     1      45.057   2.737   8.894  0.00  0.00    +0.000 C 
ATOM     16  O   UNL     1      45.093   1.513   8.830  0.00  0.00    +0.000 OA
ATOM     17  H   UNL     1      45.680   4.547   8.103  0.00  0.00    +0.000 HD
BRANCH  14  19
ATOM     18  C   UNL     1      47.640   2.770   6.900  0.00  0.00    +0.000 C 
ATOM     19  C   UNL     1      46.157   3.032   6.705  0.00  0.00    +0.000 C 
ENDBRANCH  14  19
ENDBRANCH   8  15
ENDBRANCH   7  12
ENDBRANCH   1   7
BRANCH   4  20
ATOM     20  C   UNL     1      49.847   8.203  12.975  0.00  0.00    +0.000 C 
BRANCH  20  21
ATOM     21  N   UNL     1      50.361   7.365  14.024  0.00  0.00    +0.000 N 
ATOM     22  C   UNL     1      51.229   7.851  14.968  0.00  0.00    +0.000 C 
ATOM     23  O   UNL     1      51.568   9.031  15.004  0.00  0.00    +0.000 OA
ATOM     24  H   UNL     1      50.305   6.364  13.869  0.00  0.00    +0.000 HD
BRANCH  22  25
ATOM     25  C   UNL     1      51.684   6.890  15.982  0.00  0.00    +0.000 A 
ATOM     26  C   UNL     1      53.041   6.732  16.230  0.00  0.00    +0.000 A 
ATOM     27  S   UNL     1      53.378   5.639  17.496  0.00  0.00    +0.000 S 
ATOM     28  C   UNL     1      51.725   5.294  17.714  0.00  0.00    +0.000 A 
ATOM     29  N   UNL     1      51.312   4.403  18.655  0.00  0.00    +0.000 NA
ATOM     30  C   UNL     1      50.035   4.216  18.685  0.00  0.00    +0.000 A 
ATOM     31  N   UNL     1      49.133   4.836  17.862  0.00  0.00    +0.000 N 
ATOM     32  C   UNL     1      49.499   5.760  16.914  0.00  0.00    +0.000 A 
ATOM     33  O   UNL     1      48.663   6.318  16.215  0.00  0.00    +0.000 OA
ATOM     34  C   UNL     1      50.927   6.009  16.837  0.00  0.00    +0.000 A 
ATOM     35  H   UNL     1      48.144   4.647  17.937  0.00  0.00    +0.000 HD
ENDBRANCH  22  25
ENDBRANCH  20  21
ENDBRANCH   4  20
TORSDOF 7
ENDMDL
MODEL 7
REMARK VINA RESULT:    -6.888      3.889      8.658
REMARK INTER + INTRA:         -11.002
REMARK INTER:                  -9.583
REMARK INTRA:                  -1.420
REMARK UNBOUND:                -1.296
REMARK  Name = 
REMARK  8 active torsions:
REMARK  status: ('A' for Active; 'I' for Inactive)
REMARK    1  A    between atoms: C_1  and  C_2
REMARK    2  A    between atoms: C_2  and  N_3
REMARK    3  A    between atoms: C_4  and  C_6
REMARK    4  A    between atoms: C_10  and  C_11
REMARK    5  A    between atoms: C_11  and  C_12
REMARK    6  A    between atoms: C_15  and  C_16
REMARK    7  A    between atoms: C_16  and  N_17
REMARK    8  A    between atoms: C_18  and  C_20
REMARK                            x       y       z     vdW  Elec       q    Type
REMARK                         _______ _______ _______ _____ _____    ______ ____
ROOT
ATOM      1  C   UNL     1      50.152   6.740  17.243  0.00  0.00    +0.000 A 
ATOM      2  C   UNL     1      49.058   7.557  17.562  0.00  0.00    +0.000 A 
ATOM      3  C   UNL     1      48.411   8.303  16.572  0.00  0.00    +0.000 A 
ATOM      4  C   UNL     1      48.838   8.239  15.240  0.00  0.00    +0.000 A 
ATOM      5  C   UNL     1      49.978   7.484  14.936  0.00  0.00    +0.000 A 
ATOM      6  C   UNL     1      50.623   6.734  15.924  0.00  0.00    +0.000 A 
ENDROOT
BRANCH   1   7
ATOM      7  C   UNL     1      50.755   5.817  18.281  0.00  0.00    +0.000 C 
BRANCH   7  12
ATOM      8  C   UNL     1      51.865   2.215  17.634  0.00  0.00    +0.000 A 
ATOM      9  C   UNL     1      50.659   1.618  17.249  0.00  0.00    +0.000 A 
ATOM     10  C   UNL     1      49.506   2.393  17.126  0.00  0.00    +0.000 A 
ATOM     11  C   UNL     1      49.543   3.759  17.416  0.00  0.00    +0.000 A 
ATOM     12  C   UNL     1      50.732   4.366  17.845  0.00  0.00    +0.000 A 
ATOM     13  C   UNL     1      51.893   3.582  17.941  0.00  0.00    +0.000 A 
BRANCH   8  15
ATOM     14  N   UNL     1      52.989   0.119  18.177  0.00  0.00    +0.000 N 
ATOM     15  C   UNL     1      53.125   1.433  17.778  0.00  0.00    +0.000 C 
ATOM     16  O   UNL     1      54.205   1.951  17.518  0.00  0.00    +0.000 OA
ATOM     17  H   UNL     1      52.073  -0.306  18.175  0.00  0.00    +0.000 HD
BRANCH  14  19
ATOM     18  C   UNL     1      53.806  -1.991  19.125  0.00  0.00    +0.000 C 
ATOM     19  C   UNL     1      54.136  -0.754  18.310  0.00  0.00    +0.000 C 
ENDBRANCH  14  19
ENDBRANCH   8  15
ENDBRANCH   7  12
ENDBRANCH   1   7
BRANCH   4  20
ATOM     20  C   UNL     1      48.091   8.961  14.149  0.00  0.00    +0.000 C 
BRANCH  20  21
ATOM     21  N   UNL     1      46.947   8.209  13.709  0.00  0.00    +0.000 N 
ATOM     22  C   UNL     1      47.008   7.393  12.609  0.00  0.00    +0.000 C 
ATOM     23  O   UNL     1      48.047   7.215  11.978  0.00  0.00    +0.000 OA
ATOM     24  H   UNL     1      46.043   8.527  14.043  0.00  0.00    +0.000 HD
BRANCH  22  25
ATOM     25  C   UNL     1      45.769   6.684  12.262  0.00  0.00    +0.000 A 
ATOM     26  C   UNL     1      44.703   7.380  11.709  0.00  0.00    +0.000 A 
ATOM     27  S   UNL     1      43.383   6.383  11.291  0.00  0.00    +0.000 S 
ATOM     28  C   UNL     1      44.168   4.996  11.892  0.00  0.00    +0.000 A 
ATOM     29  N   UNL     1      43.567   3.777  11.853  0.00  0.00    +0.000 NA
ATOM     30  C   UNL     1      44.265   2.824  12.374  0.00  0.00    +0.000 A 
ATOM     31  N   UNL     1      45.507   2.977  12.931  0.00  0.00    +0.000 N 
ATOM     32  C   UNL     1      46.164   4.182  12.971  0.00  0.00    +0.000 A 
ATOM     33  O   UNL     1      47.287   4.277  13.449  0.00  0.00    +0.000 OA
ATOM     34  C   UNL     1      45.422   5.291  12.397  0.00  0.00    +0.000 A 
ATOM     35  H   UNL     1      46.003   2.189  13.321  0.00  0.00    +0.000 HD
ENDBRANCH  22  25
ENDBRANCH  20  21
ENDBRANCH   4  20
TORSDOF 7
ENDMDL
MODEL 8
REMARK VINA RESULT:    -6.681      2.945      8.907
REMARK INTER + INTRA:         -10.710
REMARK INTER:                  -9.203
REMARK INTRA:                  -1.508
REMARK UNBOUND:                -1.296
REMARK  Name = 
REMARK  8 active torsions:
REMARK  status: ('A' for Active; 'I' for Inactive)
REMARK    1  A    between atoms: C_1  and  C_2
REMARK    2  A    between atoms: C_2  and  N_3
REMARK    3  A    between atoms: C_4  and  C_6
REMARK    4  A    between atoms: C_10  and  C_11
REMARK    5  A    between atoms: C_11  and  C_12
REMARK    6  A    between atoms: C_15  and  C_16
REMARK    7  A    between atoms: C_16  and  N_17
REMARK    8  A    between atoms: C_18  and  C_20
REMARK                            x       y       z     vdW  Elec       q    Type
REMARK                         _______ _______ _______ _____ _____    ______ ____
ROOT
ATOM      1  C   UNL     1      48.905   8.743  15.754  0.00  0.00    +0.000 A 
ATOM      2  C   UNL     1      49.655   7.850  14.975  0.00  0.00    +0.000 A 
ATOM      3  C   UNL     1      49.250   7.524  13.676  0.00  0.00    +0.000 A 
ATOM      4  C   UNL     1      48.095   8.092  13.127  0.00  0.00    +0.000 A 
ATOM      5  C   UNL     1      47.306   8.923  13.933  0.00  0.00    +0.000 A 
ATOM      6  C   UNL     1      47.712   9.253  15.229  0.00  0.00    +0.000 A 
ENDROOT
BRANCH   1   7
ATOM      7  C   UNL     1      49.421   9.215  17.097  0.00  0.00    +0.000 C 
BRANCH   7  12
ATOM      8  C   UNL     1      48.299   6.220  19.193  0.00  0.00    +0.000 A 
ATOM      9  C   UNL     1      48.065   6.822  20.435  0.00  0.00    +0.000 A 
ATOM     10  C   UNL     1      48.199   8.204  20.575  0.00  0.00    +0.000 A 
ATOM     11  C   UNL     1      48.594   8.986  19.488  0.00  0.00    +0.000 A 
ATOM     12  C   UNL     1      48.873   8.394  18.247  0.00  0.00    +0.000 A 
ATOM     13  C   UNL     1      48.711   7.007  18.109  0.00  0.00    +0.000 A 
BRANCH   8  15
ATOM     14  N   UNL     1      47.486   4.346  17.859  0.00  0.00    +0.000 N 
ATOM     15  C   UNL     1      48.168   4.750  18.989  0.00  0.00    +0.000 C 
ATOM     16  O   UNL     1      48.677   3.969  19.786  0.00  0.00    +0.000 OA
ATOM     17  H   UNL     1      47.273   5.024  17.142  0.00  0.00    +0.000 HD
BRANCH  14  19
ATOM     18  C   UNL     1      48.435   2.463  16.607  0.00  0.00    +0.000 C 
ATOM     19  C   UNL     1      47.331   2.945  17.529  0.00  0.00    +0.000 C 
ENDBRANCH  14  19
ENDBRANCH   8  15
ENDBRANCH   7  12
ENDBRANCH   1   7
BRANCH   4  20
ATOM     20  C   UNL     1      47.702   7.824  11.697  0.00  0.00    +0.000 C 
BRANCH  20  21
ATOM     21  N   UNL     1      46.991   6.580  11.572  0.00  0.00    +0.000 N 
ATOM     22  C   UNL     1      45.620   6.534  11.591  0.00  0.00    +0.000 C 
ATOM     23  O   UNL     1      44.929   7.548  11.659  0.00  0.00    +0.000 OA
ATOM     24  H   UNL     1      47.519   5.737  11.770  0.00  0.00    +0.000 HD
BRANCH  22  25
ATOM     25  C   UNL     1      45.018   5.201  11.460  0.00  0.00    +0.000 A 
ATOM     26  C   UNL     1      44.369   4.622  12.543  0.00  0.00    +0.000 A 
ATOM     27  S   UNL     1      43.657   3.115  12.182  0.00  0.00    +0.000 S 
ATOM     28  C   UNL     1      44.244   3.156  10.584  0.00  0.00    +0.000 A 
ATOM     29  N   UNL     1      43.998   2.136   9.719  0.00  0.00    +0.000 NA
ATOM     30  C   UNL     1      44.532   2.286   8.554  0.00  0.00    +0.000 A 
ATOM     31  N   UNL     1      45.290   3.363   8.173  0.00  0.00    +0.000 N 
ATOM     32  C   UNL     1      45.546   4.427   9.002  0.00  0.00    +0.000 A 
ATOM     33  O   UNL     1      46.201   5.387   8.619  0.00  0.00    +0.000 OA
ATOM     34  C   UNL     1      44.967   4.308  10.328  0.00  0.00    +0.000 A 
ATOM     35  H   UNL     1      45.679   3.422   7.244  0.00  0.00    +0.000 HD
ENDBRANCH  22  25
ENDBRANCH  20  21
ENDBRANCH   4  20
TORSDOF 7
ENDMDL
MODEL 9
REMARK VINA RESULT:    -6.548      2.970      4.685
REMARK INTER + INTRA:         -10.523
REMARK INTER:                  -9.260
REMARK INTRA:                  -1.264
REMARK UNBOUND:                -1.296
REMARK  Name = 
REMARK  8 active torsions:
REMARK  status: ('A' for Active; 'I' for Inactive)
REMARK    1  A    between atoms: C_1  and  C_2
REMARK    2  A    between atoms: C_2  and  N_3
REMARK    3  A    between atoms: C_4  and  C_6
REMARK    4  A    between atoms: C_10  and  C_11
REMARK    5  A    between atoms: C_11  and  C_12
REMARK    6  A    between atoms: C_15  and  C_16
REMARK    7  A    between atoms: C_16  and  N_17
REMARK    8  A    between atoms: C_18  and  C_20
REMARK                            x       y       z     vdW  Elec       q    Type
REMARK                         _______ _______ _______ _____ _____    ______ ____
ROOT
ATOM      1  C   UNL     1      47.389   5.963  14.009  0.00  0.00    +0.000 A 
ATOM      2  C   UNL     1      48.125   6.564  15.040  0.00  0.00    +0.000 A 
ATOM      3  C   UNL     1      48.379   5.874  16.231  0.00  0.00    +0.000 A 
ATOM      4  C   UNL     1      47.912   4.567  16.409  0.00  0.00    +0.000 A 
ATOM      5  C   UNL     1      47.113   3.996  15.409  0.00  0.00    +0.000 A 
ATOM      6  C   UNL     1      46.862   4.683  14.218  0.00  0.00    +0.000 A 
ENDROOT
BRANCH   1   7
ATOM      7  C   UNL     1      47.245   6.646  12.665  0.00  0.00    +0.000 C 
BRANCH   7  12
ATOM      8  C   UNL     1      44.865   4.880  10.248  0.00  0.00    +0.000 A 
ATOM      9  C   UNL     1      43.619   5.298  10.730  0.00  0.00    +0.000 A 
ATOM     10  C   UNL     1      43.550   6.207  11.787  0.00  0.00    +0.000 A 
ATOM     11  C   UNL     1      44.720   6.678  12.385  0.00  0.00    +0.000 A 
ATOM     12  C   UNL     1      45.977   6.238  11.943  0.00  0.00    +0.000 A 
ATOM     13  C   UNL     1      46.036   5.343  10.864  0.00  0.00    +0.000 A 
BRANCH   8  15
ATOM     14  N   UNL     1      45.026   2.576   9.462  0.00  0.00    +0.000 N 
ATOM     15  C   UNL     1      44.995   3.913   9.122  0.00  0.00    +0.000 C 
ATOM     16  O   UNL     1      45.038   4.317   7.965  0.00  0.00    +0.000 OA
ATOM     17  H   UNL     1      44.780   2.299  10.402  0.00  0.00    +0.000 HD
BRANCH  14  19
ATOM     18  C   UNL     1      46.535   1.308   8.002  0.00  0.00    +0.000 C 
ATOM     19  C   UNL     1      45.105   1.540   8.454  0.00  0.00    +0.000 C 
ENDBRANCH  14  19
ENDBRANCH   8  15
ENDBRANCH   7  12
ENDBRANCH   1   7
BRANCH   4  20
ATOM     20  C   UNL     1      48.261   3.779  17.645  0.00  0.00    +0.000 C 
BRANCH  20  21
ATOM     21  N   UNL     1      49.682   3.756  17.870  0.00  0.00    +0.000 N 
ATOM     22  C   UNL     1      50.483   2.808  17.286  0.00  0.00    +0.000 C 
ATOM     23  O   UNL     1      50.046   1.970  16.502  0.00  0.00    +0.000 OA
ATOM     24  H   UNL     1      50.016   4.255  18.687  0.00  0.00    +0.000 HD
BRANCH  22  25
ATOM     25  C   UNL     1      51.915   2.892  17.602  0.00  0.00    +0.000 A 
ATOM     26  C   UNL     1      52.582   1.781  18.101  0.00  0.00    +0.000 A 
ATOM     27  S   UNL     1      54.254   2.037  18.327  0.00  0.00    +0.000 S 
ATOM     28  C   UNL     1      54.131   3.659  17.824  0.00  0.00    +0.000 A 
ATOM     29  N   UNL     1      55.223   4.469  17.794  0.00  0.00    +0.000 NA
ATOM     30  C   UNL     1      54.975   5.682  17.425  0.00  0.00    +0.000 A 
ATOM     31  N   UNL     1      53.737   6.158  17.082  0.00  0.00    +0.000 N 
ATOM     32  C   UNL     1      52.611   5.373  17.073  0.00  0.00    +0.000 A 
ATOM     33  O   UNL     1      51.525   5.824  16.731  0.00  0.00    +0.000 OA
ATOM     34  C   UNL     1      52.834   3.997  17.481  0.00  0.00    +0.000 A 
ATOM     35  H   UNL     1      53.610   7.118  16.799  0.00  0.00    +0.000 HD
ENDBRANCH  22  25
ENDBRANCH  20  21
ENDBRANCH   4  20
TORSDOF 7
ENDMDL
