MODEL 1
REMARK VINA RESULT:    -7.523      0.000      0.000
REMARK INTER + INTRA:          -8.720
REMARK INTER:                  -8.403
REMARK INTRA:                  -0.317
REMARK UNBOUND:                -0.317
REMARK  Name = 
REMARK  2 active torsions:
REMARK  status: ('A' for Active; 'I' for Inactive)
REMARK    1  A    between atoms: N_6  and  C_7
REMARK    2  A    between atoms: C_7  and  C_8
REMARK                            x       y       z     vdW  Elec       q    Type
REMARK                         _______ _______ _______ _____ _____    ______ ____
ROOT
ATOM      1  C   UNL     1      45.140   4.593  11.863  0.00  0.00    +0.000 A 
ATOM      2  C   UNL     1      45.556   3.494  12.611  0.00  0.00    +0.000 A 
ATOM      3  C   UNL     1      46.647   3.651  13.450  0.00  0.00    +0.000 A 
ATOM      4  N   UNL     1      47.347   4.804  13.591  0.00  0.00    +0.000 NA
ATOM      5  C   UNL     1      46.951   5.871  12.872  0.00  0.00    +0.000 A 
ATOM      6  N   UNL     1      47.613   7.092  12.977  0.00  0.00    +0.000 N 
ATOM      7  C   UNL     1      48.542   7.267  14.105  0.00  0.00    +0.000 C 
ATOM      8  C   UNL     1      48.853   8.777  14.216  0.00  0.00    +0.000 C 
ATOM      9  O   UNL     1      49.390   9.313  12.990  0.00  0.00    +0.000 OA
ATOM     10  C   UNL     1      48.490   9.077  11.893  0.00  0.00    +0.000 C 
ATOM     11  C   UNL     1      48.212   7.577  11.721  0.00  0.00    +0.000 C 
ATOM     12  C   UNL     1      45.841   5.792  12.026  0.00  0.00    +0.000 A 
ENDROOT
BRANCH   1  13
ATOM     13  C   UNL     1      43.968   4.512  10.916  0.00  0.00    +0.000 C 
BRANCH  13  19
ATOM     14 CL   UNL     1      47.581   1.215   6.454  0.00  0.00    +0.000 Cl
ATOM     15  C   UNL     1      46.667   2.291   7.416  0.00  0.00    +0.000 A 
ATOM     16  C   UNL     1      45.772   1.855   8.362  0.00  0.00    +0.000 A 
ATOM     17  N   UNL     1      45.018   2.685   9.120  0.00  0.00    +0.000 NA
ATOM     18  C   UNL     1      45.163   4.005   8.910  0.00  0.00    +0.000 A 
ATOM     19  N   UNL     1      44.378   4.918   9.591  0.00  0.00    +0.000 N 
ATOM     20  N   UNL     1      46.033   4.525   8.030  0.00  0.00    +0.000 NA
ATOM     21  C   UNL     1      46.763   3.657   7.297  0.00  0.00    +0.000 A 
ATOM     22  H   UNL     1      44.835   5.819   9.527  0.00  0.00    +0.000 HD
ENDBRANCH  13  19
ENDBRANCH   1  13
TORSDOF 2
ENDMDL
MODEL 2
REMARK VINA RESULT:    -6.958      3.396      6.489
REMARK INTER + INTRA:          -8.088
REMARK INTER:                  -7.705
REMARK INTRA:                  -0.383
REMARK UNBOUND:                -0.317
REMARK  Name = 
REMARK  2 active torsions:
REMARK  status: ('A' for Active; 'I' for Inactive)
REMARK    1  A    between atoms: N_6  and  C_7
REMARK    2  A    between atoms: C_7  and  C_8
REMARK                            x       y       z     vdW  Elec       q    Type
REMARK                         _______ _______ _______ _____ _____    ______ ____
ROOT
ATOM      1  C   UNL     1      44.350   5.084  11.732  0.00  0.00    +0.000 A 
ATOM      2  C   UNL     1      43.389   4.228  12.264  0.00  0.00    +0.000 A 
ATOM      3  C   UNL     1      43.217   2.989  11.669  0.00  0.00    +0.000 A 
ATOM      4  N   UNL     1      43.919   2.551  10.593  0.00  0.00    +0.000 NA
ATOM      5  C   UNL     1      44.850   3.373  10.074  0.00  0.00    +0.000 A 
ATOM      6  N   UNL     1      45.619   2.983   8.980  0.00  0.00    +0.000 N 
ATOM      7  C   UNL     1      45.604   1.558   8.610  0.00  0.00    +0.000 C 
ATOM      8  C   UNL     1      46.783   1.322   7.639  0.00  0.00    +0.000 C 
ATOM      9  O   UNL     1      46.714   2.177   6.480  0.00  0.00    +0.000 OA
ATOM     10  C   UNL     1      46.670   3.561   6.871  0.00  0.00    +0.000 C 
ATOM     11  C   UNL     1      45.470   3.838   7.789  0.00  0.00    +0.000 C 
ATOM     12  C   UNL     1      45.095   4.626  10.642  0.00  0.00    +0.000 A 
ENDROOT
BRANCH   1  13
ATOM     13  C   UNL     1      44.599   6.456  12.310  0.00  0.00    +0.000 C 
BRANCH  13  19
ATOM     14 CL   UNL     1      50.816   8.724  12.119  0.00  0.00    +0.000 Cl
ATOM     15  C   UNL     1      49.290   8.018  12.425  0.00  0.00    +0.000 A 
ATOM     16  C   UNL     1      48.132   8.494  11.863  0.00  0.00    +0.000 A 
ATOM     17  N   UNL     1      46.908   7.969  12.108  0.00  0.00    +0.000 NA
ATOM     18  C   UNL     1      46.849   6.931  12.960  0.00  0.00    +0.000 A 
ATOM     19  N   UNL     1      45.630   6.384  13.319  0.00  0.00    +0.000 N 
ATOM     20  N   UNL     1      47.930   6.379  13.534  0.00  0.00    +0.000 NA
ATOM     21  C   UNL     1      49.127   6.937  13.259  0.00  0.00    +0.000 A 
ATOM     22  H   UNL     1      45.812   5.462  13.700  0.00  0.00    +0.000 HD
ENDBRANCH  13  19
ENDBRANCH   1  13
TORSDOF 2
ENDMDL
MODEL 3
REMARK VINA RESULT:    -6.850      3.809      6.730
REMARK INTER + INTRA:          -7.968
REMARK INTER:                  -7.637
REMARK INTRA:                  -0.331
REMARK UNBOUND:                -0.317
REMARK  Name = 
REMARK  2 active torsions:
REMARK  status: ('A' for Active; 'I' for Inactive)
REMARK    1  A    between atoms: N_6  and  C_7
REMARK    2  A    between atoms: C_7  and  C_8
REMARK                            x       y       z     vdW  Elec       q    Type
REMARK                         _______ _______ _______ _____ _____    ______ ____
ROOT
ATOM      1  C   UNL     1      44.416   4.866  12.197  0.00  0.00    +0.000 A 
ATOM      2  C   UNL     1      43.414   4.005  12.636  0.00  0.00    +0.000 A 
ATOM      3  C   UNL     1      43.178   2.851  11.907  0.00  0.00    +0.000 A 
ATOM      4  N   UNL     1      43.854   2.502  10.783  0.00  0.00    +0.000 NA
ATOM      5  C   UNL     1      44.825   3.329  10.353  0.00  0.00    +0.000 A 
ATOM      6  N   UNL     1      45.571   3.027   9.216  0.00  0.00    +0.000 N 
ATOM      7  C   UNL     1      45.483   1.656   8.689  0.00  0.00    +0.000 C 
ATOM      8  C   UNL     1      46.647   1.471   7.688  0.00  0.00    +0.000 C 
ATOM      9  O   UNL     1      46.619   2.454   6.634  0.00  0.00    +0.000 OA
ATOM     10  C   UNL     1      46.647   3.785   7.178  0.00  0.00    +0.000 C 
ATOM     11  C   UNL     1      45.465   4.017   8.130  0.00  0.00    +0.000 C 
ATOM     12  C   UNL     1      45.135   4.496  11.056  0.00  0.00    +0.000 A 
ENDROOT
BRANCH   1  13
ATOM     13  C   UNL     1      44.736   6.150  12.923  0.00  0.00    +0.000 C 
BRANCH  13  19
ATOM     14 CL   UNL     1      48.174  11.706  11.855  0.00  0.00    +0.000 Cl
ATOM     15  C   UNL     1      47.075  10.403  11.973  0.00  0.00    +0.000 A 
ATOM     16  C   UNL     1      47.483   9.115  12.217  0.00  0.00    +0.000 A 
ATOM     17  N   UNL     1      46.636   8.061  12.291  0.00  0.00    +0.000 NA
ATOM     18  C   UNL     1      45.330   8.314  12.101  0.00  0.00    +0.000 A 
ATOM     19  N   UNL     1      44.408   7.282  12.088  0.00  0.00    +0.000 N 
ATOM     20  N   UNL     1      44.835   9.543  11.886  0.00  0.00    +0.000 NA
ATOM     21  C   UNL     1      45.718  10.561  11.822  0.00  0.00    +0.000 A 
ATOM     22  H   UNL     1      43.493   7.691  12.238  0.00  0.00    +0.000 HD
ENDBRANCH  13  19
ENDBRANCH   1  13
TORSDOF 2
ENDMDL
MODEL 4
REMARK VINA RESULT:    -6.584      1.882      2.813
REMARK INTER + INTRA:          -7.671
REMARK INTER:                  -7.394
REMARK INTRA:                  -0.276
REMARK UNBOUND:                -0.317
REMARK  Name = 
REMARK  2 active torsions:
REMARK  status: ('A' for Active; 'I' for Inactive)
REMARK    1  A    between atoms: N_6  and  C_7
REMARK    2  A    between atoms: C_7  and  C_8
REMARK                            x       y       z     vdW  Elec       q    Type
REMARK                         _______ _______ _______ _____ _____    ______ ____
ROOT
ATOM      1  C   UNL     1      45.369   5.263  11.723  0.00  0.00    +0.000 A 
ATOM      2  C   UNL     1      45.139   6.610  11.457  0.00  0.00    +0.000 A 
ATOM      3  C   UNL     1      45.761   7.550  12.261  0.00  0.00    +0.000 A 
ATOM      4  N   UNL     1      46.578   7.249  13.302  0.00  0.00    +0.000 NA
ATOM      5  C   UNL     1      46.806   5.949  13.565  0.00  0.00    +0.000 A 
ATOM      6  N   UNL     1      47.646   5.566  14.608  0.00  0.00    +0.000 N 
ATOM      7  C   UNL     1      48.507   6.601  15.203  0.00  0.00    +0.000 C 
ATOM      8  C   UNL     1      49.578   5.878  16.051  0.00  0.00    +0.000 C 
ATOM      9  O   UNL     1      48.992   5.025  17.055  0.00  0.00    +0.000 OA
ATOM     10  C   UNL     1      48.110   4.061  16.453  0.00  0.00    +0.000 C 
ATOM     11  C   UNL     1      46.998   4.755  15.653  0.00  0.00    +0.000 C 
ATOM     12  C   UNL     1      46.233   4.948  12.776  0.00  0.00    +0.000 A 
ENDROOT
BRANCH   1  13
ATOM     13  C   UNL     1      44.726   4.169  10.905  0.00  0.00    +0.000 C 
BRANCH  13  19
ATOM     14 CL   UNL     1      47.591   1.144   5.759  0.00  0.00    +0.000 Cl
ATOM     15  C   UNL     1      46.785   2.137   6.893  0.00  0.00    +0.000 A 
ATOM     16  C   UNL     1      46.237   1.640   8.049  0.00  0.00    +0.000 A 
ATOM     17  N   UNL     1      45.573   2.399   8.952  0.00  0.00    +0.000 NA
ATOM     18  C   UNL     1      45.448   3.709   8.674  0.00  0.00    +0.000 A 
ATOM     19  N   UNL     1      44.722   4.540   9.508  0.00  0.00    +0.000 N 
ATOM     20  N   UNL     1      45.976   4.290   7.585  0.00  0.00    +0.000 NA
ATOM     21  C   UNL     1      46.629   3.491   6.715  0.00  0.00    +0.000 A 
ATOM     22  H   UNL     1      44.999   5.492   9.303  0.00  0.00    +0.000 HD
ENDBRANCH  13  19
ENDBRANCH   1  13
TORSDOF 2
ENDMDL
MODEL 5
REMARK VINA RESULT:    -6.495      4.323      7.434
REMARK INTER + INTRA:          -7.571
REMARK INTER:                  -7.222
REMARK INTRA:                  -0.349
REMARK UNBOUND:                -0.317
REMARK  Name = 
REMARK  2 active torsions:
REMARK  status: ('A' for Active; 'I' for Inactive)
REMARK    1  A    between atoms: N_6  and  C_7
REMARK    2  A    between atoms: C_7  and  C_8
REMARK                            x       y       z     vdW  Elec       q    Type
REMARK                         _______ _______ _______ _____ _____    ______ ____
ROOT
ATOM      1  C   UNL     1      47.919   6.372  14.147  0.00  0.00    +0.000 A 
ATOM      2  C   UNL     1      48.592   7.100  13.169  0.00  0.00    +0.000 A 
ATOM      3  C   UNL     1      48.083   7.090  11.881  0.00  0.00    +0.000 A 
ATOM      4  N   UNL     1      46.971   6.411  11.500  0.00  0.00    +0.000 NA
ATOM      5  C   UNL     1      46.315   5.706  12.440  0.00  0.00    +0.000 A 
ATOM      6  N   UNL     1      45.158   4.997  12.125  0.00  0.00    +0.000 N 
ATOM      7  C   UNL     1      44.511   5.288  10.835  0.00  0.00    +0.000 C 
ATOM      8  C   UNL     1      43.093   4.674  10.881  0.00  0.00    +0.000 C 
ATOM      9  O   UNL     1      43.123   3.259  11.159  0.00  0.00    +0.000 OA
ATOM     10  C   UNL     1      43.811   2.997  12.394  0.00  0.00    +0.000 C 
ATOM     11  C   UNL     1      45.245   3.544  12.354  0.00  0.00    +0.000 C 
ATOM     12  C   UNL     1      46.757   5.694  13.766  0.00  0.00    +0.000 A 
ENDROOT
BRANCH   1  13
ATOM     13  C   UNL     1      48.405   6.318  15.574  0.00  0.00    +0.000 C 
BRANCH  13  19
ATOM     14 CL   UNL     1      51.806   1.158  17.950  0.00  0.00    +0.000 Cl
ATOM     15  C   UNL     1      50.689   2.328  17.398  0.00  0.00    +0.000 A 
ATOM     16  C   UNL     1      50.995   3.665  17.331  0.00  0.00    +0.000 A 
ATOM     17  N   UNL     1      50.123   4.614  16.920  0.00  0.00    +0.000 NA
ATOM     18  C   UNL     1      48.890   4.203  16.575  0.00  0.00    +0.000 A 
ATOM     19  N   UNL     1      47.918   5.118  16.214  0.00  0.00    +0.000 N 
ATOM     20  N   UNL     1      48.509   2.916  16.580  0.00  0.00    +0.000 NA
ATOM     21  C   UNL     1      49.415   2.006  16.997  0.00  0.00    +0.000 A 
ATOM     22  H   UNL     1      47.196   4.612  15.714  0.00  0.00    +0.000 HD
ENDBRANCH  13  19
ENDBRANCH   1  13
TORSDOF 2
ENDMDL
MODEL 6
REMARK VINA RESULT:    -6.106      4.991      8.317
REMARK INTER + INTRA:          -7.138
REMARK INTER:                  -6.888
REMARK INTRA:                  -0.250
REMARK UNBOUND:                -0.317
REMARK  Name = 
REMARK  2 active torsions:
REMARK  status: ('A' for Active; 'I' for Inactive)
REMARK    1  A    between atoms: N_6  and  C_7
REMARK    2  A    between atoms: C_7  and  C_8
REMARK                            x       y       z     vdW  Elec       q    Type
REMARK                         _______ _______ _______ _____ _____    ______ ____
ROOT
ATOM      1  C   UNL     1      48.015   6.496  13.919  0.00  0.00    +0.000 A 
ATOM      2  C   UNL     1      48.560   7.276  12.903  0.00  0.00    +0.000 A 
ATOM      3  C   UNL     1      47.919   7.292  11.675  0.00  0.00    +0.000 A 
ATOM      4  N   UNL     1      46.794   6.590  11.388  0.00  0.00    +0.000 NA
ATOM      5  C   UNL     1      46.260   5.834  12.365  0.00  0.00    +0.000 A 
ATOM      6  N   UNL     1      45.097   5.099  12.147  0.00  0.00    +0.000 N 
ATOM      7  C   UNL     1      44.311   5.412  10.943  0.00  0.00    +0.000 C 
ATOM      8  C   UNL     1      42.923   4.751  11.114  0.00  0.00    +0.000 C 
ATOM      9  O   UNL     1      43.022   3.330  11.337  0.00  0.00    +0.000 OA
ATOM     10  C   UNL     1      43.843   3.050  12.484  0.00  0.00    +0.000 C 
ATOM     11  C   UNL     1      45.249   3.643  12.314  0.00  0.00    +0.000 C 
ATOM     12  C   UNL     1      46.839   5.794  13.636  0.00  0.00    +0.000 A 
ENDROOT
BRANCH   1  13
ATOM     13  C   UNL     1      48.650   6.411  15.285  0.00  0.00    +0.000 C 
BRANCH  13  19
ATOM     14 CL   UNL     1      49.448   4.923  21.686  0.00  0.00    +0.000 Cl
ATOM     15  C   UNL     1      49.058   5.078  20.030  0.00  0.00    +0.000 A 
ATOM     16  C   UNL     1      49.187   6.263  19.350  0.00  0.00    +0.000 A 
ATOM     17  N   UNL     1      48.862   6.418  18.045  0.00  0.00    +0.000 NA
ATOM     18  C   UNL     1      48.378   5.340  17.404  0.00  0.00    +0.000 A 
ATOM     19  N   UNL     1      47.954   5.434  16.090  0.00  0.00    +0.000 N 
ATOM     20  N   UNL     1      48.245   4.134  17.977  0.00  0.00    +0.000 NA
ATOM     21  C   UNL     1      48.582   4.029  19.280  0.00  0.00    +0.000 A 
ATOM     22  H   UNL     1      47.923   4.493  15.714  0.00  0.00    +0.000 HD
ENDBRANCH  13  19
ENDBRANCH   1  13
TORSDOF 2
ENDMDL
MODEL 7
REMARK VINA RESULT:    -5.991      5.557      7.498
REMARK INTER + INTRA:          -7.008
REMARK INTER:                  -6.660
REMARK INTRA:                  -0.348
REMARK UNBOUND:                -0.317
REMARK  Name = 
REMARK  2 active torsions:
REMARK  status: ('A' for Active; 'I' for Inactive)
REMARK    1  A    between atoms: N_6  and  C_7
REMARK    2  A    between atoms: C_7  and  C_8
REMARK                            x       y       z     vdW  Elec       q    Type
REMARK                         _______ _______ _______ _____ _____    ______ ____
ROOT
ATOM      1  C   UNL     1      45.781   9.178  12.219  0.00  0.00    +0.000 A 
ATOM      2  C   UNL     1      46.990   9.259  12.904  0.00  0.00    +0.000 A 
ATOM      3  C   UNL     1      47.529   8.092  13.420  0.00  0.00    +0.000 A 
ATOM      4  N   UNL     1      46.954   6.868  13.308  0.00  0.00    +0.000 NA
ATOM      5  C   UNL     1      45.786   6.781  12.646  0.00  0.00    +0.000 A 
ATOM      6  N   UNL     1      45.147   5.554  12.479  0.00  0.00    +0.000 N 
ATOM      7  C   UNL     1      45.923   4.338  12.769  0.00  0.00    +0.000 C 
ATOM      8  C   UNL     1      45.147   3.143  12.169  0.00  0.00    +0.000 C 
ATOM      9  O   UNL     1      43.802   3.056  12.681  0.00  0.00    +0.000 OA
ATOM     10  C   UNL     1      43.084   4.278  12.438  0.00  0.00    +0.000 C 
ATOM     11  C   UNL     1      43.802   5.476  13.077  0.00  0.00    +0.000 C 
ATOM     12  C   UNL     1      45.200   7.915  12.076  0.00  0.00    +0.000 A 
ENDROOT
BRANCH   1  13
ATOM     13  C   UNL     1      45.117  10.399  11.632  0.00  0.00    +0.000 C 
BRANCH  13  19
ATOM     14 CL   UNL     1      38.713  12.036  12.010  0.00  0.00    +0.000 Cl
ATOM     15  C   UNL     1      40.280  11.431  11.698  0.00  0.00    +0.000 A 
ATOM     16  C   UNL     1      41.417  12.132  12.013  0.00  0.00    +0.000 A 
ATOM     17  N   UNL     1      42.669  11.687  11.754  0.00  0.00    +0.000 NA
ATOM     18  C   UNL     1      42.779  10.493  11.146  0.00  0.00    +0.000 A 
ATOM     19  N   UNL     1      44.019  10.000  10.782  0.00  0.00    +0.000 N 
ATOM     20  N   UNL     1      41.727   9.723  10.827  0.00  0.00    +0.000 NA
ATOM     21  C   UNL     1      40.499  10.210  11.105  0.00  0.00    +0.000 A 
ATOM     22  H   UNL     1      43.916   9.003  10.631  0.00  0.00    +0.000 HD
ENDBRANCH  13  19
ENDBRANCH   1  13
TORSDOF 2
ENDMDL
MODEL 8
REMARK VINA RESULT:    -5.848      4.323      5.628
REMARK INTER + INTRA:          -6.849
REMARK INTER:                  -6.597
REMARK INTRA:                  -0.252
REMARK UNBOUND:                -0.317
REMARK  Name = 
REMARK  2 active torsions:
REMARK  status: ('A' for Active; 'I' for Inactive)
REMARK    1  A    between atoms: N_6  and  C_7
REMARK    2  A    between atoms: C_7  and  C_8
REMARK                            x       y       z     vdW  Elec       q    Type
REMARK                         _______ _______ _______ _____ _____    ______ ____
ROOT
ATOM      1  C   UNL     1      47.829   3.805  16.539  0.00  0.00    +0.000 A 
ATOM      2  C   UNL     1      48.507   2.829  17.263  0.00  0.00    +0.000 A 
ATOM      3  C   UNL     1      48.952   3.150  18.535  0.00  0.00    +0.000 A 
ATOM      4  N   UNL     1      48.778   4.359  19.126  0.00  0.00    +0.000 NA
ATOM      5  C   UNL     1      48.121   5.307  18.432  0.00  0.00    +0.000 A 
ATOM      6  N   UNL     1      47.892   6.566  18.983  0.00  0.00    +0.000 N 
ATOM      7  C   UNL     1      48.106   6.726  20.430  0.00  0.00    +0.000 C 
ATOM      8  C   UNL     1      47.448   8.061  20.849  0.00  0.00    +0.000 C 
ATOM      9  O   UNL     1      47.966   9.181  20.102  0.00  0.00    +0.000 OA
ATOM     10  C   UNL     1      47.798   8.973  18.689  0.00  0.00    +0.000 C 
ATOM     11  C   UNL     1      48.496   7.683  18.234  0.00  0.00    +0.000 C 
ATOM     12  C   UNL     1      47.621   5.043  17.155  0.00  0.00    +0.000 A 
ENDROOT
BRANCH   1  13
ATOM     13  C   UNL     1      47.316   3.547  15.143  0.00  0.00    +0.000 C 
BRANCH  13  19
ATOM     14 CL   UNL     1      43.965   4.327   9.487  0.00  0.00    +0.000 Cl
ATOM     15  C   UNL     1      44.764   4.409  10.995  0.00  0.00    +0.000 A 
ATOM     16  C   UNL     1      45.001   3.297  11.765  0.00  0.00    +0.000 A 
ATOM     17  N   UNL     1      45.610   3.337  12.973  0.00  0.00    +0.000 NA
ATOM     18  C   UNL     1      45.986   4.546  13.428  0.00  0.00    +0.000 A 
ATOM     19  N   UNL     1      46.548   4.681  14.684  0.00  0.00    +0.000 N 
ATOM     20  N   UNL     1      45.823   5.683  12.734  0.00  0.00    +0.000 NA
ATOM     21  C   UNL     1      45.211   5.592  11.534  0.00  0.00    +0.000 A 
ATOM     22  H   UNL     1      47.024   5.576  14.708  0.00  0.00    +0.000 HD
ENDBRANCH  13  19
ENDBRANCH   1  13
TORSDOF 2
ENDMDL
MODEL 9
REMARK VINA RESULT:    -5.780      4.322      7.708
REMARK INTER + INTRA:          -6.773
REMARK INTER:                  -6.388
REMARK INTRA:                  -0.385
REMARK UNBOUND:                -0.317
REMARK  Name = 
REMARK  2 active torsions:
REMARK  status: ('A' for Active; 'I' for Inactive)
REMARK    1  A    between atoms: N_6  and  C_7
REMARK    2  A    between atoms: C_7  and  C_8
REMARK                            x       y       z     vdW  Elec       q    Type
REMARK                         _______ _______ _______ _____ _____    ______ ____
ROOT
ATOM      1  C   UNL     1      47.754   7.410  13.207  0.00  0.00    +0.000 A 
ATOM      2  C   UNL     1      47.160   8.666  13.300  0.00  0.00    +0.000 A 
ATOM      3  C   UNL     1      45.835   8.792  12.916  0.00  0.00    +0.000 A 
ATOM      4  N   UNL     1      45.072   7.772  12.448  0.00  0.00    +0.000 NA
ATOM      5  C   UNL     1      45.639   6.555  12.356  0.00  0.00    +0.000 A 
ATOM      6  N   UNL     1      44.911   5.459  11.898  0.00  0.00    +0.000 N 
ATOM      7  C   UNL     1      43.448   5.600  11.816  0.00  0.00    +0.000 C 
ATOM      8  C   UNL     1      42.857   4.181  11.649  0.00  0.00    +0.000 C 
ATOM      9  O   UNL     1      43.396   3.500  10.498  0.00  0.00    +0.000 OA
ATOM     10  C   UNL     1      44.831   3.428  10.574  0.00  0.00    +0.000 C 
ATOM     11  C   UNL     1      45.449   4.830  10.679  0.00  0.00    +0.000 C 
ATOM     12  C   UNL     1      46.963   6.350  12.752  0.00  0.00    +0.000 A 
ENDROOT
BRANCH   1  13
ATOM     13  C   UNL     1      49.195   7.181  13.593  0.00  0.00    +0.000 C 
BRANCH  13  19
ATOM     14 CL   UNL     1      48.440   4.782  19.717  0.00  0.00    +0.000 Cl
ATOM     15  C   UNL     1      48.699   5.655  18.272  0.00  0.00    +0.000 A 
ATOM     16  C   UNL     1      49.035   5.041  17.090  0.00  0.00    +0.000 A 
ATOM     17  N   UNL     1      49.270   5.710  15.937  0.00  0.00    +0.000 NA
ATOM     18  C   UNL     1      49.173   7.051  15.979  0.00  0.00    +0.000 A 
ATOM     19  N   UNL     1      49.469   7.813  14.863  0.00  0.00    +0.000 N 
ATOM     20  N   UNL     1      48.823   7.736  17.079  0.00  0.00    +0.000 NA
ATOM     21  C   UNL     1      48.598   7.024  18.204  0.00  0.00    +0.000 A 
ATOM     22  H   UNL     1      49.053   8.726  15.001  0.00  0.00    +0.000 HD
ENDBRANCH  13  19
ENDBRANCH   1  13
TORSDOF 2
ENDMDL
