MODEL 1
REMARK VINA RESULT:    -8.205      0.000      0.000
REMARK INTER + INTRA:         -12.700
REMARK INTER:                 -11.563
REMARK INTRA:                  -1.137
REMARK UNBOUND:                -1.137
REMARK  Name = 
REMARK  7 active torsions:
REMARK  status: ('A' for Active; 'I' for Inactive)
REMARK    1  A    between atoms: C_2  and  C_20
REMARK    2  A    between atoms: N_3  and  C_4
REMARK    3  A    between atoms: C_4  and  C_5
REMARK    4  A    between atoms: C_8  and  C_9
REMARK    5  A    between atoms: C_9  and  O_10
REMARK    6  A    between atoms: O_10  and  C_11
REMARK    7  A    between atoms: C_11  and  C_12
REMARK                            x       y       z     vdW  Elec       q    Type
REMARK                         _______ _______ _______ _____ _____    ______ ____
ROOT
ATOM      1  C   UNL     1      48.179   6.863  13.326  0.00  0.00    +0.000 C 
ENDROOT
BRANCH   1   2
ATOM      2  C   UNL     1      47.074   6.093  12.650  0.00  0.00    +0.000 A 
ATOM      3  C   UNL     1      46.522   4.969  13.277  0.00  0.00    +0.000 A 
ATOM      4  C   UNL     1      45.466   4.273  12.685  0.00  0.00    +0.000 A 
ATOM      5  C   UNL     1      44.948   4.685  11.451  0.00  0.00    +0.000 A 
ATOM      6  C   UNL     1      45.519   5.789  10.807  0.00  0.00    +0.000 A 
ATOM      7  C   UNL     1      46.581   6.480  11.396  0.00  0.00    +0.000 A 
BRANCH   5   8
ATOM      8  C   UNL     1      43.759   3.976  10.851  0.00  0.00    +0.000 C 
BRANCH   8   9
ATOM      9  O   UNL     1      44.012   3.532   9.516  0.00  0.00    +0.000 OA
BRANCH   9  10
ATOM     10  C   UNL     1      44.751   2.313   9.477  0.00  0.00    +0.000 C 
BRANCH  10  11
ATOM     11  C   UNL     1      45.733   2.357   8.337  0.00  0.00    +0.000 A 
ATOM     12  C   UNL     1      46.466   1.215   7.987  0.00  0.00    +0.000 A 
ATOM     13  C   UNL     1      47.339   1.239   6.898  0.00  0.00    +0.000 A 
ATOM     14  C   UNL     1      47.487   2.406   6.152  0.00  0.00    +0.000 A 
ATOM     15  C   UNL     1      46.776   3.553   6.502  0.00  0.00    +0.000 A 
ATOM     16  C   UNL     1      45.905   3.531   7.591  0.00  0.00    +0.000 A 
ENDBRANCH  10  11
ENDBRANCH   9  10
ENDBRANCH   8   9
ENDBRANCH   5   8
ENDBRANCH   1   2
BRANCH   1  19
ATOM     17  O   UNL     1      50.322   6.875  15.189  0.00  0.00    +0.000 OA
ATOM     18  C   UNL     1      49.165   6.881  15.596  0.00  0.00    +0.000 C 
ATOM     19  N   UNL     1      48.078   6.809  14.760  0.00  0.00    +0.000 N 
ATOM     20  H   UNL     1      47.153   6.981  15.137  0.00  0.00    +0.000 HD
BRANCH  18  21
ATOM     21  C   UNL     1      48.846   6.890  17.029  0.00  0.00    +0.000 A 
ATOM     22  C   UNL     1      48.453   8.066  17.654  0.00  0.00    +0.000 A 
ATOM     23  S   UNL     1      48.174   7.887  19.329  0.00  0.00    +0.000 S 
ATOM     24  C   UNL     1      48.525   6.222  19.268  0.00  0.00    +0.000 A 
ATOM     25  N   UNL     1      48.460   5.446  20.384  0.00  0.00    +0.000 NA
ATOM     26  C   UNL     1      48.709   4.194  20.179  0.00  0.00    +0.000 A 
ATOM     27  N   UNL     1      49.020   3.649  18.962  0.00  0.00    +0.000 N 
ATOM     28  C   UNL     1      49.184   4.407  17.831  0.00  0.00    +0.000 A 
ATOM     29  O   UNL     1      49.624   3.909  16.799  0.00  0.00    +0.000 OA
ATOM     30  C   UNL     1      48.868   5.813  17.991  0.00  0.00    +0.000 A 
ATOM     31  H   UNL     1      49.239   2.668  18.875  0.00  0.00    +0.000 HD
ENDBRANCH  18  21
ENDBRANCH   1  19
TORSDOF 7
ENDMDL
MODEL 2
REMARK VINA RESULT:    -7.920      1.259      1.622
REMARK INTER + INTRA:         -12.299
REMARK INTER:                 -11.210
REMARK INTRA:                  -1.089
REMARK UNBOUND:                -1.137
REMARK  Name = 
REMARK  7 active torsions:
REMARK  status: ('A' for Active; 'I' for Inactive)
REMARK    1  A    between atoms: C_2  and  C_20
REMARK    2  A    between atoms: N_3  and  C_4
REMARK    3  A    between atoms: C_4  and  C_5
REMARK    4  A    between atoms: C_8  and  C_9
REMARK    5  A    between atoms: C_9  and  O_10
REMARK    6  A    between atoms: O_10  and  C_11
REMARK    7  A    between atoms: C_11  and  C_12
REMARK                            x       y       z     vdW  Elec       q    Type
REMARK                         _______ _______ _______ _____ _____    ______ ____
ROOT
ATOM      1  C   UNL     1      47.424   7.942  13.585  0.00  0.00    +0.000 C 
ENDROOT
BRANCH   1   2
ATOM      2  C   UNL     1      46.444   7.116  12.793  0.00  0.00    +0.000 A 
ATOM      3  C   UNL     1      46.507   5.717  12.846  0.00  0.00    +0.000 A 
ATOM      4  C   UNL     1      45.578   4.938  12.154  0.00  0.00    +0.000 A 
ATOM      5  C   UNL     1      44.571   5.544  11.391  0.00  0.00    +0.000 A 
ATOM      6  C   UNL     1      44.526   6.941  11.310  0.00  0.00    +0.000 A 
ATOM      7  C   UNL     1      45.461   7.720  11.997  0.00  0.00    +0.000 A 
BRANCH   5   8
ATOM      8  C   UNL     1      43.525   4.700  10.706  0.00  0.00    +0.000 C 
BRANCH   8   9
ATOM      9  O   UNL     1      44.102   3.654   9.922  0.00  0.00    +0.000 OA
BRANCH   9  10
ATOM     10  C   UNL     1      44.515   4.101   8.633  0.00  0.00    +0.000 C 
BRANCH  10  11
ATOM     11  C   UNL     1      45.522   3.137   8.065  0.00  0.00    +0.000 A 
ATOM     12  C   UNL     1      46.472   3.571   7.131  0.00  0.00    +0.000 A 
ATOM     13  C   UNL     1      47.439   2.691   6.642  0.00  0.00    +0.000 A 
ATOM     14  C   UNL     1      47.460   1.369   7.080  0.00  0.00    +0.000 A 
ATOM     15  C   UNL     1      46.508   0.922   7.994  0.00  0.00    +0.000 A 
ATOM     16  C   UNL     1      45.541   1.800   8.484  0.00  0.00    +0.000 A 
ENDBRANCH  10  11
ENDBRANCH   9  10
ENDBRANCH   8   9
ENDBRANCH   5   8
ENDBRANCH   1   2
BRANCH   1  19
ATOM     17  O   UNL     1      49.996   7.082  14.426  0.00  0.00    +0.000 OA
ATOM     18  C   UNL     1      49.046   6.993  15.196  0.00  0.00    +0.000 C 
ATOM     19  N   UNL     1      47.761   7.325  14.840  0.00  0.00    +0.000 N 
ATOM     20  H   UNL     1      47.050   7.386  15.560  0.00  0.00    +0.000 HD
BRANCH  18  21
ATOM     21  C   UNL     1      49.193   6.447  16.550  0.00  0.00    +0.000 A 
ATOM     22  C   UNL     1      49.860   7.170  17.531  0.00  0.00    +0.000 A 
ATOM     23  S   UNL     1      49.970   6.350  19.025  0.00  0.00    +0.000 S 
ATOM     24  C   UNL     1      49.091   5.020  18.426  0.00  0.00    +0.000 A 
ATOM     25  N   UNL     1      48.813   3.946  19.214  0.00  0.00    +0.000 NA
ATOM     26  C   UNL     1      48.101   3.032  18.639  0.00  0.00    +0.000 A 
ATOM     27  N   UNL     1      47.646   3.094  17.348  0.00  0.00    +0.000 N 
ATOM     28  C   UNL     1      47.979   4.113  16.493  0.00  0.00    +0.000 A 
ATOM     29  O   UNL     1      47.693   4.052  15.302  0.00  0.00    +0.000 OA
ATOM     30  C   UNL     1      48.735   5.192  17.100  0.00  0.00    +0.000 A 
ATOM     31  H   UNL     1      47.124   2.330  16.947  0.00  0.00    +0.000 HD
ENDBRANCH  18  21
ENDBRANCH   1  19
TORSDOF 7
ENDMDL
MODEL 3
REMARK VINA RESULT:    -7.812      1.452      2.387
REMARK INTER + INTRA:         -12.145
REMARK INTER:                 -10.925
REMARK INTRA:                  -1.221
REMARK UNBOUND:                -1.137
REMARK  Name = 
REMARK  7 active torsions:
REMARK  status: ('A' for Active; 'I' for Inactive)
REMARK    1  A    between atoms: C_2  and  C_20
REMARK    2  A    between atoms: N_3  and  C_4
REMARK    3  A    between atoms: C_4  and  C_5
REMARK    4  A    between atoms: C_8  and  C_9
REMARK    5  A    between atoms: C_9  and  O_10
REMARK    6  A    between atoms: O_10  and  C_11
REMARK    7  A    between atoms: C_11  and  C_12
REMARK                            x       y       z     vdW  Elec       q    Type
REMARK                         _______ _______ _______ _____ _____    ______ ____
ROOT
ATOM      1  C   UNL     1      47.879   7.031  13.671  0.00  0.00    +0.000 C 
ENDROOT
BRANCH   1   2
ATOM      2  C   UNL     1      46.843   6.208  12.949  0.00  0.00    +0.000 A 
ATOM      3  C   UNL     1      46.353   5.033  13.534  0.00  0.00    +0.000 A 
ATOM      4  C   UNL     1      45.360   4.285  12.899  0.00  0.00    +0.000 A 
ATOM      5  C   UNL     1      44.843   4.695  11.664  0.00  0.00    +0.000 A 
ATOM      6  C   UNL     1      45.353   5.851  11.062  0.00  0.00    +0.000 A 
ATOM      7  C   UNL     1      46.353   6.595  11.694  0.00  0.00    +0.000 A 
BRANCH   5   8
ATOM      8  C   UNL     1      43.718   3.925  11.017  0.00  0.00    +0.000 C 
BRANCH   8   9
ATOM      9  O   UNL     1      43.994   3.610   9.650  0.00  0.00    +0.000 OA
BRANCH   9  10
ATOM     10  C   UNL     1      44.585   2.322   9.496  0.00  0.00    +0.000 C 
BRANCH  10  11
ATOM     11  C   UNL     1      45.587   2.360   8.372  0.00  0.00    +0.000 A 
ATOM     12  C   UNL     1      45.783   3.536   7.636  0.00  0.00    +0.000 A 
ATOM     13  C   UNL     1      46.747   3.589   6.628  0.00  0.00    +0.000 A 
ATOM     14  C   UNL     1      47.520   2.466   6.346  0.00  0.00    +0.000 A 
ATOM     15  C   UNL     1      47.320   1.285   7.060  0.00  0.00    +0.000 A 
ATOM     16  C   UNL     1      46.357   1.230   8.067  0.00  0.00    +0.000 A 
ENDBRANCH  10  11
ENDBRANCH   9  10
ENDBRANCH   8   9
ENDBRANCH   5   8
ENDBRANCH   1   2
BRANCH   1  19
ATOM     17  O   UNL     1      50.076   6.413  15.360  0.00  0.00    +0.000 OA
ATOM     18  C   UNL     1      48.965   6.583  15.850  0.00  0.00    +0.000 C 
ATOM     19  N   UNL     1      47.842   6.819  15.094  0.00  0.00    +0.000 N 
ATOM     20  H   UNL     1      46.989   7.112  15.555  0.00  0.00    +0.000 HD
BRANCH  18  21
ATOM     21  C   UNL     1      48.728   6.475  17.294  0.00  0.00    +0.000 A 
ATOM     22  C   UNL     1      48.966   5.278  17.958  0.00  0.00    +0.000 A 
ATOM     23  S   UNL     1      48.586   5.335  19.621  0.00  0.00    +0.000 S 
ATOM     24  C   UNL     1      48.131   6.972  19.521  0.00  0.00    +0.000 A 
ATOM     25  N   UNL     1      47.705   7.655  20.619  0.00  0.00    +0.000 NA
ATOM     26  C   UNL     1      47.436   8.901  20.402  0.00  0.00    +0.000 A 
ATOM     27  N   UNL     1      47.551   9.525  19.188  0.00  0.00    +0.000 N 
ATOM     28  C   UNL     1      47.890   8.855  18.040  0.00  0.00    +0.000 A 
ATOM     29  O   UNL     1      47.821   9.408  16.947  0.00  0.00    +0.000 OA
ATOM     30  C   UNL     1      48.251   7.464  18.233  0.00  0.00    +0.000 A 
ATOM     31  H   UNL     1      47.292  10.493  19.077  0.00  0.00    +0.000 HD
ENDBRANCH  18  21
ENDBRANCH   1  19
TORSDOF 7
ENDMDL
MODEL 4
REMARK VINA RESULT:    -7.489      1.976      3.396
REMARK INTER + INTRA:         -11.690
REMARK INTER:                 -10.480
REMARK INTRA:                  -1.211
REMARK UNBOUND:                -1.137
REMARK  Name = 
REMARK  7 active torsions:
REMARK  status: ('A' for Active; 'I' for Inactive)
REMARK    1  A    between atoms: C_2  and  C_20
REMARK    2  A    between atoms: N_3  and  C_4
REMARK    3  A    between atoms: C_4  and  C_5
REMARK    4  A    between atoms: C_8  and  C_9
REMARK    5  A    between atoms: C_9  and  O_10
REMARK    6  A    between atoms: O_10  and  C_11
REMARK    7  A    between atoms: C_11  and  C_12
REMARK                            x       y       z     vdW  Elec       q    Type
REMARK                         _______ _______ _______ _____ _____    ______ ____
ROOT
ATOM      1  C   UNL     1      46.805   4.229  14.922  0.00  0.00    +0.000 C 
ENDROOT
BRANCH   1   2
ATOM      2  C   UNL     1      46.121   4.351  13.585  0.00  0.00    +0.000 A 
ATOM      3  C   UNL     1      45.754   3.197  12.881  0.00  0.00    +0.000 A 
ATOM      4  C   UNL     1      45.078   3.293  11.664  0.00  0.00    +0.000 A 
ATOM      5  C   UNL     1      44.764   4.547  11.123  0.00  0.00    +0.000 A 
ATOM      6  C   UNL     1      45.158   5.702  11.809  0.00  0.00    +0.000 A 
ATOM      7  C   UNL     1      45.841   5.605  13.024  0.00  0.00    +0.000 A 
BRANCH   5   8
ATOM      8  C   UNL     1      43.969   4.646   9.845  0.00  0.00    +0.000 C 
BRANCH   8   9
ATOM      9  O   UNL     1      44.448   3.750   8.839  0.00  0.00    +0.000 OA
BRANCH   9  10
ATOM     10  C   UNL     1      45.630   4.229   8.201  0.00  0.00    +0.000 C 
BRANCH  10  11
ATOM     11  C   UNL     1      46.284   3.103   7.446  0.00  0.00    +0.000 A 
ATOM     12  C   UNL     1      46.397   1.831   8.024  0.00  0.00    +0.000 A 
ATOM     13  C   UNL     1      46.957   0.773   7.306  0.00  0.00    +0.000 A 
ATOM     14  C   UNL     1      47.412   0.979   6.006  0.00  0.00    +0.000 A 
ATOM     15  C   UNL     1      47.321   2.244   5.428  0.00  0.00    +0.000 A 
ATOM     16  C   UNL     1      46.763   3.303   6.144  0.00  0.00    +0.000 A 
ENDBRANCH  10  11
ENDBRANCH   9  10
ENDBRANCH   8   9
ENDBRANCH   5   8
ENDBRANCH   1   2
BRANCH   1  19
ATOM     17  O   UNL     1      48.984   4.485  16.725  0.00  0.00    +0.000 OA
ATOM     18  C   UNL     1      48.567   5.475  16.134  0.00  0.00    +0.000 C 
ATOM     19  N   UNL     1      47.477   5.444  15.299  0.00  0.00    +0.000 N 
ATOM     20  H   UNL     1      47.280   6.249  14.716  0.00  0.00    +0.000 HD
BRANCH  18  21
ATOM     21  C   UNL     1      49.160   6.803  16.332  0.00  0.00    +0.000 A 
ATOM     22  C   UNL     1      49.288   7.334  17.609  0.00  0.00    +0.000 A 
ATOM     23  S   UNL     1      49.955   8.906  17.630  0.00  0.00    +0.000 S 
ATOM     24  C   UNL     1      50.135   8.914  15.937  0.00  0.00    +0.000 A 
ATOM     25  N   UNL     1      50.671   9.985  15.290  0.00  0.00    +0.000 NA
ATOM     26  C   UNL     1      50.788   9.833  14.011  0.00  0.00    +0.000 A 
ATOM     27  N   UNL     1      50.415   8.710  13.321  0.00  0.00    +0.000 N 
ATOM     28  C   UNL     1      49.789   7.647  13.920  0.00  0.00    +0.000 A 
ATOM     29  O   UNL     1      49.321   6.733  13.247  0.00  0.00    +0.000 OA
ATOM     30  C   UNL     1      49.678   7.741  15.363  0.00  0.00    +0.000 A 
ATOM     31  H   UNL     1      50.500   8.668  12.318  0.00  0.00    +0.000 HD
ENDBRANCH  18  21
ENDBRANCH   1  19
TORSDOF 7
ENDMDL
MODEL 5
REMARK VINA RESULT:    -7.307      1.553      2.198
REMARK INTER + INTRA:         -11.435
REMARK INTER:                 -10.401
REMARK INTRA:                  -1.034
REMARK UNBOUND:                -1.137
REMARK  Name = 
REMARK  7 active torsions:
REMARK  status: ('A' for Active; 'I' for Inactive)
REMARK    1  A    between atoms: C_2  and  C_20
REMARK    2  A    between atoms: N_3  and  C_4
REMARK    3  A    between atoms: C_4  and  C_5
REMARK    4  A    between atoms: C_8  and  C_9
REMARK    5  A    between atoms: C_9  and  O_10
REMARK    6  A    between atoms: O_10  and  C_11
REMARK    7  A    between atoms: C_11  and  C_12
REMARK                            x       y       z     vdW  Elec       q    Type
REMARK                         _______ _______ _______ _____ _____    ______ ____
ROOT
ATOM      1  C   UNL     1      47.622   3.923  15.344  0.00  0.00    +0.000 C 
ENDROOT
BRANCH   1   2
ATOM      2  C   UNL     1      46.910   4.308  14.073  0.00  0.00    +0.000 A 
ATOM      3  C   UNL     1      46.264   3.328  13.309  0.00  0.00    +0.000 A 
ATOM      4  C   UNL     1      45.562   3.676  12.155  0.00  0.00    +0.000 A 
ATOM      5  C   UNL     1      45.498   5.012  11.738  0.00  0.00    +0.000 A 
ATOM      6  C   UNL     1      46.170   5.990  12.481  0.00  0.00    +0.000 A 
ATOM      7  C   UNL     1      46.879   5.639  13.633  0.00  0.00    +0.000 A 
BRANCH   5   8
ATOM      8  C   UNL     1      44.677   5.394  10.531  0.00  0.00    +0.000 C 
BRANCH   8   9
ATOM      9  O   UNL     1      45.315   5.031   9.305  0.00  0.00    +0.000 OA
BRANCH   9  10
ATOM     10  C   UNL     1      44.639   3.973   8.629  0.00  0.00    +0.000 C 
BRANCH  10  11
ATOM     11  C   UNL     1      45.649   3.046   8.008  0.00  0.00    +0.000 A 
ATOM     12  C   UNL     1      46.551   3.521   7.046  0.00  0.00    +0.000 A 
ATOM     13  C   UNL     1      47.522   2.676   6.507  0.00  0.00    +0.000 A 
ATOM     14  C   UNL     1      47.596   1.348   6.922  0.00  0.00    +0.000 A 
ATOM     15  C   UNL     1      46.692   0.861   7.864  0.00  0.00    +0.000 A 
ATOM     16  C   UNL     1      45.721   1.704   8.404  0.00  0.00    +0.000 A 
ENDBRANCH  10  11
ENDBRANCH   9  10
ENDBRANCH   8   9
ENDBRANCH   5   8
ENDBRANCH   1   2
BRANCH   1  19
ATOM     17  O   UNL     1      49.829   5.408  16.338  0.00  0.00    +0.000 OA
ATOM     18  C   UNL     1      48.694   5.687  16.709  0.00  0.00    +0.000 C 
ATOM     19  N   UNL     1      47.584   4.974  16.325  0.00  0.00    +0.000 N 
ATOM     20  H   UNL     1      46.664   5.346  16.529  0.00  0.00    +0.000 HD
BRANCH  18  21
ATOM     21  C   UNL     1      48.434   6.773  17.662  0.00  0.00    +0.000 A 
ATOM     22  C   UNL     1      48.521   8.099  17.259  0.00  0.00    +0.000 A 
ATOM     23  S   UNL     1      48.233   9.214  18.520  0.00  0.00    +0.000 S 
ATOM     24  C   UNL     1      47.939   7.964  19.637  0.00  0.00    +0.000 A 
ATOM     25  N   UNL     1      47.616   8.236  20.931  0.00  0.00    +0.000 NA
ATOM     26  C   UNL     1      47.377   7.190  21.653  0.00  0.00    +0.000 A 
ATOM     27  N   UNL     1      47.435   5.899  21.199  0.00  0.00    +0.000 N 
ATOM     28  C   UNL     1      47.843   5.577  19.930  0.00  0.00    +0.000 A 
ATOM     29  O   UNL     1      48.042   4.408  19.612  0.00  0.00    +0.000 OA
ATOM     30  C   UNL     1      48.076   6.713  19.061  0.00  0.00    +0.000 A 
ATOM     31  H   UNL     1      47.271   5.124  21.824  0.00  0.00    +0.000 HD
ENDBRANCH  18  21
ENDBRANCH   1  19
TORSDOF 7
ENDMDL
MODEL 6
REMARK VINA RESULT:    -7.150      3.532      8.886
REMARK INTER + INTRA:         -11.213
REMARK INTER:                  -9.512
REMARK INTRA:                  -1.701
REMARK UNBOUND:                -1.137
REMARK  Name = 
REMARK  7 active torsions:
REMARK  status: ('A' for Active; 'I' for Inactive)
REMARK    1  A    between atoms: C_2  and  C_20
REMARK    2  A    between atoms: N_3  and  C_4
REMARK    3  A    between atoms: C_4  and  C_5
REMARK    4  A    between atoms: C_8  and  C_9
REMARK    5  A    between atoms: C_9  and  O_10
REMARK    6  A    between atoms: O_10  and  C_11
REMARK    7  A    between atoms: C_11  and  C_12
REMARK                            x       y       z     vdW  Elec       q    Type
REMARK                         _______ _______ _______ _____ _____    ______ ____
ROOT
ATOM      1  C   UNL     1      47.565   7.636  11.987  0.00  0.00    +0.000 C 
ENDROOT
BRANCH   1   2
ATOM      2  C   UNL     1      48.044   7.773  13.410  0.00  0.00    +0.000 A 
ATOM      3  C   UNL     1      47.875   8.986  14.090  0.00  0.00    +0.000 A 
ATOM      4  C   UNL     1      48.272   9.114  15.422  0.00  0.00    +0.000 A 
ATOM      5  C   UNL     1      48.851   8.032  16.097  0.00  0.00    +0.000 A 
ATOM      6  C   UNL     1      49.050   6.828  15.410  0.00  0.00    +0.000 A 
ATOM      7  C   UNL     1      48.660   6.704  14.074  0.00  0.00    +0.000 A 
BRANCH   5   8
ATOM      8  C   UNL     1      49.210   8.151  17.558  0.00  0.00    +0.000 C 
BRANCH   8   9
ATOM      9  O   UNL     1      48.239   7.532  18.405  0.00  0.00    +0.000 OA
BRANCH   9  10
ATOM     10  C   UNL     1      48.783   6.450  19.158  0.00  0.00    +0.000 C 
BRANCH  10  11
ATOM     11  C   UNL     1      48.606   5.166  18.392  0.00  0.00    +0.000 A 
ATOM     12  C   UNL     1      49.709   4.346  18.116  0.00  0.00    +0.000 A 
ATOM     13  C   UNL     1      49.539   3.131  17.451  0.00  0.00    +0.000 A 
ATOM     14  C   UNL     1      48.267   2.727  17.053  0.00  0.00    +0.000 A 
ATOM     15  C   UNL     1      47.166   3.544  17.306  0.00  0.00    +0.000 A 
ATOM     16  C   UNL     1      47.333   4.759  17.969  0.00  0.00    +0.000 A 
ENDBRANCH  10  11
ENDBRANCH   9  10
ENDBRANCH   8   9
ENDBRANCH   5   8
ENDBRANCH   1   2
BRANCH   1  19
ATOM     17  O   UNL     1      44.738   7.374  12.039  0.00  0.00    +0.000 OA
ATOM     18  C   UNL     1      45.432   6.400  11.766  0.00  0.00    +0.000 C 
ATOM     19  N   UNL     1      46.805   6.431  11.786  0.00  0.00    +0.000 N 
ATOM     20  H   UNL     1      47.322   5.651  11.397  0.00  0.00    +0.000 HD
BRANCH  18  21
ATOM     21  C   UNL     1      44.846   5.089  11.466  0.00  0.00    +0.000 A 
ATOM     22  C   UNL     1      44.093   4.419  12.422  0.00  0.00    +0.000 A 
ATOM     23  S   UNL     1      43.538   2.890  11.903  0.00  0.00    +0.000 S 
ATOM     24  C   UNL     1      44.247   3.089  10.368  0.00  0.00    +0.000 A 
ATOM     25  N   UNL     1      44.135   2.129   9.410  0.00  0.00    +0.000 NA
ATOM     26  C   UNL     1      44.684   2.436   8.280  0.00  0.00    +0.000 A 
ATOM     27  N   UNL     1      45.337   3.612   8.023  0.00  0.00    +0.000 N 
ATOM     28  C   UNL     1      45.550   4.566   8.985  0.00  0.00    +0.000 A 
ATOM     29  O   UNL     1      46.280   5.528   8.765  0.00  0.00    +0.000 OA
ATOM     30  C   UNL     1      44.912   4.297  10.259  0.00  0.00    +0.000 A 
ATOM     31  H   UNL     1      45.775   3.776   7.130  0.00  0.00    +0.000 HD
ENDBRANCH  18  21
ENDBRANCH   1  19
TORSDOF 7
ENDMDL
MODEL 7
REMARK VINA RESULT:    -7.067      1.855      3.112
REMARK INTER + INTRA:         -11.096
REMARK INTER:                 -10.039
REMARK INTRA:                  -1.057
REMARK UNBOUND:                -1.137
REMARK  Name = 
REMARK  7 active torsions:
REMARK  status: ('A' for Active; 'I' for Inactive)
REMARK    1  A    between atoms: C_2  and  C_20
REMARK    2  A    between atoms: N_3  and  C_4
REMARK    3  A    between atoms: C_4  and  C_5
REMARK    4  A    between atoms: C_8  and  C_9
REMARK    5  A    between atoms: C_9  and  O_10
REMARK    6  A    between atoms: O_10  and  C_11
REMARK    7  A    between atoms: C_11  and  C_12
REMARK                            x       y       z     vdW  Elec       q    Type
REMARK                         _______ _______ _______ _____ _____    ______ ____
ROOT
ATOM      1  C   UNL     1      47.706   4.190  15.578  0.00  0.00    +0.000 C 
ENDROOT
BRANCH   1   2
ATOM      2  C   UNL     1      46.982   4.463  14.285  0.00  0.00    +0.000 A 
ATOM      3  C   UNL     1      46.288   3.431  13.641  0.00  0.00    +0.000 A 
ATOM      4  C   UNL     1      45.574   3.679  12.468  0.00  0.00    +0.000 A 
ATOM      5  C   UNL     1      45.546   4.965  11.913  0.00  0.00    +0.000 A 
ATOM      6  C   UNL     1      46.264   5.992  12.537  0.00  0.00    +0.000 A 
ATOM      7  C   UNL     1      46.985   5.740  13.707  0.00  0.00    +0.000 A 
BRANCH   5   8
ATOM      8  C   UNL     1      44.712   5.246  10.687  0.00  0.00    +0.000 C 
BRANCH   8   9
ATOM      9  O   UNL     1      44.478   4.068   9.912  0.00  0.00    +0.000 OA
BRANCH   9  10
ATOM     10  C   UNL     1      44.681   4.284   8.517  0.00  0.00    +0.000 C 
BRANCH  10  11
ATOM     11  C   UNL     1      45.658   3.267   7.988  0.00  0.00    +0.000 A 
ATOM     12  C   UNL     1      45.696   1.974   8.525  0.00  0.00    +0.000 A 
ATOM     13  C   UNL     1      46.564   1.014   8.002  0.00  0.00    +0.000 A 
ATOM     14  C   UNL     1      47.405   1.342   6.940  0.00  0.00    +0.000 A 
ATOM     15  C   UNL     1      47.388   2.631   6.411  0.00  0.00    +0.000 A 
ATOM     16  C   UNL     1      46.521   3.592   6.933  0.00  0.00    +0.000 A 
ENDBRANCH  10  11
ENDBRANCH   9  10
ENDBRANCH   8   9
ENDBRANCH   5   8
ENDBRANCH   1   2
BRANCH   1  19
ATOM     17  O   UNL     1      49.881   5.632  16.699  0.00  0.00    +0.000 OA
ATOM     18  C   UNL     1      48.731   5.986  16.938  0.00  0.00    +0.000 C 
ATOM     19  N   UNL     1      47.628   5.302  16.488  0.00  0.00    +0.000 N 
ATOM     20  H   UNL     1      46.713   5.727  16.577  0.00  0.00    +0.000 HD
BRANCH  18  21
ATOM     21  C   UNL     1      48.437   7.140  17.796  0.00  0.00    +0.000 A 
ATOM     22  C   UNL     1      48.227   6.968  19.158  0.00  0.00    +0.000 A 
ATOM     23  S   UNL     1      47.851   8.418  19.977  0.00  0.00    +0.000 S 
ATOM     24  C   UNL     1      47.999   9.332  18.548  0.00  0.00    +0.000 A 
ATOM     25  N   UNL     1      47.812  10.680  18.551  0.00  0.00    +0.000 NA
ATOM     26  C   UNL     1      48.001  11.247  17.404  0.00  0.00    +0.000 A 
ATOM     27  N   UNL     1      48.355  10.589  16.256  0.00  0.00    +0.000 N 
ATOM     28  C   UNL     1      48.465   9.224  16.189  0.00  0.00    +0.000 A 
ATOM     29  O   UNL     1      48.620   8.658  15.111  0.00  0.00    +0.000 OA
ATOM     30  C   UNL     1      48.314   8.539  17.459  0.00  0.00    +0.000 A 
ATOM     31  H   UNL     1      48.452  11.086  15.384  0.00  0.00    +0.000 HD
ENDBRANCH  18  21
ENDBRANCH   1  19
TORSDOF 7
ENDMDL
MODEL 8
REMARK VINA RESULT:    -6.975      3.559      6.167
REMARK INTER + INTRA:         -10.966
REMARK INTER:                 -10.221
REMARK INTRA:                  -0.746
REMARK UNBOUND:                -1.137
REMARK  Name = 
REMARK  7 active torsions:
REMARK  status: ('A' for Active; 'I' for Inactive)
REMARK    1  A    between atoms: C_2  and  C_20
REMARK    2  A    between atoms: N_3  and  C_4
REMARK    3  A    between atoms: C_4  and  C_5
REMARK    4  A    between atoms: C_8  and  C_9
REMARK    5  A    between atoms: C_9  and  O_10
REMARK    6  A    between atoms: O_10  and  C_11
REMARK    7  A    between atoms: C_11  and  C_12
REMARK                            x       y       z     vdW  Elec       q    Type
REMARK                         _______ _______ _______ _____ _____    ______ ____
ROOT
ATOM      1  C   UNL     1      44.164   3.853  10.045  0.00  0.00    +0.000 C 
ENDROOT
BRANCH   1   2
ATOM      2  C   UNL     1      45.041   3.257   8.974  0.00  0.00    +0.000 A 
ATOM      3  C   UNL     1      45.511   4.061   7.928  0.00  0.00    +0.000 A 
ATOM      4  C   UNL     1      46.362   3.534   6.955  0.00  0.00    +0.000 A 
ATOM      5  C   UNL     1      46.753   2.190   7.007  0.00  0.00    +0.000 A 
ATOM      6  C   UNL     1      46.260   1.376   8.033  0.00  0.00    +0.000 A 
ATOM      7  C   UNL     1      45.402   1.903   9.002  0.00  0.00    +0.000 A 
BRANCH   5   8
ATOM      8  C   UNL     1      47.732   1.644   5.996  0.00  0.00    +0.000 C 
BRANCH   8   9
ATOM      9  O   UNL     1      47.386   0.326   5.566  0.00  0.00    +0.000 OA
BRANCH   9  10
ATOM     10  C   UNL     1      46.959   0.289   4.206  0.00  0.00    +0.000 C 
BRANCH  10  11
ATOM     11  C   UNL     1      47.059  -1.120   3.686  0.00  0.00    +0.000 A 
ATOM     12  C   UNL     1      47.742  -1.389   2.492  0.00  0.00    +0.000 A 
ATOM     13  C   UNL     1      47.880  -2.700   2.035  0.00  0.00    +0.000 A 
ATOM     14  C   UNL     1      47.334  -3.753   2.765  0.00  0.00    +0.000 A 
ATOM     15  C   UNL     1      46.637  -3.495   3.944  0.00  0.00    +0.000 A 
ATOM     16  C   UNL     1      46.496  -2.185   4.403  0.00  0.00    +0.000 A 
ENDBRANCH  10  11
ENDBRANCH   9  10
ENDBRANCH   8   9
ENDBRANCH   5   8
ENDBRANCH   1   2
BRANCH   1  19
ATOM     17  O   UNL     1      43.828   4.892  12.666  0.00  0.00    +0.000 OA
ATOM     18  C   UNL     1      44.543   5.486  11.866  0.00  0.00    +0.000 C 
ATOM     19  N   UNL     1      44.702   5.083  10.563  0.00  0.00    +0.000 N 
ATOM     20  H   UNL     1      45.426   5.512   9.999  0.00  0.00    +0.000 HD
BRANCH  18  21
ATOM     21  C   UNL     1      45.237   6.730  12.220  0.00  0.00    +0.000 A 
ATOM     22  C   UNL     1      44.783   7.950  11.736  0.00  0.00    +0.000 A 
ATOM     23  S   UNL     1      45.748   9.274  12.216  0.00  0.00    +0.000 S 
ATOM     24  C   UNL     1      46.778   8.269  13.125  0.00  0.00    +0.000 A 
ATOM     25  N   UNL     1      47.832   8.780  13.817  0.00  0.00    +0.000 NA
ATOM     26  C   UNL     1      48.500   7.905  14.496  0.00  0.00    +0.000 A 
ATOM     27  N   UNL     1      48.212   6.567  14.542  0.00  0.00    +0.000 N 
ATOM     28  C   UNL     1      47.217   5.997  13.790  0.00  0.00    +0.000 A 
ATOM     29  O   UNL     1      47.096   4.778  13.730  0.00  0.00    +0.000 OA
ATOM     30  C   UNL     1      46.402   6.939  13.048  0.00  0.00    +0.000 A 
ATOM     31  H   UNL     1      48.795   5.931  15.064  0.00  0.00    +0.000 HD
ENDBRANCH  18  21
ENDBRANCH   1  19
TORSDOF 7
ENDMDL
MODEL 9
REMARK VINA RESULT:    -6.918      2.926      4.304
REMARK INTER + INTRA:         -10.886
REMARK INTER:                  -9.840
REMARK INTRA:                  -1.046
REMARK UNBOUND:                -1.137
REMARK  Name = 
REMARK  7 active torsions:
REMARK  status: ('A' for Active; 'I' for Inactive)
REMARK    1  A    between atoms: C_2  and  C_20
REMARK    2  A    between atoms: N_3  and  C_4
REMARK    3  A    between atoms: C_4  and  C_5
REMARK    4  A    between atoms: C_8  and  C_9
REMARK    5  A    between atoms: C_9  and  O_10
REMARK    6  A    between atoms: O_10  and  C_11
REMARK    7  A    between atoms: C_11  and  C_12
REMARK                            x       y       z     vdW  Elec       q    Type
REMARK                         _______ _______ _______ _____ _____    ______ ____
ROOT
ATOM      1  C   UNL     1      47.697   5.779  14.524  0.00  0.00    +0.000 C 
ENDROOT
BRANCH   1   2
ATOM      2  C   UNL     1      46.735   5.470  13.406  0.00  0.00    +0.000 A 
ATOM      3  C   UNL     1      45.878   4.366  13.507  0.00  0.00    +0.000 A 
ATOM      4  C   UNL     1      44.949   4.094  12.502  0.00  0.00    +0.000 A 
ATOM      5  C   UNL     1      44.865   4.917  11.372  0.00  0.00    +0.000 A 
ATOM      6  C   UNL     1      45.741   6.002  11.253  0.00  0.00    +0.000 A 
ATOM      7  C   UNL     1      46.676   6.269  12.256  0.00  0.00    +0.000 A 
BRANCH   5   8
ATOM      8  C   UNL     1      43.810   4.663  10.323  0.00  0.00    +0.000 C 
BRANCH   8   9
ATOM      9  O   UNL     1      44.372   4.205   9.091  0.00  0.00    +0.000 OA
BRANCH   9  10
ATOM     10  C   UNL     1      44.653   2.807   9.106  0.00  0.00    +0.000 C 
BRANCH  10  11
ATOM     11  C   UNL     1      45.676   2.490   8.049  0.00  0.00    +0.000 A 
ATOM     12  C   UNL     1      45.957   3.412   7.032  0.00  0.00    +0.000 A 
ATOM     13  C   UNL     1      46.942   3.142   6.081  0.00  0.00    +0.000 A 
ATOM     14  C   UNL     1      47.652   1.944   6.136  0.00  0.00    +0.000 A 
ATOM     15  C   UNL     1      47.368   1.012   7.132  0.00  0.00    +0.000 A 
ATOM     16  C   UNL     1      46.383   1.280   8.083  0.00  0.00    +0.000 A 
ENDBRANCH  10  11
ENDBRANCH   9  10
ENDBRANCH   8   9
ENDBRANCH   5   8
ENDBRANCH   1   2
BRANCH   1  19
ATOM     17  O   UNL     1      50.262   6.500  15.505  0.00  0.00    +0.000 OA
ATOM     18  C   UNL     1      49.651   7.277  14.779  0.00  0.00    +0.000 C 
ATOM     19  N   UNL     1      48.380   7.028  14.319  0.00  0.00    +0.000 N 
ATOM     20  H   UNL     1      47.992   7.623  13.597  0.00  0.00    +0.000 HD
BRANCH  18  21
ATOM     21  C   UNL     1      50.204   8.581  14.398  0.00  0.00    +0.000 A 
ATOM     22  C   UNL     1      51.269   8.662  13.510  0.00  0.00    +0.000 A 
ATOM     23  S   UNL     1      51.802  10.260  13.229  0.00  0.00    +0.000 S 
ATOM     24  C   UNL     1      50.600  10.902  14.250  0.00  0.00    +0.000 A 
ATOM     25  N   UNL     1      50.487  12.244  14.448  0.00  0.00    +0.000 NA
ATOM     26  C   UNL     1      49.502  12.589  15.212  0.00  0.00    +0.000 A 
ATOM     27  N   UNL     1      48.625  11.715  15.798  0.00  0.00    +0.000 N 
ATOM     28  C   UNL     1      48.757  10.354  15.697  0.00  0.00    +0.000 A 
ATOM     29  O   UNL     1      48.054   9.603  16.368  0.00  0.00    +0.000 OA
ATOM     30  C   UNL     1      49.815   9.910  14.811  0.00  0.00    +0.000 A 
ATOM     31  H   UNL     1      47.898  12.047  16.413  0.00  0.00    +0.000 HD
ENDBRANCH  18  21
ENDBRANCH   1  19
TORSDOF 7
ENDMDL
