MODEL 1
REMARK VINA RESULT:    -7.158      0.000      0.000
REMARK INTER + INTRA:         -11.804
REMARK INTER:                 -10.505
REMARK INTRA:                  -1.299
REMARK UNBOUND:                -1.299
REMARK  Name = 
REMARK  9 active torsions:
REMARK  status: ('A' for Active; 'I' for Inactive)
REMARK    1  A    between atoms: C_1  and  O_2
REMARK    2  A    between atoms: O_2  and  C_3
REMARK    3  A    between atoms: C_6  and  C_7
REMARK    4  A    between atoms: C_7  and  C_8
REMARK    5  A    between atoms: C_8  and  O_9
REMARK    6  A    between atoms: O_9  and  C_10
REMARK    7  A    between atoms: C_14  and  C_15
REMARK    8  A    between atoms: C_20  and  O_21
REMARK    9  A    between atoms: O_21  and  C_22
REMARK                            x       y       z     vdW  Elec       q    Type
REMARK                         _______ _______ _______ _____ _____    ______ ____
ROOT
ATOM      1  C   UNL     1      44.665   3.441  12.686  0.00  0.00    +0.000 C 
ENDROOT
BRANCH   1   5
ATOM      2  C   UNL     1      47.332   6.851  13.266  0.00  0.00    +0.000 A 
ATOM      3  C   UNL     1      47.529   5.636  13.939  0.00  0.00    +0.000 A 
ATOM      4  C   UNL     1      46.672   4.542  13.743  0.00  0.00    +0.000 A 
ATOM      5  C   UNL     1      45.591   4.632  12.867  0.00  0.00    +0.000 A 
ATOM      6  C   UNL     1      45.411   5.847  12.186  0.00  0.00    +0.000 A 
ATOM      7  C   UNL     1      46.255   6.949  12.382  0.00  0.00    +0.000 A 
BRANCH   2   9
ATOM      8  C   UNL     1      47.897   8.729  14.614  0.00  0.00    +0.000 C 
ATOM      9  O   UNL     1      48.119   7.954  13.444  0.00  0.00    +0.000 OA
ENDBRANCH   2   9
BRANCH   7  10
ATOM     10  O   UNL     1      45.929   8.006  11.564  0.00  0.00    +0.000 OA
BRANCH  10  11
ATOM     11  C   UNL     1      45.055   9.056  12.020  0.00  0.00    +0.000 C 
ATOM     12  C   UNL     1      43.946   9.545  11.058  0.00  0.00    +0.000 C 
ATOM     13  C   UNL     1      44.372  10.994  11.333  0.00  0.00    +0.000 C 
ATOM     14  C   UNL     1      45.693  10.466  11.901  0.00  0.00    +0.000 C 
ENDBRANCH  10  11
ENDBRANCH   7  10
ENDBRANCH   1   5
BRANCH   1  15
ATOM     15  C   UNL     1      43.548   3.697  11.673  0.00  0.00    +0.000 C 
BRANCH  15  16
ATOM     16  O   UNL     1      43.535   2.752  10.605  0.00  0.00    +0.000 OA
BRANCH  16  17
ATOM     17  C   UNL     1      44.457   3.020   9.617  0.00  0.00    +0.000 A 
ATOM     18  C   UNL     1      44.744   4.290   9.094  0.00  0.00    +0.000 A 
ATOM     19  C   UNL     1      45.711   4.456   8.104  0.00  0.00    +0.000 A 
ATOM     20  C   UNL     1      46.410   3.349   7.633  0.00  0.00    +0.000 A 
ATOM     21  C   UNL     1      46.140   2.077   8.150  0.00  0.00    +0.000 A 
ATOM     22  C   UNL     1      45.150   1.912   9.129  0.00  0.00    +0.000 A 
BRANCH  21  23
ATOM     23  C   UNL     1      46.939   0.934   7.631  0.00  0.00    +0.000 C 
ATOM     24  N   UNL     1      47.987   1.232   6.808  0.00  0.00    +0.000 N 
ATOM     25  O   UNL     1      46.639  -0.224   7.879  0.00  0.00    +0.000 OA
ATOM     26  H   UNL     1      48.112   2.142   6.390  0.00  0.00    +0.000 HD
ATOM     27  H   UNL     1      48.433   0.443   6.357  0.00  0.00    +0.000 HD
ENDBRANCH  21  23
ENDBRANCH  16  17
ENDBRANCH  15  16
ENDBRANCH   1  15
TORSDOF 8
ENDMDL
MODEL 2
REMARK VINA RESULT:    -6.451      2.116      4.183
REMARK INTER + INTRA:         -10.767
REMARK INTER:                 -10.444
REMARK INTRA:                  -0.323
REMARK UNBOUND:                -1.299
REMARK  Name = 
REMARK  9 active torsions:
REMARK  status: ('A' for Active; 'I' for Inactive)
REMARK    1  A    between atoms: C_1  and  O_2
REMARK    2  A    between atoms: O_2  and  C_3
REMARK    3  A    between atoms: C_6  and  C_7
REMARK    4  A    between atoms: C_7  and  C_8
REMARK    5  A    between atoms: C_8  and  O_9
REMARK    6  A    between atoms: O_9  and  C_10
REMARK    7  A    between atoms: C_14  and  C_15
REMARK    8  A    between atoms: C_20  and  O_21
REMARK    9  A    between atoms: O_21  and  C_22
REMARK                            x       y       z     vdW  Elec       q    Type
REMARK                         _______ _______ _______ _____ _____    ______ ____
ROOT
ATOM      1  C   UNL     1      45.019   4.149  11.550  0.00  0.00    +0.000 C 
ENDROOT
BRANCH   1   5
ATOM      2  C   UNL     1      47.696   7.003  13.490  0.00  0.00    +0.000 A 
ATOM      3  C   UNL     1      47.016   7.316  12.302  0.00  0.00    +0.000 A 
ATOM      4  C   UNL     1      46.152   6.396  11.688  0.00  0.00    +0.000 A 
ATOM      5  C   UNL     1      45.943   5.135  12.244  0.00  0.00    +0.000 A 
ATOM      6  C   UNL     1      46.615   4.837  13.440  0.00  0.00    +0.000 A 
ATOM      7  C   UNL     1      47.487   5.744  14.057  0.00  0.00    +0.000 A 
BRANCH   2   9
ATOM      8  C   UNL     1      49.195   8.842  13.307  0.00  0.00    +0.000 C 
ATOM      9  O   UNL     1      48.569   7.852  14.110  0.00  0.00    +0.000 OA
ENDBRANCH   2   9
BRANCH   7  10
ATOM     10  O   UNL     1      47.980   5.265  15.249  0.00  0.00    +0.000 OA
BRANCH  10  11
ATOM     11  C   UNL     1      47.272   4.255  15.993  0.00  0.00    +0.000 C 
ATOM     12  C   UNL     1      47.162   4.428  17.526  0.00  0.00    +0.000 C 
ATOM     13  C   UNL     1      47.622   2.974  17.705  0.00  0.00    +0.000 C 
ATOM     14  C   UNL     1      48.129   2.989  16.259  0.00  0.00    +0.000 C 
ENDBRANCH  10  11
ENDBRANCH   7  10
ENDBRANCH   1   5
BRANCH   1  15
ATOM     15  C   UNL     1      44.017   4.824  10.611  0.00  0.00    +0.000 C 
BRANCH  15  16
ATOM     16  O   UNL     1      44.457   4.858   9.255  0.00  0.00    +0.000 OA
BRANCH  16  17
ATOM     17  C   UNL     1      44.992   3.666   8.817  0.00  0.00    +0.000 A 
ATOM     18  C   UNL     1      44.666   2.395   9.315  0.00  0.00    +0.000 A 
ATOM     19  C   UNL     1      45.256   1.247   8.788  0.00  0.00    +0.000 A 
ATOM     20  C   UNL     1      46.174   1.359   7.749  0.00  0.00    +0.000 A 
ATOM     21  C   UNL     1      46.504   2.618   7.237  0.00  0.00    +0.000 A 
ATOM     22  C   UNL     1      45.926   3.773   7.786  0.00  0.00    +0.000 A 
BRANCH  21  23
ATOM     23  C   UNL     1      47.468   2.677   6.106  0.00  0.00    +0.000 C 
ATOM     24  N   UNL     1      48.796   2.651   6.420  0.00  0.00    +0.000 N 
ATOM     25  O   UNL     1      47.094   2.804   4.950  0.00  0.00    +0.000 OA
ATOM     26  H   UNL     1      49.138   2.794   7.359  0.00  0.00    +0.000 HD
ATOM     27  H   UNL     1      49.435   2.829   5.655  0.00  0.00    +0.000 HD
ENDBRANCH  21  23
ENDBRANCH  16  17
ENDBRANCH  15  16
ENDBRANCH   1  15
TORSDOF 8
ENDMDL
MODEL 3
REMARK VINA RESULT:    -6.298      3.362      7.309
REMARK INTER + INTRA:         -10.542
REMARK INTER:                  -9.242
REMARK INTRA:                  -1.299
REMARK UNBOUND:                -1.299
REMARK  Name = 
REMARK  9 active torsions:
REMARK  status: ('A' for Active; 'I' for Inactive)
REMARK    1  A    between atoms: C_1  and  O_2
REMARK    2  A    between atoms: O_2  and  C_3
REMARK    3  A    between atoms: C_6  and  C_7
REMARK    4  A    between atoms: C_7  and  C_8
REMARK    5  A    between atoms: C_8  and  O_9
REMARK    6  A    between atoms: O_9  and  C_10
REMARK    7  A    between atoms: C_14  and  C_15
REMARK    8  A    between atoms: C_20  and  O_21
REMARK    9  A    between atoms: O_21  and  C_22
REMARK                            x       y       z     vdW  Elec       q    Type
REMARK                         _______ _______ _______ _____ _____    ______ ____
ROOT
ATOM      1  C   UNL     1      48.243   7.389  12.043  0.00  0.00    +0.000 C 
ENDROOT
BRANCH   1   5
ATOM      2  C   UNL     1      45.181   4.347  12.714  0.00  0.00    +0.000 A 
ATOM      3  C   UNL     1      45.249   5.077  11.517  0.00  0.00    +0.000 A 
ATOM      4  C   UNL     1      46.240   6.048  11.306  0.00  0.00    +0.000 A 
ATOM      5  C   UNL     1      47.192   6.318  12.287  0.00  0.00    +0.000 A 
ATOM      6  C   UNL     1      47.127   5.573  13.475  0.00  0.00    +0.000 A 
ATOM      7  C   UNL     1      46.136   4.607  13.700  0.00  0.00    +0.000 A 
BRANCH   2   9
ATOM      8  C   UNL     1      43.369   3.033  11.909  0.00  0.00    +0.000 C 
ATOM      9  O   UNL     1      44.220   3.413  12.980  0.00  0.00    +0.000 OA
ENDBRANCH   2   9
BRANCH   7  10
ATOM     10  O   UNL     1      46.305   3.958  14.901  0.00  0.00    +0.000 OA
BRANCH  10  11
ATOM     11  C   UNL     1      47.493   4.157  15.692  0.00  0.00    +0.000 C 
ATOM     12  C   UNL     1      48.266   2.903  16.166  0.00  0.00    +0.000 C 
ATOM     13  C   UNL     1      48.296   3.482  17.588  0.00  0.00    +0.000 C 
ATOM     14  C   UNL     1      47.183   4.453  17.183  0.00  0.00    +0.000 C 
ENDBRANCH  10  11
ENDBRANCH   7  10
ENDBRANCH   1   5
BRANCH   1  15
ATOM     15  C   UNL     1      48.178   8.535  13.054  0.00  0.00    +0.000 C 
BRANCH  15  16
ATOM     16  O   UNL     1      46.843   8.919  13.378  0.00  0.00    +0.000 OA
BRANCH  16  17
ATOM     17  C   UNL     1      46.253   9.722  12.427  0.00  0.00    +0.000 A 
ATOM     18  C   UNL     1      46.851  10.832  11.812  0.00  0.00    +0.000 A 
ATOM     19  C   UNL     1      46.169  11.569  10.845  0.00  0.00    +0.000 A 
ATOM     20  C   UNL     1      44.881  11.196  10.476  0.00  0.00    +0.000 A 
ATOM     21  C   UNL     1      44.274  10.087  11.075  0.00  0.00    +0.000 A 
ATOM     22  C   UNL     1      44.954   9.362  12.064  0.00  0.00    +0.000 A 
BRANCH  21  23
ATOM     23  C   UNL     1      42.908   9.714  10.619  0.00  0.00    +0.000 C 
ATOM     24  N   UNL     1      42.491   8.441  10.883  0.00  0.00    +0.000 N 
ATOM     25  O   UNL     1      42.208  10.489   9.984  0.00  0.00    +0.000 OA
ATOM     26  H   UNL     1      43.121   7.710  11.180  0.00  0.00    +0.000 HD
ATOM     27  H   UNL     1      41.620   8.162  10.450  0.00  0.00    +0.000 HD
ENDBRANCH  21  23
ENDBRANCH  16  17
ENDBRANCH  15  16
ENDBRANCH   1  15
TORSDOF 8
ENDMDL
MODEL 4
REMARK VINA RESULT:    -6.278      3.102      7.455
REMARK INTER + INTRA:         -10.513
REMARK INTER:                  -9.429
REMARK INTRA:                  -1.084
REMARK UNBOUND:                -1.299
REMARK  Name = 
REMARK  9 active torsions:
REMARK  status: ('A' for Active; 'I' for Inactive)
REMARK    1  A    between atoms: C_1  and  O_2
REMARK    2  A    between atoms: O_2  and  C_3
REMARK    3  A    between atoms: C_6  and  C_7
REMARK    4  A    between atoms: C_7  and  C_8
REMARK    5  A    between atoms: C_8  and  O_9
REMARK    6  A    between atoms: O_9  and  C_10
REMARK    7  A    between atoms: C_14  and  C_15
REMARK    8  A    between atoms: C_20  and  O_21
REMARK    9  A    between atoms: O_21  and  C_22
REMARK                            x       y       z     vdW  Elec       q    Type
REMARK                         _______ _______ _______ _____ _____    ______ ____
ROOT
ATOM      1  C   UNL     1      47.522   7.099  11.817  0.00  0.00    +0.000 C 
ENDROOT
BRANCH   1   5
ATOM      2  C   UNL     1      44.079   4.435  11.463  0.00  0.00    +0.000 A 
ATOM      3  C   UNL     1      44.553   4.869  12.711  0.00  0.00    +0.000 A 
ATOM      4  C   UNL     1      45.655   5.731  12.816  0.00  0.00    +0.000 A 
ATOM      5  C   UNL     1      46.318   6.183  11.676  0.00  0.00    +0.000 A 
ATOM      6  C   UNL     1      45.828   5.755  10.432  0.00  0.00    +0.000 A 
ATOM      7  C   UNL     1      44.734   4.887  10.315  0.00  0.00    +0.000 A 
BRANCH   2   9
ATOM      8  C   UNL     1      43.208   2.241  11.766  0.00  0.00    +0.000 C 
ATOM      9  O   UNL     1      43.029   3.574  11.308  0.00  0.00    +0.000 OA
ENDBRANCH   2   9
BRANCH   7  10
ATOM     10  O   UNL     1      44.390   4.657   9.003  0.00  0.00    +0.000 OA
BRANCH  10  11
ATOM     11  C   UNL     1      44.704   3.406   8.362  0.00  0.00    +0.000 C 
ATOM     12  C   UNL     1      45.601   2.405   9.127  0.00  0.00    +0.000 C 
ATOM     13  C   UNL     1      46.467   2.247   7.869  0.00  0.00    +0.000 C 
ATOM     14  C   UNL     1      45.843   3.532   7.316  0.00  0.00    +0.000 C 
ENDBRANCH  10  11
ENDBRANCH   7  10
ENDBRANCH   1   5
BRANCH   1  15
ATOM     15  C   UNL     1      48.475   6.670  12.934  0.00  0.00    +0.000 C 
BRANCH  15  16
ATOM     16  O   UNL     1      48.517   7.596  14.019  0.00  0.00    +0.000 OA
BRANCH  16  17
ATOM     17  C   UNL     1      48.732   7.003  15.244  0.00  0.00    +0.000 A 
ATOM     18  C   UNL     1      49.416   7.586  16.322  0.00  0.00    +0.000 A 
ATOM     19  C   UNL     1      49.564   6.904  17.528  0.00  0.00    +0.000 A 
ATOM     20  C   UNL     1      49.019   5.632  17.672  0.00  0.00    +0.000 A 
ATOM     21  C   UNL     1      48.328   5.041  16.609  0.00  0.00    +0.000 A 
ATOM     22  C   UNL     1      48.202   5.721  15.388  0.00  0.00    +0.000 A 
BRANCH  21  23
ATOM     23  C   UNL     1      47.740   3.692  16.828  0.00  0.00    +0.000 C 
ATOM     24  N   UNL     1      48.605   2.636  16.865  0.00  0.00    +0.000 N 
ATOM     25  O   UNL     1      46.533   3.523  16.911  0.00  0.00    +0.000 OA
ATOM     26  H   UNL     1      49.564   2.705  16.558  0.00  0.00    +0.000 HD
ATOM     27  H   UNL     1      48.181   1.717  16.876  0.00  0.00    +0.000 HD
ENDBRANCH  21  23
ENDBRANCH  16  17
ENDBRANCH  15  16
ENDBRANCH   1  15
TORSDOF 8
ENDMDL
MODEL 5
REMARK VINA RESULT:    -6.013      4.580      8.592
REMARK INTER + INTRA:         -10.124
REMARK INTER:                  -8.041
REMARK INTRA:                  -2.083
REMARK UNBOUND:                -1.299
REMARK  Name = 
REMARK  9 active torsions:
REMARK  status: ('A' for Active; 'I' for Inactive)
REMARK    1  A    between atoms: C_1  and  O_2
REMARK    2  A    between atoms: O_2  and  C_3
REMARK    3  A    between atoms: C_6  and  C_7
REMARK    4  A    between atoms: C_7  and  C_8
REMARK    5  A    between atoms: C_8  and  O_9
REMARK    6  A    between atoms: O_9  and  C_10
REMARK    7  A    between atoms: C_14  and  C_15
REMARK    8  A    between atoms: C_20  and  O_21
REMARK    9  A    between atoms: O_21  and  C_22
REMARK                            x       y       z     vdW  Elec       q    Type
REMARK                         _______ _______ _______ _____ _____    ______ ____
ROOT
ATOM      1  C   UNL     1      49.112   7.277  12.682  0.00  0.00    +0.000 C 
ENDROOT
BRANCH   1   5
ATOM      2  C   UNL     1      45.491   4.863  13.059  0.00  0.00    +0.000 A 
ATOM      3  C   UNL     1      45.696   5.724  11.969  0.00  0.00    +0.000 A 
ATOM      4  C   UNL     1      46.865   6.491  11.851  0.00  0.00    +0.000 A 
ATOM      5  C   UNL     1      47.864   6.421  12.821  0.00  0.00    +0.000 A 
ATOM      6  C   UNL     1      47.657   5.546  13.900  0.00  0.00    +0.000 A 
ATOM      7  C   UNL     1      46.490   4.782  14.033  0.00  0.00    +0.000 A 
BRANCH   2   9
ATOM      8  C   UNL     1      43.114   4.767  13.025  0.00  0.00    +0.000 C 
ATOM      9  O   UNL     1      44.360   4.118  13.236  0.00  0.00    +0.000 OA
ENDBRANCH   2   9
BRANCH   7  10
ATOM     10  O   UNL     1      46.534   3.951  15.128  0.00  0.00    +0.000 OA
BRANCH  10  11
ATOM     11  C   UNL     1      47.581   4.070  16.110  0.00  0.00    +0.000 C 
ATOM     12  C   UNL     1      48.345   2.787  16.513  0.00  0.00    +0.000 C 
ATOM     13  C   UNL     1      48.137   3.150  17.991  0.00  0.00    +0.000 C 
ATOM     14  C   UNL     1      47.042   4.132  17.564  0.00  0.00    +0.000 C 
ENDBRANCH  10  11
ENDBRANCH   7  10
ENDBRANCH   1   5
BRANCH   1  15
ATOM     15  C   UNL     1      49.454   8.051  13.956  0.00  0.00    +0.000 C 
BRANCH  15  16
ATOM     16  O   UNL     1      50.521   7.463  14.697  0.00  0.00    +0.000 OA
BRANCH  16  17
ATOM     17  C   UNL     1      50.189   7.161  16.000  0.00  0.00    +0.000 A 
ATOM     18  C   UNL     1      49.126   7.726  16.721  0.00  0.00    +0.000 A 
ATOM     19  C   UNL     1      48.865   7.337  18.034  0.00  0.00    +0.000 A 
ATOM     20  C   UNL     1      49.662   6.369  18.637  0.00  0.00    +0.000 A 
ATOM     21  C   UNL     1      50.720   5.791  17.928  0.00  0.00    +0.000 A 
ATOM     22  C   UNL     1      50.995   6.202  16.615  0.00  0.00    +0.000 A 
BRANCH  21  23
ATOM     23  C   UNL     1      51.520   4.739  18.611  0.00  0.00    +0.000 C 
ATOM     24  N   UNL     1      51.093   4.337  19.844  0.00  0.00    +0.000 N 
ATOM     25  O   UNL     1      52.547   4.294  18.122  0.00  0.00    +0.000 OA
ATOM     26  H   UNL     1      50.404   4.848  20.377  0.00  0.00    +0.000 HD
ATOM     27  H   UNL     1      51.719   3.725  20.351  0.00  0.00    +0.000 HD
ENDBRANCH  21  23
ENDBRANCH  16  17
ENDBRANCH  15  16
ENDBRANCH   1  15
TORSDOF 8
ENDMDL
MODEL 6
REMARK VINA RESULT:    -6.008      4.464      8.876
REMARK INTER + INTRA:         -10.116
REMARK INTER:                  -8.061
REMARK INTRA:                  -2.055
REMARK UNBOUND:                -1.299
REMARK  Name = 
REMARK  9 active torsions:
REMARK  status: ('A' for Active; 'I' for Inactive)
REMARK    1  A    between atoms: C_1  and  O_2
REMARK    2  A    between atoms: O_2  and  C_3
REMARK    3  A    between atoms: C_6  and  C_7
REMARK    4  A    between atoms: C_7  and  C_8
REMARK    5  A    between atoms: C_8  and  O_9
REMARK    6  A    between atoms: O_9  and  C_10
REMARK    7  A    between atoms: C_14  and  C_15
REMARK    8  A    between atoms: C_20  and  O_21
REMARK    9  A    between atoms: O_21  and  C_22
REMARK                            x       y       z     vdW  Elec       q    Type
REMARK                         _______ _______ _______ _____ _____    ______ ____
ROOT
ATOM      1  C   UNL     1      47.736   7.945  13.311  0.00  0.00    +0.000 C 
ENDROOT
BRANCH   1   5
ATOM      2  C   UNL     1      45.672   4.134  12.771  0.00  0.00    +0.000 A 
ATOM      3  C   UNL     1      45.385   5.250  11.970  0.00  0.00    +0.000 A 
ATOM      4  C   UNL     1      46.058   6.469  12.144  0.00  0.00    +0.000 A 
ATOM      5  C   UNL     1      47.036   6.608  13.127  0.00  0.00    +0.000 A 
ATOM      6  C   UNL     1      47.327   5.482  13.914  0.00  0.00    +0.000 A 
ATOM      7  C   UNL     1      46.656   4.263  13.754  0.00  0.00    +0.000 A 
BRANCH   2   9
ATOM      8  C   UNL     1      43.661   2.964  12.274  0.00  0.00    +0.000 C 
ATOM      9  O   UNL     1      45.027   2.934  12.661  0.00  0.00    +0.000 OA
ENDBRANCH   2   9
BRANCH   7  10
ATOM     10  O   UNL     1      47.150   3.284  14.586  0.00  0.00    +0.000 OA
BRANCH  10  11
ATOM     11  C   UNL     1      47.864   3.623  15.790  0.00  0.00    +0.000 C 
ATOM     12  C   UNL     1      48.575   2.483  16.556  0.00  0.00    +0.000 C 
ATOM     13  C   UNL     1      47.930   2.980  17.858  0.00  0.00    +0.000 C 
ATOM     14  C   UNL     1      46.932   3.785  17.020  0.00  0.00    +0.000 C 
ENDBRANCH  10  11
ENDBRANCH   7  10
ENDBRANCH   1   5
BRANCH   1  15
ATOM     15  C   UNL     1      48.960   7.862  14.224  0.00  0.00    +0.000 C 
BRANCH  15  16
ATOM     16  O   UNL     1      48.666   8.182  15.583  0.00  0.00    +0.000 OA
BRANCH  16  17
ATOM     17  C   UNL     1      49.231   7.311  16.490  0.00  0.00    +0.000 A 
ATOM     18  C   UNL     1      50.399   6.562  16.282  0.00  0.00    +0.000 A 
ATOM     19  C   UNL     1      50.896   5.721  17.276  0.00  0.00    +0.000 A 
ATOM     20  C   UNL     1      50.232   5.626  18.494  0.00  0.00    +0.000 A 
ATOM     21  C   UNL     1      49.070   6.372  18.719  0.00  0.00    +0.000 A 
ATOM     22  C   UNL     1      48.559   7.200  17.708  0.00  0.00    +0.000 A 
BRANCH  21  23
ATOM     23  C   UNL     1      48.418   6.256  20.051  0.00  0.00    +0.000 C 
ATOM     24  N   UNL     1      47.119   5.833  20.072  0.00  0.00    +0.000 N 
ATOM     25  O   UNL     1      48.993   6.581  21.079  0.00  0.00    +0.000 OA
ATOM     26  H   UNL     1      46.544   5.794  19.244  0.00  0.00    +0.000 HD
ATOM     27  H   UNL     1      46.650   5.891  20.967  0.00  0.00    +0.000 HD
ENDBRANCH  21  23
ENDBRANCH  16  17
ENDBRANCH  15  16
ENDBRANCH   1  15
TORSDOF 8
ENDMDL
MODEL 7
REMARK VINA RESULT:    -5.801      3.532      7.519
REMARK INTER + INTRA:          -9.812
REMARK INTER:                  -8.683
REMARK INTRA:                  -1.129
REMARK UNBOUND:                -1.299
REMARK  Name = 
REMARK  9 active torsions:
REMARK  status: ('A' for Active; 'I' for Inactive)
REMARK    1  A    between atoms: C_1  and  O_2
REMARK    2  A    between atoms: O_2  and  C_3
REMARK    3  A    between atoms: C_6  and  C_7
REMARK    4  A    between atoms: C_7  and  C_8
REMARK    5  A    between atoms: C_8  and  O_9
REMARK    6  A    between atoms: O_9  and  C_10
REMARK    7  A    between atoms: C_14  and  C_15
REMARK    8  A    between atoms: C_20  and  O_21
REMARK    9  A    between atoms: O_21  and  C_22
REMARK                            x       y       z     vdW  Elec       q    Type
REMARK                         _______ _______ _______ _____ _____    ______ ____
ROOT
ATOM      1  C   UNL     1      48.995   7.413  13.020  0.00  0.00    +0.000 C 
ENDROOT
BRANCH   1   5
ATOM      2  C   UNL     1      44.772   6.332  12.753  0.00  0.00    +0.000 A 
ATOM      3  C   UNL     1      45.224   7.626  12.451  0.00  0.00    +0.000 A 
ATOM      4  C   UNL     1      46.584   7.964  12.533  0.00  0.00    +0.000 A 
ATOM      5  C   UNL     1      47.531   7.018  12.920  0.00  0.00    +0.000 A 
ATOM      6  C   UNL     1      47.071   5.722  13.205  0.00  0.00    +0.000 A 
ATOM      7  C   UNL     1      45.715   5.376  13.136  0.00  0.00    +0.000 A 
BRANCH   2   9
ATOM      8  C   UNL     1      42.722   6.282  11.546  0.00  0.00    +0.000 C 
ATOM      9  O   UNL     1      43.457   5.960  12.718  0.00  0.00    +0.000 OA
ENDBRANCH   2   9
BRANCH   7  10
ATOM     10  O   UNL     1      45.505   4.040  13.392  0.00  0.00    +0.000 OA
BRANCH  10  11
ATOM     11  C   UNL     1      45.257   3.109  12.322  0.00  0.00    +0.000 C 
ATOM     12  C   UNL     1      45.202   3.661  10.879  0.00  0.00    +0.000 C 
ATOM     13  C   UNL     1      43.888   2.898  10.656  0.00  0.00    +0.000 C 
ATOM     14  C   UNL     1      43.755   2.745  12.174  0.00  0.00    +0.000 C 
ENDBRANCH  10  11
ENDBRANCH   7  10
ENDBRANCH   1   5
BRANCH   1  15
ATOM     15  C   UNL     1      49.612   7.089  14.382  0.00  0.00    +0.000 C 
BRANCH  15  16
ATOM     16  O   UNL     1      49.009   7.810  15.455  0.00  0.00    +0.000 OA
BRANCH  16  17
ATOM     17  C   UNL     1      48.683   7.021  16.537  0.00  0.00    +0.000 A 
ATOM     18  C   UNL     1      48.490   7.478  17.849  0.00  0.00    +0.000 A 
ATOM     19  C   UNL     1      48.144   6.595  18.871  0.00  0.00    +0.000 A 
ATOM     20  C   UNL     1      47.978   5.243  18.586  0.00  0.00    +0.000 A 
ATOM     21  C   UNL     1      48.159   4.774  17.281  0.00  0.00    +0.000 A 
ATOM     22  C   UNL     1      48.531   5.662  16.260  0.00  0.00    +0.000 A 
BRANCH  21  23
ATOM     23  C   UNL     1      47.938   3.325  17.027  0.00  0.00    +0.000 C 
ATOM     24  N   UNL     1      46.889   2.735  17.672  0.00  0.00    +0.000 N 
ATOM     25  O   UNL     1      48.694   2.674  16.323  0.00  0.00    +0.000 OA
ATOM     26  H   UNL     1      46.403   3.175  18.440  0.00  0.00    +0.000 HD
ATOM     27  H   UNL     1      46.835   1.727  17.598  0.00  0.00    +0.000 HD
ENDBRANCH  21  23
ENDBRANCH  16  17
ENDBRANCH  15  16
ENDBRANCH   1  15
TORSDOF 8
ENDMDL
MODEL 8
REMARK VINA RESULT:    -5.735      3.092      6.170
REMARK INTER + INTRA:          -9.716
REMARK INTER:                  -8.414
REMARK INTRA:                  -1.302
REMARK UNBOUND:                -1.299
REMARK  Name = 
REMARK  9 active torsions:
REMARK  status: ('A' for Active; 'I' for Inactive)
REMARK    1  A    between atoms: C_1  and  O_2
REMARK    2  A    between atoms: O_2  and  C_3
REMARK    3  A    between atoms: C_6  and  C_7
REMARK    4  A    between atoms: C_7  and  C_8
REMARK    5  A    between atoms: C_8  and  O_9
REMARK    6  A    between atoms: O_9  and  C_10
REMARK    7  A    between atoms: C_14  and  C_15
REMARK    8  A    between atoms: C_20  and  O_21
REMARK    9  A    between atoms: O_21  and  C_22
REMARK                            x       y       z     vdW  Elec       q    Type
REMARK                         _______ _______ _______ _____ _____    ______ ____
ROOT
ATOM      1  C   UNL     1      48.028   8.756  13.797  0.00  0.00    +0.000 C 
ENDROOT
BRANCH   1   5
ATOM      2  C   UNL     1      49.210   7.529  17.818  0.00  0.00    +0.000 A 
ATOM      3  C   UNL     1      48.814   8.845  17.533  0.00  0.00    +0.000 A 
ATOM      4  C   UNL     1      48.429   9.230  16.240  0.00  0.00    +0.000 A 
ATOM      5  C   UNL     1      48.429   8.310  15.193  0.00  0.00    +0.000 A 
ATOM      6  C   UNL     1      48.812   6.993  15.491  0.00  0.00    +0.000 A 
ATOM      7  C   UNL     1      49.208   6.599  16.777  0.00  0.00    +0.000 A 
BRANCH   2   9
ATOM      8  C   UNL     1      48.742   7.344  20.144  0.00  0.00    +0.000 C 
ATOM      9  O   UNL     1      49.621   7.112  19.053  0.00  0.00    +0.000 OA
ENDBRANCH   2   9
BRANCH   7  10
ATOM     10  O   UNL     1      49.475   5.252  16.849  0.00  0.00    +0.000 OA
BRANCH  10  11
ATOM     11  C   UNL     1      48.450   4.275  16.583  0.00  0.00    +0.000 C 
ATOM     12  C   UNL     1      47.190   4.284  17.479  0.00  0.00    +0.000 C 
ATOM     13  C   UNL     1      47.339   2.768  17.673  0.00  0.00    +0.000 C 
ATOM     14  C   UNL     1      48.781   2.877  17.168  0.00  0.00    +0.000 C 
ENDBRANCH  10  11
ENDBRANCH   7  10
ENDBRANCH   1   5
BRANCH   1  15
ATOM     15  C   UNL     1      48.246   7.675  12.736  0.00  0.00    +0.000 C 
BRANCH  15  16
ATOM     16  O   UNL     1      47.067   7.380  11.988  0.00  0.00    +0.000 OA
BRANCH  16  17
ATOM     17  C   UNL     1      46.580   6.109  12.203  0.00  0.00    +0.000 A 
ATOM     18  C   UNL     1      46.868   5.304  13.316  0.00  0.00    +0.000 A 
ATOM     19  C   UNL     1      46.307   4.035  13.445  0.00  0.00    +0.000 A 
ATOM     20  C   UNL     1      45.443   3.560  12.463  0.00  0.00    +0.000 A 
ATOM     21  C   UNL     1      45.140   4.354  11.352  0.00  0.00    +0.000 A 
ATOM     22  C   UNL     1      45.725   5.622  11.214  0.00  0.00    +0.000 A 
BRANCH  21  23
ATOM     23  C   UNL     1      44.186   3.810  10.349  0.00  0.00    +0.000 C 
ATOM     24  N   UNL     1      43.895   4.602   9.276  0.00  0.00    +0.000 N 
ATOM     25  O   UNL     1      43.638   2.729  10.504  0.00  0.00    +0.000 OA
ATOM     26  H   UNL     1      44.131   5.582   9.240  0.00  0.00    +0.000 HD
ATOM     27  H   UNL     1      43.145   4.278   8.678  0.00  0.00    +0.000 HD
ENDBRANCH  21  23
ENDBRANCH  16  17
ENDBRANCH  15  16
ENDBRANCH   1  15
TORSDOF 8
ENDMDL
MODEL 9
REMARK VINA RESULT:    -5.719      5.051      7.045
REMARK INTER + INTRA:          -9.692
REMARK INTER:                  -8.912
REMARK INTRA:                  -0.780
REMARK UNBOUND:                -1.299
REMARK  Name = 
REMARK  9 active torsions:
REMARK  status: ('A' for Active; 'I' for Inactive)
REMARK    1  A    between atoms: C_1  and  O_2
REMARK    2  A    between atoms: O_2  and  C_3
REMARK    3  A    between atoms: C_6  and  C_7
REMARK    4  A    between atoms: C_7  and  C_8
REMARK    5  A    between atoms: C_8  and  O_9
REMARK    6  A    between atoms: O_9  and  C_10
REMARK    7  A    between atoms: C_14  and  C_15
REMARK    8  A    between atoms: C_20  and  O_21
REMARK    9  A    between atoms: O_21  and  C_22
REMARK                            x       y       z     vdW  Elec       q    Type
REMARK                         _______ _______ _______ _____ _____    ______ ____
ROOT
ATOM      1  C   UNL     1      48.108   2.733  16.697  0.00  0.00    +0.000 C 
ENDROOT
BRANCH   1   5
ATOM      2  C   UNL     1      50.750   4.753  19.529  0.00  0.00    +0.000 A 
ATOM      3  C   UNL     1      51.247   4.099  18.391  0.00  0.00    +0.000 A 
ATOM      4  C   UNL     1      50.392   3.458  17.482  0.00  0.00    +0.000 A 
ATOM      5  C   UNL     1      49.013   3.451  17.685  0.00  0.00    +0.000 A 
ATOM      6  C   UNL     1      48.523   4.121  18.817  0.00  0.00    +0.000 A 
ATOM      7  C   UNL     1      49.369   4.757  19.736  0.00  0.00    +0.000 A 
BRANCH   2   9
ATOM      8  C   UNL     1      52.410   4.539  21.219  0.00  0.00    +0.000 C 
ATOM      9  O   UNL     1      51.542   5.366  20.458  0.00  0.00    +0.000 OA
ENDBRANCH   2   9
BRANCH   7  10
ATOM     10  O   UNL     1      48.668   5.402  20.729  0.00  0.00    +0.000 OA
BRANCH  10  11
ATOM     11  C   UNL     1      47.699   6.420  20.413  0.00  0.00    +0.000 C 
ATOM     12  C   UNL     1      48.186   7.671  19.645  0.00  0.00    +0.000 C 
ATOM     13  C   UNL     1      47.467   8.559  20.671  0.00  0.00    +0.000 C 
ATOM     14  C   UNL     1      47.390   7.354  21.613  0.00  0.00    +0.000 C 
ENDBRANCH  10  11
ENDBRANCH   7  10
ENDBRANCH   1   5
BRANCH   1  15
ATOM     15  C   UNL     1      47.373   3.686  15.753  0.00  0.00    +0.000 C 
BRANCH  15  16
ATOM     16  O   UNL     1      47.329   3.215  14.407  0.00  0.00    +0.000 OA
BRANCH  16  17
ATOM     17  C   UNL     1      46.802   4.128  13.520  0.00  0.00    +0.000 A 
ATOM     18  C   UNL     1      47.279   5.431  13.311  0.00  0.00    +0.000 A 
ATOM     19  C   UNL     1      46.681   6.271  12.373  0.00  0.00    +0.000 A 
ATOM     20  C   UNL     1      45.602   5.811  11.626  0.00  0.00    +0.000 A 
ATOM     21  C   UNL     1      45.119   4.512  11.817  0.00  0.00    +0.000 A 
ATOM     22  C   UNL     1      45.709   3.678  12.779  0.00  0.00    +0.000 A 
BRANCH  21  23
ATOM     23  C   UNL     1      43.983   4.062  10.970  0.00  0.00    +0.000 C 
ATOM     24  N   UNL     1      43.717   4.794   9.848  0.00  0.00    +0.000 N 
ATOM     25  O   UNL     1      43.277   3.117  11.289  0.00  0.00    +0.000 OA
ATOM     26  H   UNL     1      44.114   5.708   9.685  0.00  0.00    +0.000 HD
ATOM     27  H   UNL     1      42.863   4.559   9.358  0.00  0.00    +0.000 HD
ENDBRANCH  21  23
ENDBRANCH  16  17
ENDBRANCH  15  16
ENDBRANCH   1  15
TORSDOF 8
ENDMDL
