MODEL 1
REMARK VINA RESULT:    -8.478      0.000      0.000
REMARK INTER + INTRA:         -12.315
REMARK INTER:                 -11.452
REMARK INTRA:                  -0.864
REMARK UNBOUND:                -0.864
REMARK  Name = 
REMARK  7 active torsions:
REMARK  status: ('A' for Active; 'I' for Inactive)
REMARK    1  A    between atoms: C_1  and  N_2
REMARK    2  A    between atoms: N_2  and  C_3
REMARK    3  A    between atoms: C_3  and  C_4
REMARK    4  A    between atoms: C_7  and  C_8
REMARK    5  A    between atoms: C_8  and  N_9
REMARK    6  A    between atoms: C_10  and  C_12
REMARK    7  A    between atoms: C_24  and  C_26
REMARK                            x       y       z     vdW  Elec       q    Type
REMARK                         _______ _______ _______ _____ _____    ______ ____
ROOT
ATOM      1  C   UNL     1      46.511   4.705  13.328  0.00  0.00    +0.000 A 
ATOM      2  C   UNL     1      47.023   5.911  12.846  0.00  0.00    +0.000 A 
ATOM      3  C   UNL     1      47.929   6.633  13.620  0.00  0.00    +0.000 A 
ATOM      4  C   UNL     1      48.285   6.139  14.871  0.00  0.00    +0.000 A 
ATOM      5  N   UNL     1      47.834   4.949  15.343  0.00  0.00    +0.000 NA
ATOM      6  C   UNL     1      46.968   4.264  14.565  0.00  0.00    +0.000 A 
ENDROOT
BRANCH   1   7
ATOM      7  C   UNL     1      45.501   3.904  12.560  0.00  0.00    +0.000 C 
BRANCH   7   9
ATOM      8  C   UNL     1      43.318   5.118  13.027  0.00  0.00    +0.000 C 
ATOM      9  N   UNL     1      44.306   4.610  12.081  0.00  0.00    +0.000 N 
ATOM     10  C   UNL     1      43.887   4.542  10.733  0.00  0.00    +0.000 C 
ATOM     11  O   UNL     1      42.840   5.072  10.351  0.00  0.00    +0.000 OA
BRANCH  10  12
ATOM     12  C   UNL     1      44.719   3.837   9.696  0.00  0.00    +0.000 A 
ATOM     13  C   UNL     1      45.457   4.604   8.801  0.00  0.00    +0.000 A 
ATOM     14  C   UNL     1      46.241   3.949   7.853  0.00  0.00    +0.000 A 
ATOM     15  C   UNL     1      46.249   2.559   7.816  0.00  0.00    +0.000 A 
ATOM     16  C   UNL     1      45.463   1.874   8.725  0.00  0.00    +0.000 A 
ATOM     17  N   UNL     1      44.698   2.480   9.658  0.00  0.00    +0.000 NA
ENDBRANCH  10  12
ENDBRANCH   7   9
ENDBRANCH   1   7
BRANCH   4  18
ATOM     18  C   UNL     1      49.184   6.940  15.779  0.00  0.00    +0.000 C 
BRANCH  18  19
ATOM     19  N   UNL     1      50.254   6.154  16.343  0.00  0.00    +0.000 N 
ATOM     20  C   UNL     1      50.181   5.599  17.591  0.00  0.00    +0.000 C 
ATOM     21  O   UNL     1      49.209   5.770  18.321  0.00  0.00    +0.000 OA
ATOM     22  H   UNL     1      51.138   6.185  15.844  0.00  0.00    +0.000 HD
BRANCH  20  23
ATOM     23  C   UNL     1      51.291   4.729  17.988  0.00  0.00    +0.000 A 
ATOM     24  C   UNL     1      52.387   5.274  18.650  0.00  0.00    +0.000 A 
ATOM     25  S   UNL     1      53.566   4.129  19.084  0.00  0.00    +0.000 S 
ATOM     26  C   UNL     1      52.684   2.867  18.368  0.00  0.00    +0.000 A 
ATOM     27  N   UNL     1      53.161   1.589  18.365  0.00  0.00    +0.000 NA
ATOM     28  C   UNL     1      52.407   0.740  17.763  0.00  0.00    +0.000 A 
ATOM     29  N   UNL     1      51.209   1.038  17.167  0.00  0.00    +0.000 N 
ATOM     30  C   UNL     1      50.656   2.301  17.187  0.00  0.00    +0.000 A 
ATOM     31  O   UNL     1      49.537   2.515  16.722  0.00  0.00    +0.000 OA
ATOM     32  C   UNL     1      51.491   3.306  17.827  0.00  0.00    +0.000 A 
ATOM     33  H   UNL     1      50.653   0.321  16.729  0.00  0.00    +0.000 HD
ENDBRANCH  20  23
ENDBRANCH  18  19
ENDBRANCH   4  18
TORSDOF 6
ENDMDL
MODEL 2
REMARK VINA RESULT:    -7.908      1.769      2.820
REMARK INTER + INTRA:         -11.546
REMARK INTER:                 -10.594
REMARK INTRA:                  -0.952
REMARK UNBOUND:                -0.864
REMARK  Name = 
REMARK  7 active torsions:
REMARK  status: ('A' for Active; 'I' for Inactive)
REMARK    1  A    between atoms: C_1  and  N_2
REMARK    2  A    between atoms: N_2  and  C_3
REMARK    3  A    between atoms: C_3  and  C_4
REMARK    4  A    between atoms: C_7  and  C_8
REMARK    5  A    between atoms: C_8  and  N_9
REMARK    6  A    between atoms: C_10  and  C_12
REMARK    7  A    between atoms: C_24  and  C_26
REMARK                            x       y       z     vdW  Elec       q    Type
REMARK                         _______ _______ _______ _____ _____    ______ ____
ROOT
ATOM      1  C   UNL     1      47.273   5.549  13.462  0.00  0.00    +0.000 A 
ATOM      2  C   UNL     1      47.958   6.147  14.519  0.00  0.00    +0.000 A 
ATOM      3  C   UNL     1      48.111   5.457  15.719  0.00  0.00    +0.000 A 
ATOM      4  C   UNL     1      47.553   4.188  15.839  0.00  0.00    +0.000 A 
ATOM      5  N   UNL     1      46.920   3.569  14.811  0.00  0.00    +0.000 NA
ATOM      6  C   UNL     1      46.799   4.256  13.655  0.00  0.00    +0.000 A 
ENDROOT
BRANCH   1   7
ATOM      7  C   UNL     1      47.040   6.258  12.159  0.00  0.00    +0.000 C 
BRANCH   7   9
ATOM      8  C   UNL     1      45.508   8.164  12.851  0.00  0.00    +0.000 C 
ATOM      9  N   UNL     1      45.781   7.001  12.014  0.00  0.00    +0.000 N 
ATOM     10  C   UNL     1      44.667   6.459  11.332  0.00  0.00    +0.000 C 
ATOM     11  O   UNL     1      43.587   7.053  11.280  0.00  0.00    +0.000 OA
BRANCH  10  12
ATOM     12  C   UNL     1      44.762   5.138  10.617  0.00  0.00    +0.000 A 
ATOM     13  C   UNL     1      45.374   5.099   9.370  0.00  0.00    +0.000 A 
ATOM     14  C   UNL     1      45.476   3.873   8.717  0.00  0.00    +0.000 A 
ATOM     15  C   UNL     1      44.951   2.734   9.318  0.00  0.00    +0.000 A 
ATOM     16  C   UNL     1      44.333   2.867  10.547  0.00  0.00    +0.000 A 
ATOM     17  N   UNL     1      44.224   4.040  11.207  0.00  0.00    +0.000 NA
ENDBRANCH  10  12
ENDBRANCH   7   9
ENDBRANCH   1   7
BRANCH   4  18
ATOM     18  C   UNL     1      47.610   3.451  17.153  0.00  0.00    +0.000 C 
BRANCH  18  19
ATOM     19  N   UNL     1      48.959   3.186  17.588  0.00  0.00    +0.000 N 
ATOM     20  C   UNL     1      49.776   2.293  16.951  0.00  0.00    +0.000 C 
ATOM     21  O   UNL     1      49.392   1.634  15.989  0.00  0.00    +0.000 OA
ATOM     22  H   UNL     1      49.213   3.558  18.499  0.00  0.00    +0.000 HD
BRANCH  20  23
ATOM     23  C   UNL     1      51.158   2.211  17.430  0.00  0.00    +0.000 A 
ATOM     24  C   UNL     1      51.760   0.965  17.578  0.00  0.00    +0.000 A 
ATOM     25  S   UNL     1      53.378   1.041  18.095  0.00  0.00    +0.000 S 
ATOM     26  C   UNL     1      53.328   2.736  18.185  0.00  0.00    +0.000 A 
ATOM     27  N   UNL     1      54.413   3.450  18.600  0.00  0.00    +0.000 NA
ATOM     28  C   UNL     1      54.227   4.721  18.650  0.00  0.00    +0.000 A 
ATOM     29  N   UNL     1      53.060   5.358  18.315  0.00  0.00    +0.000 N 
ATOM     30  C   UNL     1      51.952   4.689  17.841  0.00  0.00    +0.000 A 
ATOM     31  O   UNL     1      50.951   5.298  17.464  0.00  0.00    +0.000 OA
ATOM     32  C   UNL     1      52.102   3.242  17.801  0.00  0.00    +0.000 A 
ATOM     33  H   UNL     1      52.985   6.362  18.355  0.00  0.00    +0.000 HD
ENDBRANCH  20  23
ENDBRANCH  18  19
ENDBRANCH   4  18
TORSDOF 6
ENDMDL
MODEL 3
REMARK VINA RESULT:    -7.549      3.509      8.485
REMARK INTER + INTRA:         -11.061
REMARK INTER:                  -9.794
REMARK INTRA:                  -1.266
REMARK UNBOUND:                -0.864
REMARK  Name = 
REMARK  7 active torsions:
REMARK  status: ('A' for Active; 'I' for Inactive)
REMARK    1  A    between atoms: C_1  and  N_2
REMARK    2  A    between atoms: N_2  and  C_3
REMARK    3  A    between atoms: C_3  and  C_4
REMARK    4  A    between atoms: C_7  and  C_8
REMARK    5  A    between atoms: C_8  and  N_9
REMARK    6  A    between atoms: C_10  and  C_12
REMARK    7  A    between atoms: C_24  and  C_26
REMARK                            x       y       z     vdW  Elec       q    Type
REMARK                         _______ _______ _______ _____ _____    ______ ____
ROOT
ATOM      1  C   UNL     1      49.179   7.626  16.489  0.00  0.00    +0.000 A 
ATOM      2  C   UNL     1      48.536   8.781  16.042  0.00  0.00    +0.000 A 
ATOM      3  C   UNL     1      48.235   8.921  14.689  0.00  0.00    +0.000 A 
ATOM      4  C   UNL     1      48.606   7.908  13.811  0.00  0.00    +0.000 A 
ATOM      5  N   UNL     1      49.194   6.758  14.228  0.00  0.00    +0.000 NA
ATOM      6  C   UNL     1      49.461   6.644  15.547  0.00  0.00    +0.000 A 
ENDROOT
BRANCH   1   7
ATOM      7  C   UNL     1      49.567   7.435  17.927  0.00  0.00    +0.000 C 
BRANCH   7   9
ATOM      8  C   UNL     1      48.238   8.373  19.880  0.00  0.00    +0.000 C 
ATOM      9  N   UNL     1      48.480   7.313  18.906  0.00  0.00    +0.000 N 
ATOM     10  C   UNL     1      47.853   6.075  19.177  0.00  0.00    +0.000 C 
ATOM     11  O   UNL     1      46.994   5.961  20.056  0.00  0.00    +0.000 OA
BRANCH  10  12
ATOM     12  C   UNL     1      48.192   4.842  18.384  0.00  0.00    +0.000 A 
ATOM     13  C   UNL     1      47.282   4.392  17.433  0.00  0.00    +0.000 A 
ATOM     14  C   UNL     1      47.606   3.261  16.687  0.00  0.00    +0.000 A 
ATOM     15  C   UNL     1      48.811   2.609  16.923  0.00  0.00    +0.000 A 
ATOM     16  C   UNL     1      49.645   3.107  17.907  0.00  0.00    +0.000 A 
ATOM     17  N   UNL     1      49.362   4.204  18.642  0.00  0.00    +0.000 NA
ENDBRANCH  10  12
ENDBRANCH   7   9
ENDBRANCH   1   7
BRANCH   4  18
ATOM     18  C   UNL     1      48.389   8.068  12.327  0.00  0.00    +0.000 C 
BRANCH  18  19
ATOM     19  N   UNL     1      47.659   6.968  11.747  0.00  0.00    +0.000 N 
ATOM     20  C   UNL     1      46.292   6.915  11.739  0.00  0.00    +0.000 C 
ATOM     21  O   UNL     1      45.606   7.791  12.260  0.00  0.00    +0.000 OA
ATOM     22  H   UNL     1      48.207   6.146  11.510  0.00  0.00    +0.000 HD
BRANCH  20  23
ATOM     23  C   UNL     1      45.682   5.798  11.014  0.00  0.00    +0.000 A 
ATOM     24  C   UNL     1      45.865   5.692   9.638  0.00  0.00    +0.000 A 
ATOM     25  S   UNL     1      45.135   4.318   8.953  0.00  0.00    +0.000 S 
ATOM     26  C   UNL     1      44.510   3.831  10.454  0.00  0.00    +0.000 A 
ATOM     27  N   UNL     1      43.743   2.710  10.567  0.00  0.00    +0.000 NA
ATOM     28  C   UNL     1      43.311   2.475  11.755  0.00  0.00    +0.000 A 
ATOM     29  N   UNL     1      43.577   3.251  12.854  0.00  0.00    +0.000 N 
ATOM     30  C   UNL     1      44.388   4.364  12.806  0.00  0.00    +0.000 A 
ATOM     31  O   UNL     1      44.680   4.986  13.827  0.00  0.00    +0.000 OA
ATOM     32  C   UNL     1      44.873   4.691  11.473  0.00  0.00    +0.000 A 
ATOM     33  H   UNL     1      43.225   3.001  13.764  0.00  0.00    +0.000 HD
ENDBRANCH  20  23
ENDBRANCH  18  19
ENDBRANCH   4  18
TORSDOF 6
ENDMDL
MODEL 4
REMARK VINA RESULT:    -7.547      2.309      3.091
REMARK INTER + INTRA:         -11.057
REMARK INTER:                 -10.360
REMARK INTRA:                  -0.698
REMARK UNBOUND:                -0.864
REMARK  Name = 
REMARK  7 active torsions:
REMARK  status: ('A' for Active; 'I' for Inactive)
REMARK    1  A    between atoms: C_1  and  N_2
REMARK    2  A    between atoms: N_2  and  C_3
REMARK    3  A    between atoms: C_3  and  C_4
REMARK    4  A    between atoms: C_7  and  C_8
REMARK    5  A    between atoms: C_8  and  N_9
REMARK    6  A    between atoms: C_10  and  C_12
REMARK    7  A    between atoms: C_24  and  C_26
REMARK                            x       y       z     vdW  Elec       q    Type
REMARK                         _______ _______ _______ _____ _____    ______ ____
ROOT
ATOM      1  C   UNL     1      46.585   4.848  13.324  0.00  0.00    +0.000 A 
ATOM      2  C   UNL     1      47.127   6.010  12.772  0.00  0.00    +0.000 A 
ATOM      3  C   UNL     1      48.076   6.734  13.489  0.00  0.00    +0.000 A 
ATOM      4  C   UNL     1      48.445   6.288  14.755  0.00  0.00    +0.000 A 
ATOM      5  N   UNL     1      47.963   5.140  15.293  0.00  0.00    +0.000 NA
ATOM      6  C   UNL     1      47.055   4.450  14.570  0.00  0.00    +0.000 A 
ENDROOT
BRANCH   1   7
ATOM      7  C   UNL     1      45.528   4.049  12.618  0.00  0.00    +0.000 C 
BRANCH   7   9
ATOM      8  C   UNL     1      43.360   5.294  13.072  0.00  0.00    +0.000 C 
ATOM      9  N   UNL     1      44.348   4.774  12.132  0.00  0.00    +0.000 N 
ATOM     10  C   UNL     1      43.939   4.718  10.780  0.00  0.00    +0.000 C 
ATOM     11  O   UNL     1      42.903   5.265  10.392  0.00  0.00    +0.000 OA
BRANCH  10  12
ATOM     12  C   UNL     1      44.768   4.003   9.747  0.00  0.00    +0.000 A 
ATOM     13  C   UNL     1      44.779   2.612   9.749  0.00  0.00    +0.000 A 
ATOM     14  C   UNL     1      45.533   1.952   8.782  0.00  0.00    +0.000 A 
ATOM     15  C   UNL     1      46.262   2.695   7.860  0.00  0.00    +0.000 A 
ATOM     16  C   UNL     1      46.218   4.074   7.948  0.00  0.00    +0.000 A 
ATOM     17  N   UNL     1      45.493   4.742   8.869  0.00  0.00    +0.000 NA
ENDBRANCH  10  12
ENDBRANCH   7   9
ENDBRANCH   1   7
BRANCH   4  18
ATOM     18  C   UNL     1      49.393   7.099  15.603  0.00  0.00    +0.000 C 
BRANCH  18  19
ATOM     19  N   UNL     1      49.391   6.692  16.987  0.00  0.00    +0.000 N 
ATOM     20  C   UNL     1      50.255   5.753  17.479  0.00  0.00    +0.000 C 
ATOM     21  O   UNL     1      51.062   5.172  16.758  0.00  0.00    +0.000 OA
ATOM     22  H   UNL     1      48.597   7.001  17.539  0.00  0.00    +0.000 HD
BRANCH  20  23
ATOM     23  C   UNL     1      50.220   5.523  18.925  0.00  0.00    +0.000 A 
ATOM     24  C   UNL     1      51.406   5.270  19.608  0.00  0.00    +0.000 A 
ATOM     25  S   UNL     1      51.204   5.072  21.285  0.00  0.00    +0.000 S 
ATOM     26  C   UNL     1      49.522   5.273  21.162  0.00  0.00    +0.000 A 
ATOM     27  N   UNL     1      48.722   5.191  22.263  0.00  0.00    +0.000 NA
ATOM     28  C   UNL     1      47.467   5.332  22.023  0.00  0.00    +0.000 A 
ATOM     29  N   UNL     1      46.926   5.558  20.784  0.00  0.00    +0.000 N 
ATOM     30  C   UNL     1      47.693   5.702  19.647  0.00  0.00    +0.000 A 
ATOM     31  O   UNL     1      47.182   5.994  18.566  0.00  0.00    +0.000 OA
ATOM     32  C   UNL     1      49.119   5.514  19.863  0.00  0.00    +0.000 A 
ATOM     33  H   UNL     1      45.933   5.682  20.664  0.00  0.00    +0.000 HD
ENDBRANCH  20  23
ENDBRANCH  18  19
ENDBRANCH   4  18
TORSDOF 6
ENDMDL
MODEL 5
REMARK VINA RESULT:    -7.461      3.200      4.717
REMARK INTER + INTRA:         -10.942
REMARK INTER:                  -9.942
REMARK INTRA:                  -1.000
REMARK UNBOUND:                -0.864
REMARK  Name = 
REMARK  7 active torsions:
REMARK  status: ('A' for Active; 'I' for Inactive)
REMARK    1  A    between atoms: C_1  and  N_2
REMARK    2  A    between atoms: N_2  and  C_3
REMARK    3  A    between atoms: C_3  and  C_4
REMARK    4  A    between atoms: C_7  and  C_8
REMARK    5  A    between atoms: C_8  and  N_9
REMARK    6  A    between atoms: C_10  and  C_12
REMARK    7  A    between atoms: C_24  and  C_26
REMARK                            x       y       z     vdW  Elec       q    Type
REMARK                         _______ _______ _______ _____ _____    ______ ____
ROOT
ATOM      1  C   UNL     1      46.478   4.706  13.345  0.00  0.00    +0.000 A 
ATOM      2  C   UNL     1      46.959   5.946  12.922  0.00  0.00    +0.000 A 
ATOM      3  C   UNL     1      47.840   6.656  13.733  0.00  0.00    +0.000 A 
ATOM      4  C   UNL     1      48.204   6.115  14.963  0.00  0.00    +0.000 A 
ATOM      5  N   UNL     1      47.782   4.893  15.377  0.00  0.00    +0.000 NA
ATOM      6  C   UNL     1      46.940   4.221  14.564  0.00  0.00    +0.000 A 
ENDROOT
BRANCH   1   7
ATOM      7  C   UNL     1      45.494   3.913  12.535  0.00  0.00    +0.000 C 
BRANCH   7   9
ATOM      8  C   UNL     1      43.320   5.149  12.988  0.00  0.00    +0.000 C 
ATOM      9  N   UNL     1      44.301   4.618  12.048  0.00  0.00    +0.000 N 
ATOM     10  C   UNL     1      43.877   4.528  10.703  0.00  0.00    +0.000 C 
ATOM     11  O   UNL     1      42.831   5.058  10.315  0.00  0.00    +0.000 OA
BRANCH  10  12
ATOM     12  C   UNL     1      44.700   3.798   9.675  0.00  0.00    +0.000 A 
ATOM     13  C   UNL     1      45.441   4.544   8.765  0.00  0.00    +0.000 A 
ATOM     14  C   UNL     1      46.216   3.868   7.826  0.00  0.00    +0.000 A 
ATOM     15  C   UNL     1      46.214   2.477   7.813  0.00  0.00    +0.000 A 
ATOM     16  C   UNL     1      45.427   1.814   8.736  0.00  0.00    +0.000 A 
ATOM     17  N   UNL     1      44.669   2.441   9.661  0.00  0.00    +0.000 NA
ENDBRANCH  10  12
ENDBRANCH   7   9
ENDBRANCH   1   7
BRANCH   4  18
ATOM     18  C   UNL     1      49.075   6.899  15.913  0.00  0.00    +0.000 C 
BRANCH  18  19
ATOM     19  N   UNL     1      48.517   6.984  17.240  0.00  0.00    +0.000 N 
ATOM     20  C   UNL     1      49.285   6.886  18.368  0.00  0.00    +0.000 C 
ATOM     21  O   UNL     1      50.495   6.683  18.315  0.00  0.00    +0.000 OA
ATOM     22  H   UNL     1      47.505   6.937  17.301  0.00  0.00    +0.000 HD
BRANCH  20  23
ATOM     23  C   UNL     1      48.604   7.109  19.646  0.00  0.00    +0.000 A 
ATOM     24  C   UNL     1      48.639   6.119  20.624  0.00  0.00    +0.000 A 
ATOM     25  S   UNL     1      47.844   6.547  22.064  0.00  0.00    +0.000 S 
ATOM     26  C   UNL     1      47.383   8.052  21.428  0.00  0.00    +0.000 A 
ATOM     27  N   UNL     1      46.635   8.926  22.160  0.00  0.00    +0.000 NA
ATOM     28  C   UNL     1      46.332  10.014  21.546  0.00  0.00    +0.000 A 
ATOM     29  N   UNL     1      46.712  10.325  20.266  0.00  0.00    +0.000 N 
ATOM     30  C   UNL     1      47.511   9.502  19.502  0.00  0.00    +0.000 A 
ATOM     31  O   UNL     1      47.909   9.850  18.390  0.00  0.00    +0.000 OA
ATOM     32  C   UNL     1      47.851   8.240  20.142  0.00  0.00    +0.000 A 
ATOM     33  H   UNL     1      46.460  11.206  19.848  0.00  0.00    +0.000 HD
ENDBRANCH  20  23
ENDBRANCH  18  19
ENDBRANCH   4  18
TORSDOF 6
ENDMDL
MODEL 6
REMARK VINA RESULT:    -7.453      2.519      2.937
REMARK INTER + INTRA:         -10.931
REMARK INTER:                 -10.650
REMARK INTRA:                  -0.281
REMARK UNBOUND:                -0.864
REMARK  Name = 
REMARK  7 active torsions:
REMARK  status: ('A' for Active; 'I' for Inactive)
REMARK    1  A    between atoms: C_1  and  N_2
REMARK    2  A    between atoms: N_2  and  C_3
REMARK    3  A    between atoms: C_3  and  C_4
REMARK    4  A    between atoms: C_7  and  C_8
REMARK    5  A    between atoms: C_8  and  N_9
REMARK    6  A    between atoms: C_10  and  C_12
REMARK    7  A    between atoms: C_24  and  C_26
REMARK                            x       y       z     vdW  Elec       q    Type
REMARK                         _______ _______ _______ _____ _____    ______ ____
ROOT
ATOM      1  C   UNL     1      45.173   6.777  11.405  0.00  0.00    +0.000 A 
ATOM      2  C   UNL     1      44.909   8.094  11.782  0.00  0.00    +0.000 A 
ATOM      3  C   UNL     1      45.785   8.753  12.641  0.00  0.00    +0.000 A 
ATOM      4  C   UNL     1      46.896   8.068  13.121  0.00  0.00    +0.000 A 
ATOM      5  N   UNL     1      47.196   6.801  12.736  0.00  0.00    +0.000 NA
ATOM      6  C   UNL     1      46.337   6.192  11.891  0.00  0.00    +0.000 A 
ENDROOT
BRANCH   1   7
ATOM      7  C   UNL     1      44.246   6.000  10.516  0.00  0.00    +0.000 C 
BRANCH   7   9
ATOM      8  C   UNL     1      42.782   5.079  12.378  0.00  0.00    +0.000 C 
ATOM      9  N   UNL     1      43.504   4.889  11.124  0.00  0.00    +0.000 N 
ATOM     10  C   UNL     1      43.717   3.546  10.737  0.00  0.00    +0.000 C 
ATOM     11  O   UNL     1      43.150   2.609  11.304  0.00  0.00    +0.000 OA
BRANCH  10  12
ATOM     12  C   UNL     1      44.633   3.204   9.592  0.00  0.00    +0.000 A 
ATOM     13  C   UNL     1      45.008   4.216   8.715  0.00  0.00    +0.000 A 
ATOM     14  C   UNL     1      45.869   3.902   7.666  0.00  0.00    +0.000 A 
ATOM     15  C   UNL     1      46.312   2.593   7.516  0.00  0.00    +0.000 A 
ATOM     16  C   UNL     1      45.868   1.643   8.416  0.00  0.00    +0.000 A 
ATOM     17  N   UNL     1      45.038   1.917   9.445  0.00  0.00    +0.000 NA
ENDBRANCH  10  12
ENDBRANCH   7   9
ENDBRANCH   1   7
BRANCH   4  18
ATOM     18  C   UNL     1      47.812   8.712  14.131  0.00  0.00    +0.000 C 
BRANCH  18  19
ATOM     19  N   UNL     1      48.093   7.855  15.257  0.00  0.00    +0.000 N 
ATOM     20  C   UNL     1      49.344   7.367  15.516  0.00  0.00    +0.000 C 
ATOM     21  O   UNL     1      50.298   7.602  14.779  0.00  0.00    +0.000 OA
ATOM     22  H   UNL     1      47.283   7.483  15.744  0.00  0.00    +0.000 HD
BRANCH  20  23
ATOM     23  C   UNL     1      49.507   6.606  16.757  0.00  0.00    +0.000 A 
ATOM     24  C   UNL     1      50.320   7.109  17.768  0.00  0.00    +0.000 A 
ATOM     25  S   UNL     1      50.369   6.134  19.160  0.00  0.00    +0.000 S 
ATOM     26  C   UNL     1      49.342   4.980  18.455  0.00  0.00    +0.000 A 
ATOM     27  N   UNL     1      48.993   3.845  19.127  0.00  0.00    +0.000 NA
ATOM     28  C   UNL     1      48.236   3.045  18.464  0.00  0.00    +0.000 A 
ATOM     29  N   UNL     1      47.781   3.269  17.191  0.00  0.00    +0.000 N 
ATOM     30  C   UNL     1      48.060   4.421  16.488  0.00  0.00    +0.000 A 
ATOM     31  O   UNL     1      47.562   4.631  15.382  0.00  0.00    +0.000 OA
ATOM     32  C   UNL     1      48.944   5.343  17.183  0.00  0.00    +0.000 A 
ATOM     33  H   UNL     1      47.171   2.610  16.733  0.00  0.00    +0.000 HD
ENDBRANCH  20  23
ENDBRANCH  18  19
ENDBRANCH   4  18
TORSDOF 6
ENDMDL
MODEL 7
REMARK VINA RESULT:    -7.198      3.383      8.770
REMARK INTER + INTRA:         -10.586
REMARK INTER:                  -9.083
REMARK INTRA:                  -1.504
REMARK UNBOUND:                -0.864
REMARK  Name = 
REMARK  7 active torsions:
REMARK  status: ('A' for Active; 'I' for Inactive)
REMARK    1  A    between atoms: C_1  and  N_2
REMARK    2  A    between atoms: N_2  and  C_3
REMARK    3  A    between atoms: C_3  and  C_4
REMARK    4  A    between atoms: C_7  and  C_8
REMARK    5  A    between atoms: C_8  and  N_9
REMARK    6  A    between atoms: C_10  and  C_12
REMARK    7  A    between atoms: C_24  and  C_26
REMARK                            x       y       z     vdW  Elec       q    Type
REMARK                         _______ _______ _______ _____ _____    ______ ____
ROOT
ATOM      1  C   UNL     1      49.107   7.843  16.282  0.00  0.00    +0.000 A 
ATOM      2  C   UNL     1      49.612   6.879  15.409  0.00  0.00    +0.000 A 
ATOM      3  C   UNL     1      49.164   6.843  14.091  0.00  0.00    +0.000 A 
ATOM      4  C   UNL     1      48.202   7.762  13.683  0.00  0.00    +0.000 A 
ATOM      5  N   UNL     1      47.728   8.735  14.503  0.00  0.00    +0.000 NA
ATOM      6  C   UNL     1      48.191   8.755  15.771  0.00  0.00    +0.000 A 
ENDROOT
BRANCH   1   7
ATOM      7  C   UNL     1      49.520   7.907  17.724  0.00  0.00    +0.000 C 
BRANCH   7   9
ATOM      8  C   UNL     1      48.172   8.893  19.641  0.00  0.00    +0.000 C 
ATOM      9  N   UNL     1      48.459   7.787  18.733  0.00  0.00    +0.000 N 
ATOM     10  C   UNL     1      47.912   6.535  19.098  0.00  0.00    +0.000 C 
ATOM     11  O   UNL     1      47.078   6.430  20.001  0.00  0.00    +0.000 OA
BRANCH  10  12
ATOM     12  C   UNL     1      48.310   5.274  18.379  0.00  0.00    +0.000 A 
ATOM     13  C   UNL     1      47.412   4.709  17.480  0.00  0.00    +0.000 A 
ATOM     14  C   UNL     1      47.789   3.552  16.802  0.00  0.00    +0.000 A 
ATOM     15  C   UNL     1      49.035   2.989  17.054  0.00  0.00    +0.000 A 
ATOM     16  C   UNL     1      49.855   3.599  17.984  0.00  0.00    +0.000 A 
ATOM     17  N   UNL     1      49.521   4.724  18.653  0.00  0.00    +0.000 NA
ENDBRANCH  10  12
ENDBRANCH   7   9
ENDBRANCH   1   7
BRANCH   4  18
ATOM     18  C   UNL     1      47.618   7.691  12.295  0.00  0.00    +0.000 C 
BRANCH  18  19
ATOM     19  N   UNL     1      46.910   6.458  12.049  0.00  0.00    +0.000 N 
ATOM     20  C   UNL     1      45.550   6.358  12.152  0.00  0.00    +0.000 C 
ATOM     21  O   UNL     1      44.853   7.309  12.496  0.00  0.00    +0.000 OA
ATOM     22  H   UNL     1      47.484   5.624  11.976  0.00  0.00    +0.000 HD
BRANCH  20  23
ATOM     23  C   UNL     1      44.955   5.077  11.761  0.00  0.00    +0.000 A 
ATOM     24  C   UNL     1      44.240   4.339  12.698  0.00  0.00    +0.000 A 
ATOM     25  S   UNL     1      43.574   2.903  12.078  0.00  0.00    +0.000 S 
ATOM     26  C   UNL     1      44.248   3.186  10.546  0.00  0.00    +0.000 A 
ATOM     27  N   UNL     1      44.075   2.297   9.526  0.00  0.00    +0.000 NA
ATOM     28  C   UNL     1      44.665   2.621   8.430  0.00  0.00    +0.000 A 
ATOM     29  N   UNL     1      45.409   3.758   8.246  0.00  0.00    +0.000 N 
ATOM     30  C   UNL     1      45.572   4.713   9.226  0.00  0.00    +0.000 A 
ATOM     31  O   UNL     1      46.170   5.765   8.999  0.00  0.00    +0.000 OA
ATOM     32  C   UNL     1      44.952   4.374  10.497  0.00  0.00    +0.000 A 
ATOM     33  H   UNL     1      45.829   3.965   7.353  0.00  0.00    +0.000 HD
ENDBRANCH  20  23
ENDBRANCH  18  19
ENDBRANCH   4  18
TORSDOF 6
ENDMDL
MODEL 8
REMARK VINA RESULT:    -7.055      3.314     10.294
REMARK INTER + INTRA:         -10.394
REMARK INTER:                  -9.617
REMARK INTRA:                  -0.776
REMARK UNBOUND:                -0.864
REMARK  Name = 
REMARK  7 active torsions:
REMARK  status: ('A' for Active; 'I' for Inactive)
REMARK    1  A    between atoms: C_1  and  N_2
REMARK    2  A    between atoms: N_2  and  C_3
REMARK    3  A    between atoms: C_3  and  C_4
REMARK    4  A    between atoms: C_7  and  C_8
REMARK    5  A    between atoms: C_8  and  N_9
REMARK    6  A    between atoms: C_10  and  C_12
REMARK    7  A    between atoms: C_24  and  C_26
REMARK                            x       y       z     vdW  Elec       q    Type
REMARK                         _______ _______ _______ _____ _____    ______ ____
ROOT
ATOM      1  C   UNL     1      51.619   3.823  17.514  0.00  0.00    +0.000 A 
ATOM      2  C   UNL     1      51.056   2.551  17.398  0.00  0.00    +0.000 A 
ATOM      3  C   UNL     1      49.701   2.423  17.102  0.00  0.00    +0.000 A 
ATOM      4  C   UNL     1      48.936   3.575  16.950  0.00  0.00    +0.000 A 
ATOM      5  N   UNL     1      49.470   4.821  17.017  0.00  0.00    +0.000 NA
ATOM      6  C   UNL     1      50.788   4.915  17.291  0.00  0.00    +0.000 A 
ENDROOT
BRANCH   1   7
ATOM      7  C   UNL     1      53.063   4.026  17.873  0.00  0.00    +0.000 C 
BRANCH   7   9
ATOM      8  C   UNL     1      53.983   1.791  18.658  0.00  0.00    +0.000 C 
ATOM      9  N   UNL     1      53.618   3.177  18.934  0.00  0.00    +0.000 N 
ATOM     10  C   UNL     1      53.518   3.525  20.300  0.00  0.00    +0.000 C 
ATOM     11  O   UNL     1      53.917   2.772  21.193  0.00  0.00    +0.000 OA
BRANCH  10  12
ATOM     12  C   UNL     1      52.940   4.849  20.724  0.00  0.00    +0.000 A 
ATOM     13  C   UNL     1      51.607   4.896  21.119  0.00  0.00    +0.000 A 
ATOM     14  C   UNL     1      51.078   6.118  21.528  0.00  0.00    +0.000 A 
ATOM     15  C   UNL     1      51.884   7.251  21.512  0.00  0.00    +0.000 A 
ATOM     16  C   UNL     1      53.190   7.120  21.077  0.00  0.00    +0.000 A 
ATOM     17  N   UNL     1      53.733   5.950  20.681  0.00  0.00    +0.000 NA
ENDBRANCH  10  12
ENDBRANCH   7   9
ENDBRANCH   1   7
BRANCH   4  18
ATOM     18  C   UNL     1      47.447   3.477  16.730  0.00  0.00    +0.000 C 
BRANCH  18  19
ATOM     19  N   UNL     1      46.954   4.464  15.800  0.00  0.00    +0.000 N 
ATOM     20  C   UNL     1      46.895   4.239  14.452  0.00  0.00    +0.000 C 
ATOM     21  O   UNL     1      47.294   3.192  13.950  0.00  0.00    +0.000 OA
ATOM     22  H   UNL     1      46.825   5.400  16.172  0.00  0.00    +0.000 HD
BRANCH  20  23
ATOM     23  C   UNL     1      46.264   5.283  13.640  0.00  0.00    +0.000 A 
ATOM     24  C   UNL     1      46.871   6.531  13.535  0.00  0.00    +0.000 A 
ATOM     25  S   UNL     1      46.041   7.614  12.521  0.00  0.00    +0.000 S 
ATOM     26  C   UNL     1      44.816   6.479  12.216  0.00  0.00    +0.000 A 
ATOM     27  N   UNL     1      43.753   6.788  11.420  0.00  0.00    +0.000 NA
ATOM     28  C   UNL     1      42.885   5.847  11.299  0.00  0.00    +0.000 A 
ATOM     29  N   UNL     1      42.978   4.614  11.891  0.00  0.00    +0.000 N 
ATOM     30  C   UNL     1      44.055   4.232  12.662  0.00  0.00    +0.000 A 
ATOM     31  O   UNL     1      44.150   3.087  13.105  0.00  0.00    +0.000 OA
ATOM     32  C   UNL     1      45.047   5.278  12.858  0.00  0.00    +0.000 A 
ATOM     33  H   UNL     1      42.273   3.909  11.740  0.00  0.00    +0.000 HD
ENDBRANCH  20  23
ENDBRANCH  18  19
ENDBRANCH   4  18
TORSDOF 6
ENDMDL
MODEL 9
REMARK VINA RESULT:    -7.022      3.177      4.355
REMARK INTER + INTRA:         -10.349
REMARK INTER:                 -10.175
REMARK INTRA:                  -0.175
REMARK UNBOUND:                -0.864
REMARK  Name = 
REMARK  7 active torsions:
REMARK  status: ('A' for Active; 'I' for Inactive)
REMARK    1  A    between atoms: C_1  and  N_2
REMARK    2  A    between atoms: N_2  and  C_3
REMARK    3  A    between atoms: C_3  and  C_4
REMARK    4  A    between atoms: C_7  and  C_8
REMARK    5  A    between atoms: C_8  and  N_9
REMARK    6  A    between atoms: C_10  and  C_12
REMARK    7  A    between atoms: C_24  and  C_26
REMARK                            x       y       z     vdW  Elec       q    Type
REMARK                         _______ _______ _______ _____ _____    ______ ____
ROOT
ATOM      1  C   UNL     1      45.652   6.467  11.792  0.00  0.00    +0.000 A 
ATOM      2  C   UNL     1      46.712   5.679  12.242  0.00  0.00    +0.000 A 
ATOM      3  C   UNL     1      47.581   6.181  13.208  0.00  0.00    +0.000 A 
ATOM      4  C   UNL     1      47.379   7.472  13.685  0.00  0.00    +0.000 A 
ATOM      5  N   UNL     1      46.332   8.241  13.293  0.00  0.00    +0.000 NA
ATOM      6  C   UNL     1      45.498   7.723  12.367  0.00  0.00    +0.000 A 
ENDROOT
BRANCH   1   7
ATOM      7  C   UNL     1      44.708   5.998  10.723  0.00  0.00    +0.000 C 
BRANCH   7   9
ATOM      8  C   UNL     1      42.984   4.955  12.273  0.00  0.00    +0.000 C 
ATOM      9  N   UNL     1      43.800   4.896  11.064  0.00  0.00    +0.000 N 
ATOM     10  C   UNL     1      43.908   3.623  10.459  0.00  0.00    +0.000 C 
ATOM     11  O   UNL     1      43.194   2.677  10.805  0.00  0.00    +0.000 OA
BRANCH  10  12
ATOM     12  C   UNL     1      44.888   3.373   9.345  0.00  0.00    +0.000 A 
ATOM     13  C   UNL     1      45.320   2.071   9.118  0.00  0.00    +0.000 A 
ATOM     14  C   UNL     1      46.214   1.839   8.075  0.00  0.00    +0.000 A 
ATOM     15  C   UNL     1      46.659   2.910   7.307  0.00  0.00    +0.000 A 
ATOM     16  C   UNL     1      46.200   4.176   7.618  0.00  0.00    +0.000 A 
ATOM     17  N   UNL     1      45.331   4.432   8.619  0.00  0.00    +0.000 NA
ENDBRANCH  10  12
ENDBRANCH   7   9
ENDBRANCH   1   7
BRANCH   4  18
ATOM     18  C   UNL     1      48.357   8.088  14.655  0.00  0.00    +0.000 C 
BRANCH  18  19
ATOM     19  N   UNL     1      48.154   7.641  16.012  0.00  0.00    +0.000 N 
ATOM     20  C   UNL     1      48.977   6.733  16.618  0.00  0.00    +0.000 C 
ATOM     21  O   UNL     1      49.921   6.216  16.026  0.00  0.00    +0.000 OA
ATOM     22  H   UNL     1      47.265   7.893  16.434  0.00  0.00    +0.000 HD
BRANCH  20  23
ATOM     23  C   UNL     1      48.722   6.459  18.035  0.00  0.00    +0.000 A 
ATOM     24  C   UNL     1      48.970   5.188  18.543  0.00  0.00    +0.000 A 
ATOM     25  S   UNL     1      48.669   5.045  20.210  0.00  0.00    +0.000 S 
ATOM     26  C   UNL     1      48.155   6.660  20.313  0.00  0.00    +0.000 A 
ATOM     27  N   UNL     1      47.723   7.186  21.495  0.00  0.00    +0.000 NA
ATOM     28  C   UNL     1      47.335   8.410  21.423  0.00  0.00    +0.000 A 
ATOM     29  N   UNL     1      47.343   9.170  20.282  0.00  0.00    +0.000 N 
ATOM     30  C   UNL     1      47.817   8.704  19.075  0.00  0.00    +0.000 A 
ATOM     31  O   UNL     1      47.894   9.441  18.092  0.00  0.00    +0.000 OA
ATOM     32  C   UNL     1      48.235   7.311  19.098  0.00  0.00    +0.000 A 
ATOM     33  H   UNL     1      47.045  10.133  20.297  0.00  0.00    +0.000 HD
ENDBRANCH  20  23
ENDBRANCH  18  19
ENDBRANCH   4  18
TORSDOF 6
ENDMDL
