MODEL 1
REMARK VINA RESULT:    -7.453      0.000      0.000
REMARK INTER + INTRA:          -9.676
REMARK INTER:                  -9.196
REMARK INTRA:                  -0.480
REMARK UNBOUND:                -0.480
REMARK  Name = 
REMARK  4 active torsions:
REMARK  status: ('A' for Active; 'I' for Inactive)
REMARK    1  A    between atoms: C_2  and  C_3
REMARK    2  A    between atoms: C_6  and  N_7
REMARK    3  A    between atoms: N_7  and  C_8
REMARK    4  A    between atoms: C_8  and  C_9
REMARK                            x       y       z     vdW  Elec       q    Type
REMARK                         _______ _______ _______ _____ _____    ______ ____
ROOT
ATOM      1  C   UNL     1      44.811   4.582  11.951  0.00  0.00    +0.000 A 
ATOM      2  C   UNL     1      45.559   3.671  12.689  0.00  0.00    +0.000 A 
ATOM      3  C   UNL     1      46.561   4.165  13.506  0.00  0.00    +0.000 A 
ATOM      4  N   UNL     1      46.853   5.480  13.642  0.00  0.00    +0.000 NA
ATOM      5  C   UNL     1      46.120   6.381  12.954  0.00  0.00    +0.000 A 
ATOM      6  N   UNL     1      46.418   7.716  13.072  0.00  0.00    +0.000 N 
ATOM      7  C   UNL     1      45.424   8.782  12.945  0.00  0.00    +0.000 C 
ATOM      8  C   UNL     1      46.000   9.905  12.056  0.00  0.00    +0.000 C 
ATOM      9  N   UNL     1      47.299  10.429  12.536  0.00  0.00    +0.000 NA
ATOM     10  C   UNL     1      48.247   9.300  12.703  0.00  0.00    +0.000 C 
ATOM     11  C   UNL     1      47.714   8.148  13.597  0.00  0.00    +0.000 C 
ATOM     12  C   UNL     1      45.106   5.944  12.102  0.00  0.00    +0.000 A 
ATOM     13  H   UNL     1      47.148  10.845  13.456  0.00  0.00    +0.000 HD
ENDROOT
BRANCH   1  14
ATOM     14  C   UNL     1      43.686   4.153  11.039  0.00  0.00    +0.000 C 
BRANCH  14  15
ATOM     15  N   UNL     1      43.970   4.555   9.672  0.00  0.00    +0.000 N 
ATOM     16  H   UNL     1      44.160   5.549   9.552  0.00  0.00    +0.000 HD
BRANCH  15  20
ATOM     17  C   UNL     1      46.668   2.536   7.329  0.00  0.00    +0.000 A 
ATOM     18  C   UNL     1      46.530   3.914   7.293  0.00  0.00    +0.000 A 
ATOM     19  N   UNL     1      45.654   4.589   8.086  0.00  0.00    +0.000 NA
ATOM     20  C   UNL     1      44.897   3.850   8.927  0.00  0.00    +0.000 A 
ATOM     21  C   UNL     1      45.038   2.460   8.940  0.00  0.00    +0.000 A 
ATOM     22  N   UNL     1      45.922   1.774   8.165  0.00  0.00    +0.000 NA
BRANCH  17  24
ATOM     23  N   UNL     1      48.333   1.279   5.781  0.00  0.00    +0.000 NA
ATOM     24  C   UNL     1      47.604   1.858   6.479  0.00  0.00    +0.000 C 
ENDBRANCH  17  24
ENDBRANCH  15  20
ENDBRANCH  14  15
ENDBRANCH   1  14
TORSDOF 4
ENDMDL
MODEL 2
REMARK VINA RESULT:    -7.042      1.975      3.461
REMARK INTER + INTRA:          -9.169
REMARK INTER:                  -8.899
REMARK INTRA:                  -0.270
REMARK UNBOUND:                -0.480
REMARK  Name = 
REMARK  4 active torsions:
REMARK  status: ('A' for Active; 'I' for Inactive)
REMARK    1  A    between atoms: C_2  and  C_3
REMARK    2  A    between atoms: C_6  and  N_7
REMARK    3  A    between atoms: N_7  and  C_8
REMARK    4  A    between atoms: C_8  and  C_9
REMARK                            x       y       z     vdW  Elec       q    Type
REMARK                         _______ _______ _______ _____ _____    ______ ____
ROOT
ATOM      1  C   UNL     1      45.517   5.205  12.154  0.00  0.00    +0.000 A 
ATOM      2  C   UNL     1      46.127   6.292  11.537  0.00  0.00    +0.000 A 
ATOM      3  C   UNL     1      47.206   6.879  12.175  0.00  0.00    +0.000 A 
ATOM      4  N   UNL     1      47.714   6.457  13.355  0.00  0.00    +0.000 NA
ATOM      5  C   UNL     1      47.153   5.387  13.957  0.00  0.00    +0.000 A 
ATOM      6  N   UNL     1      47.650   4.959  15.163  0.00  0.00    +0.000 N 
ATOM      7  C   UNL     1      47.617   3.565  15.604  0.00  0.00    +0.000 C 
ATOM      8  C   UNL     1      47.152   3.512  17.076  0.00  0.00    +0.000 C 
ATOM      9  N   UNL     1      47.971   4.349  17.982  0.00  0.00    +0.000 NA
ATOM     10  C   UNL     1      48.018   5.735  17.455  0.00  0.00    +0.000 C 
ATOM     11  C   UNL     1      48.488   5.839  15.979  0.00  0.00    +0.000 C 
ATOM     12  C   UNL     1      46.052   4.761  13.371  0.00  0.00    +0.000 A 
ATOM     13  H   UNL     1      48.923   3.982  17.973  0.00  0.00    +0.000 HD
ENDROOT
BRANCH   1  14
ATOM     14  C   UNL     1      44.342   4.482  11.541  0.00  0.00    +0.000 C 
BRANCH  14  15
ATOM     15  N   UNL     1      44.303   4.719  10.108  0.00  0.00    +0.000 N 
ATOM     16  H   UNL     1      44.393   5.696   9.835  0.00  0.00    +0.000 HD
BRANCH  15  20
ATOM     17  C   UNL     1      46.601   2.558   7.481  0.00  0.00    +0.000 A 
ATOM     18  C   UNL     1      46.537   3.941   7.456  0.00  0.00    +0.000 A 
ATOM     19  N   UNL     1      45.796   4.662   8.342  0.00  0.00    +0.000 NA
ATOM     20  C   UNL     1      45.098   3.965   9.264  0.00  0.00    +0.000 A 
ATOM     21  C   UNL     1      45.161   2.569   9.266  0.00  0.00    +0.000 A 
ATOM     22  N   UNL     1      45.912   1.837   8.398  0.00  0.00    +0.000 NA
BRANCH  17  24
ATOM     23  N   UNL     1      48.058   1.278   5.753  0.00  0.00    +0.000 NA
ATOM     24  C   UNL     1      47.394   1.831   6.533  0.00  0.00    +0.000 C 
ENDBRANCH  17  24
ENDBRANCH  15  20
ENDBRANCH  14  15
ENDBRANCH   1  14
TORSDOF 4
ENDMDL
MODEL 3
REMARK VINA RESULT:    -6.970      1.258      1.673
REMARK INTER + INTRA:          -9.080
REMARK INTER:                  -8.670
REMARK INTRA:                  -0.411
REMARK UNBOUND:                -0.480
REMARK  Name = 
REMARK  4 active torsions:
REMARK  status: ('A' for Active; 'I' for Inactive)
REMARK    1  A    between atoms: C_2  and  C_3
REMARK    2  A    between atoms: C_6  and  N_7
REMARK    3  A    between atoms: N_7  and  C_8
REMARK    4  A    between atoms: C_8  and  C_9
REMARK                            x       y       z     vdW  Elec       q    Type
REMARK                         _______ _______ _______ _____ _____    ______ ____
ROOT
ATOM      1  C   UNL     1      45.299   5.083  11.843  0.00  0.00    +0.000 A 
ATOM      2  C   UNL     1      45.567   4.024  12.703  0.00  0.00    +0.000 A 
ATOM      3  C   UNL     1      46.647   4.140  13.561  0.00  0.00    +0.000 A 
ATOM      4  N   UNL     1      47.454   5.225  13.624  0.00  0.00    +0.000 NA
ATOM      5  C   UNL     1      47.194   6.274  12.815  0.00  0.00    +0.000 A 
ATOM      6  N   UNL     1      48.016   7.373  12.859  0.00  0.00    +0.000 N 
ATOM      7  C   UNL     1      47.564   8.735  12.575  0.00  0.00    +0.000 C 
ATOM      8  C   UNL     1      48.593   9.428  11.656  0.00  0.00    +0.000 C 
ATOM      9  N   UNL     1      49.970   9.416  12.201  0.00  0.00    +0.000 NA
ATOM     10  C   UNL     1      50.353   8.019  12.524  0.00  0.00    +0.000 C 
ATOM     11  C   UNL     1      49.351   7.283  13.455  0.00  0.00    +0.000 C 
ATOM     12  C   UNL     1      46.129   6.210  11.918  0.00  0.00    +0.000 A 
ATOM     13  H   UNL     1      49.967   9.946  13.072  0.00  0.00    +0.000 HD
ENDROOT
BRANCH   1  14
ATOM     14  C   UNL     1      44.138   5.066  10.877  0.00  0.00    +0.000 C 
BRANCH  14  15
ATOM     15  N   UNL     1      43.993   3.743  10.294  0.00  0.00    +0.000 N 
ATOM     16  H   UNL     1      43.040   3.496  10.031  0.00  0.00    +0.000 HD
BRANCH  15  20
ATOM     17  C   UNL     1      46.583   2.492   7.366  0.00  0.00    +0.000 A 
ATOM     18  C   UNL     1      46.034   1.627   8.298  0.00  0.00    +0.000 A 
ATOM     19  N   UNL     1      45.155   2.034   9.254  0.00  0.00    +0.000 NA
ATOM     20  C   UNL     1      44.835   3.346   9.271  0.00  0.00    +0.000 A 
ATOM     21  C   UNL     1      45.410   4.209   8.334  0.00  0.00    +0.000 A 
ATOM     22  N   UNL     1      46.276   3.812   7.361  0.00  0.00    +0.000 NA
BRANCH  17  24
ATOM     23  N   UNL     1      48.244   1.610   5.574  0.00  0.00    +0.000 NA
ATOM     24  C   UNL     1      47.505   2.027   6.370  0.00  0.00    +0.000 C 
ENDBRANCH  17  24
ENDBRANCH  15  20
ENDBRANCH  14  15
ENDBRANCH   1  14
TORSDOF 4
ENDMDL
MODEL 4
REMARK VINA RESULT:    -6.775      1.882      2.595
REMARK INTER + INTRA:          -8.839
REMARK INTER:                  -8.453
REMARK INTRA:                  -0.386
REMARK UNBOUND:                -0.480
REMARK  Name = 
REMARK  4 active torsions:
REMARK  status: ('A' for Active; 'I' for Inactive)
REMARK    1  A    between atoms: C_2  and  C_3
REMARK    2  A    between atoms: C_6  and  N_7
REMARK    3  A    between atoms: N_7  and  C_8
REMARK    4  A    between atoms: C_8  and  C_9
REMARK                            x       y       z     vdW  Elec       q    Type
REMARK                         _______ _______ _______ _____ _____    ______ ____
ROOT
ATOM      1  C   UNL     1      45.060   6.166  11.858  0.00  0.00    +0.000 A 
ATOM      2  C   UNL     1      46.097   6.243  12.781  0.00  0.00    +0.000 A 
ATOM      3  C   UNL     1      46.560   7.498  13.135  0.00  0.00    +0.000 A 
ATOM      4  N   UNL     1      46.061   8.658  12.649  0.00  0.00    +0.000 NA
ATOM      5  C   UNL     1      45.035   8.605  11.773  0.00  0.00    +0.000 A 
ATOM      6  N   UNL     1      44.531   9.775  11.261  0.00  0.00    +0.000 N 
ATOM      7  C   UNL     1      43.136   9.947  10.856  0.00  0.00    +0.000 C 
ATOM      8  C   UNL     1      43.091  10.671   9.493  0.00  0.00    +0.000 C 
ATOM      9  N   UNL     1      43.821  11.960   9.487  0.00  0.00    +0.000 NA
ATOM     10  C   UNL     1      45.209  11.735   9.961  0.00  0.00    +0.000 C 
ATOM     11  C   UNL     1      45.304  11.016  11.334  0.00  0.00    +0.000 C 
ATOM     12  C   UNL     1      44.535   7.369  11.365  0.00  0.00    +0.000 A 
ATOM     13  H   UNL     1      43.363  12.582  10.153  0.00  0.00    +0.000 HD
ENDROOT
BRANCH   1  14
ATOM     14  C   UNL     1      44.471   4.849  11.411  0.00  0.00    +0.000 C 
BRANCH  14  15
ATOM     15  N   UNL     1      44.272   4.854   9.972  0.00  0.00    +0.000 N 
ATOM     16  H   UNL     1      44.199   5.781   9.556  0.00  0.00    +0.000 HD
BRANCH  15  20
ATOM     17  C   UNL     1      46.636   2.648   7.445  0.00  0.00    +0.000 A 
ATOM     18  C   UNL     1      46.596   4.031   7.413  0.00  0.00    +0.000 A 
ATOM     19  N   UNL     1      45.832   4.767   8.267  0.00  0.00    +0.000 NA
ATOM     20  C   UNL     1      45.087   4.084   9.163  0.00  0.00    +0.000 A 
ATOM     21  C   UNL     1      45.127   2.688   9.171  0.00  0.00    +0.000 A 
ATOM     22  N   UNL     1      45.900   1.940   8.335  0.00  0.00    +0.000 NA
BRANCH  17  24
ATOM     23  N   UNL     1      48.137   1.339   5.776  0.00  0.00    +0.000 NA
ATOM     24  C   UNL     1      47.455   1.905   6.531  0.00  0.00    +0.000 C 
ENDBRANCH  17  24
ENDBRANCH  15  20
ENDBRANCH  14  15
ENDBRANCH   1  14
TORSDOF 4
ENDMDL
MODEL 5
REMARK VINA RESULT:    -6.671      3.734      7.571
REMARK INTER + INTRA:          -8.711
REMARK INTER:                  -8.298
REMARK INTRA:                  -0.412
REMARK UNBOUND:                -0.480
REMARK  Name = 
REMARK  4 active torsions:
REMARK  status: ('A' for Active; 'I' for Inactive)
REMARK    1  A    between atoms: C_2  and  C_3
REMARK    2  A    between atoms: C_6  and  N_7
REMARK    3  A    between atoms: N_7  and  C_8
REMARK    4  A    between atoms: C_8  and  C_9
REMARK                            x       y       z     vdW  Elec       q    Type
REMARK                         _______ _______ _______ _____ _____    ______ ____
ROOT
ATOM      1  C   UNL     1      47.632   6.337  13.948  0.00  0.00    +0.000 A 
ATOM      2  C   UNL     1      48.197   7.196  13.013  0.00  0.00    +0.000 A 
ATOM      3  C   UNL     1      47.679   7.191  11.729  0.00  0.00    +0.000 A 
ATOM      4  N   UNL     1      46.649   6.410  11.328  0.00  0.00    +0.000 NA
ATOM      5  C   UNL     1      46.069   5.589  12.229  0.00  0.00    +0.000 A 
ATOM      6  N   UNL     1      45.034   4.781  11.830  0.00  0.00    +0.000 N 
ATOM      7  C   UNL     1      43.951   4.355  12.716  0.00  0.00    +0.000 C 
ATOM      8  C   UNL     1      43.694   2.846  12.510  0.00  0.00    +0.000 C 
ATOM      9  N   UNL     1      43.418   2.482  11.102  0.00  0.00    +0.000 NA
ATOM     10  C   UNL     1      44.517   2.990  10.244  0.00  0.00    +0.000 C 
ATOM     11  C   UNL     1      44.806   4.506  10.410  0.00  0.00    +0.000 C 
ATOM     12  C   UNL     1      46.557   5.538  13.535  0.00  0.00    +0.000 A 
ATOM     13  H   UNL     1      42.560   2.956  10.818  0.00  0.00    +0.000 HD
ENDROOT
BRANCH   1  14
ATOM     14  C   UNL     1      48.111   6.272  15.379  0.00  0.00    +0.000 C 
BRANCH  14  15
ATOM     15  N   UNL     1      47.616   5.064  16.017  0.00  0.00    +0.000 N 
ATOM     16  H   UNL     1      46.852   4.605  15.523  0.00  0.00    +0.000 HD
BRANCH  15  20
ATOM     17  C   UNL     1      50.377   2.263  17.190  0.00  0.00    +0.000 A 
ATOM     18  C   UNL     1      50.454   3.593  17.568  0.00  0.00    +0.000 A 
ATOM     19  N   UNL     1      49.526   4.519  17.202  0.00  0.00    +0.000 NA
ATOM     20  C   UNL     1      48.506   4.089  16.428  0.00  0.00    +0.000 A 
ATOM     21  C   UNL     1      48.451   2.747  16.042  0.00  0.00    +0.000 A 
ATOM     22  N   UNL     1      49.362   1.807  16.417  0.00  0.00    +0.000 NA
BRANCH  17  24
ATOM     23  N   UNL     1      52.197   0.574  17.951  0.00  0.00    +0.000 NA
ATOM     24  C   UNL     1      51.372   1.314  17.597  0.00  0.00    +0.000 C 
ENDBRANCH  17  24
ENDBRANCH  15  20
ENDBRANCH  14  15
ENDBRANCH   1  14
TORSDOF 4
ENDMDL
MODEL 6
REMARK VINA RESULT:    -5.850      3.924      6.673
REMARK INTER + INTRA:          -7.698
REMARK INTER:                  -7.279
REMARK INTRA:                  -0.420
REMARK UNBOUND:                -0.480
REMARK  Name = 
REMARK  4 active torsions:
REMARK  status: ('A' for Active; 'I' for Inactive)
REMARK    1  A    between atoms: C_2  and  C_3
REMARK    2  A    between atoms: C_6  and  N_7
REMARK    3  A    between atoms: N_7  and  C_8
REMARK    4  A    between atoms: C_8  and  C_9
REMARK                            x       y       z     vdW  Elec       q    Type
REMARK                         _______ _______ _______ _____ _____    ______ ____
ROOT
ATOM      1  C   UNL     1      48.858   7.296  14.987  0.00  0.00    +0.000 A 
ATOM      2  C   UNL     1      49.442   8.504  15.348  0.00  0.00    +0.000 A 
ATOM      3  C   UNL     1      49.981   8.610  16.619  0.00  0.00    +0.000 A 
ATOM      4  N   UNL     1      49.985   7.609  17.530  0.00  0.00    +0.000 NA
ATOM      5  C   UNL     1      49.446   6.420  17.187  0.00  0.00    +0.000 A 
ATOM      6  N   UNL     1      49.430   5.402  18.108  0.00  0.00    +0.000 N 
ATOM      7  C   UNL     1      49.489   3.984  17.750  0.00  0.00    +0.000 C 
ATOM      8  C   UNL     1      48.440   3.211  18.578  0.00  0.00    +0.000 C 
ATOM      9  N   UNL     1      48.581   3.408  20.039  0.00  0.00    +0.000 NA
ATOM     10  C   UNL     1      48.573   4.861  20.336  0.00  0.00    +0.000 C 
ATOM     11  C   UNL     1      49.619   5.681  19.533  0.00  0.00    +0.000 C 
ATOM     12  C   UNL     1      48.873   6.256  15.926  0.00  0.00    +0.000 A 
ATOM     13  H   UNL     1      49.490   3.039  20.319  0.00  0.00    +0.000 HD
ENDROOT
BRANCH   1  14
ATOM     14  C   UNL     1      48.253   7.067  13.622  0.00  0.00    +0.000 C 
BRANCH  14  15
ATOM     15  N   UNL     1      46.803   7.110  13.705  0.00  0.00    +0.000 N 
ATOM     16  H   UNL     1      46.381   7.966  13.348  0.00  0.00    +0.000 HD
BRANCH  15  20
ATOM     17  C   UNL     1      44.461   3.994  12.419  0.00  0.00    +0.000 A 
ATOM     18  C   UNL     1      44.068   5.317  12.314  0.00  0.00    +0.000 A 
ATOM     19  N   UNL     1      44.852   6.355  12.717  0.00  0.00    +0.000 NA
ATOM     20  C   UNL     1      46.056   6.041  13.244  0.00  0.00    +0.000 A 
ATOM     21  C   UNL     1      46.431   4.701  13.357  0.00  0.00    +0.000 A 
ATOM     22  N   UNL     1      45.664   3.655  12.942  0.00  0.00    +0.000 NA
BRANCH  17  24
ATOM     23  N   UNL     1      42.924   2.072  11.589  0.00  0.00    +0.000 NA
ATOM     24  C   UNL     1      43.609   2.926  11.983  0.00  0.00    +0.000 C 
ENDBRANCH  17  24
ENDBRANCH  15  20
ENDBRANCH  14  15
ENDBRANCH   1  14
TORSDOF 4
ENDMDL
MODEL 7
REMARK VINA RESULT:    -5.709      3.024      7.919
REMARK INTER + INTRA:          -7.524
REMARK INTER:                  -7.129
REMARK INTRA:                  -0.396
REMARK UNBOUND:                -0.480
REMARK  Name = 
REMARK  4 active torsions:
REMARK  status: ('A' for Active; 'I' for Inactive)
REMARK    1  A    between atoms: C_2  and  C_3
REMARK    2  A    between atoms: C_6  and  N_7
REMARK    3  A    between atoms: N_7  and  C_8
REMARK    4  A    between atoms: C_8  and  C_9
REMARK                            x       y       z     vdW  Elec       q    Type
REMARK                         _______ _______ _______ _____ _____    ______ ____
ROOT
ATOM      1  C   UNL     1      46.567   8.283  13.063  0.00  0.00    +0.000 A 
ATOM      2  C   UNL     1      45.931   9.336  12.416  0.00  0.00    +0.000 A 
ATOM      3  C   UNL     1      44.839   9.043  11.617  0.00  0.00    +0.000 A 
ATOM      4  N   UNL     1      44.343   7.798  11.434  0.00  0.00    +0.000 NA
ATOM      5  C   UNL     1      44.931   6.765  12.075  0.00  0.00    +0.000 A 
ATOM      6  N   UNL     1      44.446   5.495  11.883  0.00  0.00    +0.000 N 
ATOM      7  C   UNL     1      44.513   4.442  12.897  0.00  0.00    +0.000 C 
ATOM      8  C   UNL     1      44.981   3.130  12.230  0.00  0.00    +0.000 C 
ATOM      9  N   UNL     1      44.144   2.723  11.078  0.00  0.00    +0.000 NA
ATOM     10  C   UNL     1      44.065   3.848  10.114  0.00  0.00    +0.000 C 
ATOM     11  C   UNL     1      43.589   5.188  10.737  0.00  0.00    +0.000 C 
ATOM     12  C   UNL     1      46.045   6.995  12.882  0.00  0.00    +0.000 A 
ATOM     13  H   UNL     1      43.201   2.544  11.424  0.00  0.00    +0.000 HD
ENDROOT
BRANCH   1  14
ATOM     14  C   UNL     1      47.757   8.491  13.969  0.00  0.00    +0.000 C 
BRANCH  14  15
ATOM     15  N   UNL     1      48.490   7.246  14.125  0.00  0.00    +0.000 N 
ATOM     16  H   UNL     1      49.412   7.238  13.691  0.00  0.00    +0.000 HD
BRANCH  15  20
ATOM     17  C   UNL     1      48.665   5.475  17.823  0.00  0.00    +0.000 A 
ATOM     18  C   UNL     1      48.194   4.816  16.701  0.00  0.00    +0.000 A 
ATOM     19  N   UNL     1      48.158   5.392  15.468  0.00  0.00    +0.000 NA
ATOM     20  C   UNL     1      48.600   6.665  15.375  0.00  0.00    +0.000 A 
ATOM     21  C   UNL     1      49.058   7.321  16.520  0.00  0.00    +0.000 A 
ATOM     22  N   UNL     1      49.116   6.751  17.755  0.00  0.00    +0.000 NA
BRANCH  17  24
ATOM     23  N   UNL     1      48.716   4.356  20.167  0.00  0.00    +0.000 NA
ATOM     24  C   UNL     1      48.690   4.836  19.107  0.00  0.00    +0.000 C 
ENDBRANCH  17  24
ENDBRANCH  15  20
ENDBRANCH  14  15
ENDBRANCH   1  14
TORSDOF 4
ENDMDL
MODEL 8
REMARK VINA RESULT:    -5.211      1.842      2.377
REMARK INTER + INTRA:          -6.909
REMARK INTER:                  -6.616
REMARK INTRA:                  -0.293
REMARK UNBOUND:                -0.480
REMARK  Name = 
REMARK  4 active torsions:
REMARK  status: ('A' for Active; 'I' for Inactive)
REMARK    1  A    between atoms: C_2  and  C_3
REMARK    2  A    between atoms: C_6  and  N_7
REMARK    3  A    between atoms: N_7  and  C_8
REMARK    4  A    between atoms: C_8  and  C_9
REMARK                            x       y       z     vdW  Elec       q    Type
REMARK                         _______ _______ _______ _____ _____    ______ ____
ROOT
ATOM      1  C   UNL     1      44.822   4.114  10.741  0.00  0.00    +0.000 A 
ATOM      2  C   UNL     1      43.887   3.819  11.727  0.00  0.00    +0.000 A 
ATOM      3  C   UNL     1      44.002   4.466  12.945  0.00  0.00    +0.000 A 
ATOM      4  N   UNL     1      44.961   5.376  13.235  0.00  0.00    +0.000 NA
ATOM      5  C   UNL     1      45.861   5.695  12.282  0.00  0.00    +0.000 A 
ATOM      6  N   UNL     1      46.848   6.605  12.571  0.00  0.00    +0.000 N 
ATOM      7  C   UNL     1      47.451   7.489  11.573  0.00  0.00    +0.000 C 
ATOM      8  C   UNL     1      48.984   7.490  11.761  0.00  0.00    +0.000 C 
ATOM      9  N   UNL     1      49.409   7.849  13.133  0.00  0.00    +0.000 NA
ATOM     10  C   UNL     1      48.723   6.961  14.103  0.00  0.00    +0.000 C 
ATOM     11  C   UNL     1      47.177   6.934  13.959  0.00  0.00    +0.000 C 
ATOM     12  C   UNL     1      45.807   5.065  11.039  0.00  0.00    +0.000 A 
ATOM     13  H   UNL     1      49.101   8.804  13.316  0.00  0.00    +0.000 HD
ENDROOT
BRANCH   1  14
ATOM     14  C   UNL     1      44.781   3.476   9.372  0.00  0.00    +0.000 C 
BRANCH  14  15
ATOM     15  N   UNL     1      45.805   2.450   9.269  0.00  0.00    +0.000 N 
ATOM     16  H   UNL     1      45.643   1.628   9.848  0.00  0.00    +0.000 HD
BRANCH  15  20
ATOM     17  C   UNL     1      46.916   1.232   5.510  0.00  0.00    +0.000 A 
ATOM     18  C   UNL     1      46.492   2.521   5.783  0.00  0.00    +0.000 A 
ATOM     19  N   UNL     1      46.146   2.936   7.033  0.00  0.00    +0.000 NA
ATOM     20  C   UNL     1      46.225   2.020   8.023  0.00  0.00    +0.000 A 
ATOM     21  C   UNL     1      46.640   0.719   7.728  0.00  0.00    +0.000 A 
ATOM     22  N   UNL     1      47.005   0.297   6.486  0.00  0.00    +0.000 NA
BRANCH  17  24
ATOM     23  N   UNL     1      47.603   0.522   3.108  0.00  0.00    +0.000 NA
ATOM     24  C   UNL     1      47.274   0.831   4.181  0.00  0.00    +0.000 C 
ENDBRANCH  17  24
ENDBRANCH  15  20
ENDBRANCH  14  15
ENDBRANCH   1  14
TORSDOF 4
ENDMDL
MODEL 9
REMARK VINA RESULT:    -5.082      2.894      5.770
REMARK INTER + INTRA:          -6.750
REMARK INTER:                  -6.462
REMARK INTRA:                  -0.289
REMARK UNBOUND:                -0.480
REMARK  Name = 
REMARK  4 active torsions:
REMARK  status: ('A' for Active; 'I' for Inactive)
REMARK    1  A    between atoms: C_2  and  C_3
REMARK    2  A    between atoms: C_6  and  N_7
REMARK    3  A    between atoms: N_7  and  C_8
REMARK    4  A    between atoms: C_8  and  C_9
REMARK                            x       y       z     vdW  Elec       q    Type
REMARK                         _______ _______ _______ _____ _____    ______ ____
ROOT
ATOM      1  C   UNL     1      46.804   9.755  12.145  0.00  0.00    +0.000 A 
ATOM      2  C   UNL     1      47.790  10.648  11.742  0.00  0.00    +0.000 A 
ATOM      3  C   UNL     1      47.400  11.766  11.026  0.00  0.00    +0.000 A 
ATOM      4  N   UNL     1      46.118  12.053  10.702  0.00  0.00    +0.000 NA
ATOM      5  C   UNL     1      45.144  11.212  11.107  0.00  0.00    +0.000 A 
ATOM      6  N   UNL     1      43.841  11.485  10.770  0.00  0.00    +0.000 N 
ATOM      7  C   UNL     1      42.694  11.098  11.592  0.00  0.00    +0.000 C 
ATOM      8  C   UNL     1      41.601  10.497  10.682  0.00  0.00    +0.000 C 
ATOM      9  N   UNL     1      41.198  11.394   9.575  0.00  0.00    +0.000 NA
ATOM     10  C   UNL     1      42.405  11.799   8.814  0.00  0.00    +0.000 C 
ATOM     11  C   UNL     1      43.530  12.418   9.686  0.00  0.00    +0.000 C 
ATOM     12  C   UNL     1      45.475  10.059  11.819  0.00  0.00    +0.000 A 
ATOM     13  H   UNL     1      40.793  12.236   9.985  0.00  0.00    +0.000 HD
ENDROOT
BRANCH   1  14
ATOM     14  C   UNL     1      47.116   8.510  12.941  0.00  0.00    +0.000 C 
BRANCH  14  15
ATOM     15  N   UNL     1      45.889   7.805  13.268  0.00  0.00    +0.000 N 
ATOM     16  H   UNL     1      45.075   8.405  13.395  0.00  0.00    +0.000 HD
BRANCH  15  20
ATOM     17  C   UNL     1      44.777   4.467  11.156  0.00  0.00    +0.000 A 
ATOM     18  C   UNL     1      44.303   4.738  12.428  0.00  0.00    +0.000 A 
ATOM     19  N   UNL     1      44.650   5.857  13.121  0.00  0.00    +0.000 NA
ATOM     20  C   UNL     1      45.502   6.712  12.515  0.00  0.00    +0.000 A 
ATOM     21  C   UNL     1      45.984   6.415  11.238  0.00  0.00    +0.000 A 
ATOM     22  N   UNL     1      45.631   5.309  10.526  0.00  0.00    +0.000 NA
BRANCH  17  24
ATOM     23  N   UNL     1      44.034   2.331   9.877  0.00  0.00    +0.000 NA
ATOM     24  C   UNL     1      44.388   3.278  10.453  0.00  0.00    +0.000 C 
ENDBRANCH  17  24
ENDBRANCH  15  20
ENDBRANCH  14  15
ENDBRANCH   1  14
TORSDOF 4
ENDMDL
