MODEL 1
REMARK VINA RESULT:    -7.189      0.000      0.000
REMARK INTER + INTRA:          -9.873
REMARK INTER:                  -8.870
REMARK INTRA:                  -1.002
REMARK UNBOUND:                -1.002
REMARK  Name = 
REMARK  4 active torsions:
REMARK  status: ('A' for Active; 'I' for Inactive)
REMARK    1  A    between atoms: C_4  and  O_5
REMARK    2  A    between atoms: O_5  and  C_6
REMARK    3  A    between atoms: C_6  and  C_7
REMARK    4  A    between atoms: C_11  and  N_12
REMARK                            x       y       z     vdW  Elec       q    Type
REMARK                         _______ _______ _______ _____ _____    ______ ____
ROOT
ATOM      1  C   UNL     1      44.951   4.868  12.230  0.00  0.00    +0.000 A 
ATOM      2  C   UNL     1      45.435   3.665  12.766  0.00  0.00    +0.000 A 
ATOM      3  C   UNL     1      46.634   3.616  13.466  0.00  0.00    +0.000 A 
ATOM      4  C   UNL     1      47.385   4.773  13.629  0.00  0.00    +0.000 A 
ATOM      5  C   UNL     1      46.955   6.009  13.121  0.00  0.00    +0.000 A 
ATOM      6  C   UNL     1      45.709   6.034  12.470  0.00  0.00    +0.000 A 
ENDROOT
BRANCH   5   7
ATOM      7  N   UNL     1      47.756   7.134  13.267  0.00  0.00    +0.000 N 
ATOM      8  C   UNL     1      47.199   8.475  13.449  0.00  0.00    +0.000 C 
ATOM      9  C   UNL     1      47.376   9.317  12.186  0.00  0.00    +0.000 C 
ATOM     10  C   UNL     1      48.834   9.330  11.735  0.00  0.00    +0.000 C 
ATOM     11  C   UNL     1      49.352   7.905  11.554  0.00  0.00    +0.000 C 
ATOM     12  C   UNL     1      49.156   7.073  12.823  0.00  0.00    +0.000 C 
ENDBRANCH   5   7
BRANCH   1  13
ATOM     13  C   UNL     1      43.730   4.844  11.321  0.00  0.00    +0.000 C 
ATOM     14  C   UNL     1      42.352   5.281  11.809  0.00  0.00    +0.000 C 
ATOM     15  C   UNL     1      43.169   6.222  10.999  0.00  0.00    +0.000 C 
BRANCH  13  16
ATOM     16  O   UNL     1      43.577   3.714  10.434  0.00  0.00    +0.000 OA
BRANCH  16  20
ATOM     17  C   UNL     1      46.405   2.821   7.580  0.00  0.00    +0.000 A 
ATOM     18  C   UNL     1      45.880   1.815   8.379  0.00  0.00    +0.000 A 
ATOM     19  C   UNL     1      44.921   2.139   9.335  0.00  0.00    +0.000 A 
ATOM     20  C   UNL     1      44.529   3.467   9.460  0.00  0.00    +0.000 A 
ATOM     21  N   UNL     1      45.020   4.465   8.697  0.00  0.00    +0.000 NA
ATOM     22  C   UNL     1      45.950   4.110   7.779  0.00  0.00    +0.000 A 
ENDBRANCH  16  20
ENDBRANCH  13  16
ENDBRANCH   1  13
TORSDOF 4
ENDMDL
MODEL 2
REMARK VINA RESULT:    -6.800      2.255      6.561
REMARK INTER + INTRA:          -9.392
REMARK INTER:                  -8.520
REMARK INTRA:                  -0.873
REMARK UNBOUND:                -1.002
REMARK  Name = 
REMARK  4 active torsions:
REMARK  status: ('A' for Active; 'I' for Inactive)
REMARK    1  A    between atoms: C_4  and  O_5
REMARK    2  A    between atoms: O_5  and  C_6
REMARK    3  A    between atoms: C_6  and  C_7
REMARK    4  A    between atoms: C_11  and  N_12
REMARK                            x       y       z     vdW  Elec       q    Type
REMARK                         _______ _______ _______ _____ _____    ______ ____
ROOT
ATOM      1  C   UNL     1      45.551   5.273  12.418  0.00  0.00    +0.000 A 
ATOM      2  C   UNL     1      44.347   5.251  13.140  0.00  0.00    +0.000 A 
ATOM      3  C   UNL     1      43.218   4.612  12.643  0.00  0.00    +0.000 A 
ATOM      4  C   UNL     1      43.266   3.995  11.400  0.00  0.00    +0.000 A 
ATOM      5  C   UNL     1      44.440   3.978  10.630  0.00  0.00    +0.000 A 
ATOM      6  C   UNL     1      45.580   4.581  11.188  0.00  0.00    +0.000 A 
ENDROOT
BRANCH   5   7
ATOM      7  N   UNL     1      44.435   3.387   9.373  0.00  0.00    +0.000 N 
ATOM      8  C   UNL     1      44.539   1.940   9.185  0.00  0.00    +0.000 C 
ATOM      9  C   UNL     1      45.914   1.556   8.640  0.00  0.00    +0.000 C 
ATOM     10  C   UNL     1      46.245   2.349   7.379  0.00  0.00    +0.000 C 
ATOM     11  C   UNL     1      46.129   3.849   7.642  0.00  0.00    +0.000 C 
ATOM     12  C   UNL     1      44.751   4.213   8.198  0.00  0.00    +0.000 C 
ENDBRANCH   5   7
BRANCH   1  13
ATOM     13  C   UNL     1      46.705   6.133  12.914  0.00  0.00    +0.000 C 
ATOM     14  C   UNL     1      47.250   7.301  12.098  0.00  0.00    +0.000 C 
ATOM     15  C   UNL     1      46.318   7.573  13.224  0.00  0.00    +0.000 C 
BRANCH  13  16
ATOM     16  O   UNL     1      47.805   5.465  13.570  0.00  0.00    +0.000 OA
BRANCH  16  20
ATOM     17  C   UNL     1      47.718   4.813  17.633  0.00  0.00    +0.000 A 
ATOM     18  C   UNL     1      48.456   5.866  17.112  0.00  0.00    +0.000 A 
ATOM     19  C   UNL     1      48.467   6.071  15.735  0.00  0.00    +0.000 A 
ATOM     20  C   UNL     1      47.742   5.202  14.927  0.00  0.00    +0.000 A 
ATOM     21  N   UNL     1      47.015   4.172  15.405  0.00  0.00    +0.000 NA
ATOM     22  C   UNL     1      47.029   4.006  16.749  0.00  0.00    +0.000 A 
ENDBRANCH  16  20
ENDBRANCH  13  16
ENDBRANCH   1  13
TORSDOF 4
ENDMDL
MODEL 3
REMARK VINA RESULT:    -6.682      2.308      6.269
REMARK INTER + INTRA:          -9.246
REMARK INTER:                  -8.281
REMARK INTRA:                  -0.965
REMARK UNBOUND:                -1.002
REMARK  Name = 
REMARK  4 active torsions:
REMARK  status: ('A' for Active; 'I' for Inactive)
REMARK    1  A    between atoms: C_4  and  O_5
REMARK    2  A    between atoms: O_5  and  C_6
REMARK    3  A    between atoms: C_6  and  C_7
REMARK    4  A    between atoms: C_11  and  N_12
REMARK                            x       y       z     vdW  Elec       q    Type
REMARK                         _______ _______ _______ _____ _____    ______ ____
ROOT
ATOM      1  C   UNL     1      45.218   5.812  12.153  0.00  0.00    +0.000 A 
ATOM      2  C   UNL     1      44.175   5.453  13.021  0.00  0.00    +0.000 A 
ATOM      3  C   UNL     1      43.261   4.465  12.681  0.00  0.00    +0.000 A 
ATOM      4  C   UNL     1      43.361   3.825  11.453  0.00  0.00    +0.000 A 
ATOM      5  C   UNL     1      44.383   4.135  10.541  0.00  0.00    +0.000 A 
ATOM      6  C   UNL     1      45.326   5.097  10.941  0.00  0.00    +0.000 A 
ENDROOT
BRANCH   5   7
ATOM      7  N   UNL     1      44.423   3.503   9.305  0.00  0.00    +0.000 N 
ATOM      8  C   UNL     1      44.469   2.047   9.169  0.00  0.00    +0.000 C 
ATOM      9  C   UNL     1      45.854   1.584   8.719  0.00  0.00    +0.000 C 
ATOM     10  C   UNL     1      46.295   2.318   7.456  0.00  0.00    +0.000 C 
ATOM     11  C   UNL     1      46.233   3.829   7.665  0.00  0.00    +0.000 C 
ATOM     12  C   UNL     1      44.844   4.274   8.126  0.00  0.00    +0.000 C 
ENDBRANCH   5   7
BRANCH   1  13
ATOM     13  C   UNL     1      46.086   7.018  12.485  0.00  0.00    +0.000 C 
ATOM     14  C   UNL     1      47.400   6.882  13.248  0.00  0.00    +0.000 C 
ATOM     15  C   UNL     1      47.430   7.032  11.770  0.00  0.00    +0.000 C 
BRANCH  13  16
ATOM     16  O   UNL     1      45.419   8.227  12.912  0.00  0.00    +0.000 OA
BRANCH  16  20
ATOM     17  C   UNL     1      44.602  11.223  10.211  0.00  0.00    +0.000 A 
ATOM     18  C   UNL     1      45.664  11.352  11.095  0.00  0.00    +0.000 A 
ATOM     19  C   UNL     1      45.925  10.324  11.997  0.00  0.00    +0.000 A 
ATOM     20  C   UNL     1      45.101   9.204  11.985  0.00  0.00    +0.000 A 
ATOM     21  N   UNL     1      44.065   9.050  11.137  0.00  0.00    +0.000 NA
ATOM     22  C   UNL     1      43.844  10.071  10.275  0.00  0.00    +0.000 A 
ENDBRANCH  16  20
ENDBRANCH  13  16
ENDBRANCH   1  13
TORSDOF 4
ENDMDL
MODEL 4
REMARK VINA RESULT:    -6.366      2.299      3.668
REMARK INTER + INTRA:          -8.857
REMARK INTER:                  -8.326
REMARK INTRA:                  -0.531
REMARK UNBOUND:                -1.002
REMARK  Name = 
REMARK  4 active torsions:
REMARK  status: ('A' for Active; 'I' for Inactive)
REMARK    1  A    between atoms: C_4  and  O_5
REMARK    2  A    between atoms: O_5  and  C_6
REMARK    3  A    between atoms: C_6  and  C_7
REMARK    4  A    between atoms: C_11  and  N_12
REMARK                            x       y       z     vdW  Elec       q    Type
REMARK                         _______ _______ _______ _____ _____    ______ ____
ROOT
ATOM      1  C   UNL     1      45.893   5.193  12.969  0.00  0.00    +0.000 A 
ATOM      2  C   UNL     1      46.700   6.207  12.430  0.00  0.00    +0.000 A 
ATOM      3  C   UNL     1      47.809   6.689  13.114  0.00  0.00    +0.000 A 
ATOM      4  C   UNL     1      48.124   6.175  14.365  0.00  0.00    +0.000 A 
ATOM      5  C   UNL     1      47.360   5.157  14.958  0.00  0.00    +0.000 A 
ATOM      6  C   UNL     1      46.281   4.651  14.214  0.00  0.00    +0.000 A 
ENDROOT
BRANCH   5   7
ATOM      7  N   UNL     1      47.683   4.701  16.230  0.00  0.00    +0.000 N 
ATOM      8  C   UNL     1      48.611   5.414  17.107  0.00  0.00    +0.000 C 
ATOM      9  C   UNL     1      49.943   4.672  17.214  0.00  0.00    +0.000 C 
ATOM     10  C   UNL     1      49.729   3.217  17.624  0.00  0.00    +0.000 C 
ATOM     11  C   UNL     1      48.761   2.527  16.666  0.00  0.00    +0.000 C 
ATOM     12  C   UNL     1      47.438   3.290  16.562  0.00  0.00    +0.000 C 
ENDBRANCH   5   7
BRANCH   1  13
ATOM     13  C   UNL     1      44.592   4.822  12.272  0.00  0.00    +0.000 C 
ATOM     14  C   UNL     1      43.233   5.027  12.936  0.00  0.00    +0.000 C 
ATOM     15  C   UNL     1      43.709   6.014  11.931  0.00  0.00    +0.000 C 
BRANCH  13  16
ATOM     16  O   UNL     1      44.563   3.591  11.516  0.00  0.00    +0.000 OA
BRANCH  16  20
ATOM     17  C   UNL     1      45.887   3.377   7.625  0.00  0.00    +0.000 A 
ATOM     18  C   UNL     1      45.537   2.219   8.307  0.00  0.00    +0.000 A 
ATOM     19  C   UNL     1      45.088   2.316   9.621  0.00  0.00    +0.000 A 
ATOM     20  C   UNL     1      45.014   3.574  10.208  0.00  0.00    +0.000 A 
ATOM     21  N   UNL     1      45.344   4.715   9.569  0.00  0.00    +0.000 NA
ATOM     22  C   UNL     1      45.776   4.580   8.294  0.00  0.00    +0.000 A 
ENDBRANCH  16  20
ENDBRANCH  13  16
ENDBRANCH   1  13
TORSDOF 4
ENDMDL
MODEL 5
REMARK VINA RESULT:    -6.091      1.159      2.177
REMARK INTER + INTRA:          -8.517
REMARK INTER:                  -8.391
REMARK INTRA:                  -0.126
REMARK UNBOUND:                -1.002
REMARK  Name = 
REMARK  4 active torsions:
REMARK  status: ('A' for Active; 'I' for Inactive)
REMARK    1  A    between atoms: C_4  and  O_5
REMARK    2  A    between atoms: O_5  and  C_6
REMARK    3  A    between atoms: C_6  and  C_7
REMARK    4  A    between atoms: C_11  and  N_12
REMARK                            x       y       z     vdW  Elec       q    Type
REMARK                         _______ _______ _______ _____ _____    ______ ____
ROOT
ATOM      1  C   UNL     1      44.613   5.607  11.337  0.00  0.00    +0.000 A 
ATOM      2  C   UNL     1      43.622   6.565  11.073  0.00  0.00    +0.000 A 
ATOM      3  C   UNL     1      43.858   7.921  11.265  0.00  0.00    +0.000 A 
ATOM      4  C   UNL     1      45.091   8.345  11.743  0.00  0.00    +0.000 A 
ATOM      5  C   UNL     1      46.126   7.438  12.022  0.00  0.00    +0.000 A 
ATOM      6  C   UNL     1      45.873   6.080  11.762  0.00  0.00    +0.000 A 
ENDROOT
BRANCH   5   7
ATOM      7  N   UNL     1      47.329   7.898  12.541  0.00  0.00    +0.000 N 
ATOM      8  C   UNL     1      47.578   9.315  12.806  0.00  0.00    +0.000 C 
ATOM      9  C   UNL     1      48.547   9.902  11.780  0.00  0.00    +0.000 C 
ATOM     10  C   UNL     1      49.827   9.074  11.697  0.00  0.00    +0.000 C 
ATOM     11  C   UNL     1      49.500   7.610  11.409  0.00  0.00    +0.000 C 
ATOM     12  C   UNL     1      48.521   7.043  12.438  0.00  0.00    +0.000 C 
ENDBRANCH   5   7
BRANCH   1  13
ATOM     13  C   UNL     1      44.256   4.128  11.286  0.00  0.00    +0.000 C 
ATOM     14  C   UNL     1      45.010   3.087  12.107  0.00  0.00    +0.000 C 
ATOM     15  C   UNL     1      43.694   3.580  12.590  0.00  0.00    +0.000 C 
BRANCH  13  16
ATOM     16  O   UNL     1      43.927   3.562   9.998  0.00  0.00    +0.000 OA
BRANCH  16  20
ATOM     17  C   UNL     1      46.899   2.724   7.277  0.00  0.00    +0.000 A 
ATOM     18  C   UNL     1      46.347   1.705   8.041  0.00  0.00    +0.000 A 
ATOM     19  C   UNL     1      45.340   2.011   8.952  0.00  0.00    +0.000 A 
ATOM     20  C   UNL     1      44.928   3.334   9.070  0.00  0.00    +0.000 A 
ATOM     21  N   UNL     1      45.445   4.343   8.339  0.00  0.00    +0.000 NA
ATOM     22  C   UNL     1      46.421   4.006   7.465  0.00  0.00    +0.000 A 
ENDBRANCH  16  20
ENDBRANCH  13  16
ENDBRANCH   1  13
TORSDOF 4
ENDMDL
MODEL 6
REMARK VINA RESULT:    -6.058      3.117      7.209
REMARK INTER + INTRA:          -8.477
REMARK INTER:                  -7.475
REMARK INTRA:                  -1.002
REMARK UNBOUND:                -1.002
REMARK  Name = 
REMARK  4 active torsions:
REMARK  status: ('A' for Active; 'I' for Inactive)
REMARK    1  A    between atoms: C_4  and  O_5
REMARK    2  A    between atoms: O_5  and  C_6
REMARK    3  A    between atoms: C_6  and  C_7
REMARK    4  A    between atoms: C_11  and  N_12
REMARK                            x       y       z     vdW  Elec       q    Type
REMARK                         _______ _______ _______ _____ _____    ______ ____
ROOT
ATOM      1  C   UNL     1      47.785   7.377  13.752  0.00  0.00    +0.000 A 
ATOM      2  C   UNL     1      46.974   8.518  13.658  0.00  0.00    +0.000 A 
ATOM      3  C   UNL     1      45.760   8.488  12.983  0.00  0.00    +0.000 A 
ATOM      4  C   UNL     1      45.340   7.315  12.371  0.00  0.00    +0.000 A 
ATOM      5  C   UNL     1      46.103   6.138  12.431  0.00  0.00    +0.000 A 
ATOM      6  C   UNL     1      47.297   6.187  13.172  0.00  0.00    +0.000 A 
ENDROOT
BRANCH   5   7
ATOM      7  N   UNL     1      45.669   4.997  11.769  0.00  0.00    +0.000 N 
ATOM      8  C   UNL     1      45.030   5.048  10.454  0.00  0.00    +0.000 C 
ATOM      9  C   UNL     1      43.533   4.763  10.562  0.00  0.00    +0.000 C 
ATOM     10  C   UNL     1      43.276   3.453  11.302  0.00  0.00    +0.000 C 
ATOM     11  C   UNL     1      43.959   3.466  12.667  0.00  0.00    +0.000 C 
ATOM     12  C   UNL     1      45.454   3.765  12.542  0.00  0.00    +0.000 C 
ENDBRANCH   5   7
BRANCH   1  13
ATOM     13  C   UNL     1      49.183   7.499  14.342  0.00  0.00    +0.000 C 
ATOM     14  C   UNL     1      50.360   8.027  13.527  0.00  0.00    +0.000 C 
ATOM     15  C   UNL     1      49.674   8.934  14.485  0.00  0.00    +0.000 C 
BRANCH  13  16
ATOM     16  O   UNL     1      49.647   6.430  15.196  0.00  0.00    +0.000 OA
BRANCH  16  20
ATOM     17  C   UNL     1      47.416   5.400  18.498  0.00  0.00    +0.000 A 
ATOM     18  C   UNL     1      48.067   6.625  18.451  0.00  0.00    +0.000 A 
ATOM     19  C   UNL     1      48.812   6.954  17.322  0.00  0.00    +0.000 A 
ATOM     20  C   UNL     1      48.885   6.035  16.282  0.00  0.00    +0.000 A 
ATOM     21  N   UNL     1      48.261   4.840  16.298  0.00  0.00    +0.000 NA
ATOM     22  C   UNL     1      47.547   4.556  17.413  0.00  0.00    +0.000 A 
ENDBRANCH  16  20
ENDBRANCH  13  16
ENDBRANCH   1  13
TORSDOF 4
ENDMDL
MODEL 7
REMARK VINA RESULT:    -5.876      2.330      6.345
REMARK INTER + INTRA:          -8.252
REMARK INTER:                  -7.303
REMARK INTRA:                  -0.949
REMARK UNBOUND:                -1.002
REMARK  Name = 
REMARK  4 active torsions:
REMARK  status: ('A' for Active; 'I' for Inactive)
REMARK    1  A    between atoms: C_4  and  O_5
REMARK    2  A    between atoms: O_5  and  C_6
REMARK    3  A    between atoms: C_6  and  C_7
REMARK    4  A    between atoms: C_11  and  N_12
REMARK                            x       y       z     vdW  Elec       q    Type
REMARK                         _______ _______ _______ _____ _____    ______ ____
ROOT
ATOM      1  C   UNL     1      47.341   6.526  12.667  0.00  0.00    +0.000 A 
ATOM      2  C   UNL     1      47.220   5.789  13.855  0.00  0.00    +0.000 A 
ATOM      3  C   UNL     1      46.362   4.700  13.945  0.00  0.00    +0.000 A 
ATOM      4  C   UNL     1      45.592   4.336  12.849  0.00  0.00    +0.000 A 
ATOM      5  C   UNL     1      45.669   5.030  11.630  0.00  0.00    +0.000 A 
ATOM      6  C   UNL     1      46.590   6.089  11.555  0.00  0.00    +0.000 A 
ENDROOT
BRANCH   5   7
ATOM      7  N   UNL     1      44.850   4.661  10.571  0.00  0.00    +0.000 N 
ATOM      8  C   UNL     1      43.851   3.599  10.684  0.00  0.00    +0.000 C 
ATOM      9  C   UNL     1      44.293   2.349   9.923  0.00  0.00    +0.000 C 
ATOM     10  C   UNL     1      44.650   2.685   8.478  0.00  0.00    +0.000 C 
ATOM     11  C   UNL     1      45.701   3.791   8.428  0.00  0.00    +0.000 C 
ATOM     12  C   UNL     1      45.247   5.029   9.204  0.00  0.00    +0.000 C 
ENDBRANCH   5   7
BRANCH   1  13
ATOM     13  C   UNL     1      48.153   7.814  12.665  0.00  0.00    +0.000 C 
ATOM     14  C   UNL     1      49.643   7.829  12.991  0.00  0.00    +0.000 C 
ATOM     15  C   UNL     1      49.208   7.882  11.570  0.00  0.00    +0.000 C 
BRANCH  13  16
ATOM     16  O   UNL     1      47.538   8.995  13.228  0.00  0.00    +0.000 OA
BRANCH  16  20
ATOM     17  C   UNL     1      44.901  11.204  10.969  0.00  0.00    +0.000 A 
ATOM     18  C   UNL     1      44.443  10.138  11.730  0.00  0.00    +0.000 A 
ATOM     19  C   UNL     1      45.352   9.407  12.490  0.00  0.00    +0.000 A 
ATOM     20  C   UNL     1      46.694   9.769  12.451  0.00  0.00    +0.000 A 
ATOM     21  N   UNL     1      47.167  10.801  11.723  0.00  0.00    +0.000 NA
ATOM     22  C   UNL     1      46.252  11.487  10.998  0.00  0.00    +0.000 A 
ENDBRANCH  16  20
ENDBRANCH  13  16
ENDBRANCH   1  13
TORSDOF 4
ENDMDL
MODEL 8
REMARK VINA RESULT:    -5.695      2.647      7.037
REMARK INTER + INTRA:          -8.029
REMARK INTER:                  -6.988
REMARK INTRA:                  -1.041
REMARK UNBOUND:                -1.002
REMARK  Name = 
REMARK  4 active torsions:
REMARK  status: ('A' for Active; 'I' for Inactive)
REMARK    1  A    between atoms: C_4  and  O_5
REMARK    2  A    between atoms: O_5  and  C_6
REMARK    3  A    between atoms: C_6  and  C_7
REMARK    4  A    between atoms: C_11  and  N_12
REMARK                            x       y       z     vdW  Elec       q    Type
REMARK                         _______ _______ _______ _____ _____    ______ ____
ROOT
ATOM      1  C   UNL     1      47.520   7.923  12.435  0.00  0.00    +0.000 A 
ATOM      2  C   UNL     1      46.903   9.173  12.600  0.00  0.00    +0.000 A 
ATOM      3  C   UNL     1      45.553   9.354  12.326  0.00  0.00    +0.000 A 
ATOM      4  C   UNL     1      44.795   8.288  11.860  0.00  0.00    +0.000 A 
ATOM      5  C   UNL     1      45.351   7.012  11.677  0.00  0.00    +0.000 A 
ATOM      6  C   UNL     1      46.704   6.849  12.021  0.00  0.00    +0.000 A 
ENDROOT
BRANCH   5   7
ATOM      7  N   UNL     1      44.570   5.982  11.169  0.00  0.00    +0.000 N 
ATOM      8  C   UNL     1      43.124   5.916  11.382  0.00  0.00    +0.000 C 
ATOM      9  C   UNL     1      42.768   4.815  12.380  0.00  0.00    +0.000 C 
ATOM     10  C   UNL     1      43.374   3.478  11.961  0.00  0.00    +0.000 C 
ATOM     11  C   UNL     1      44.882   3.611  11.764  0.00  0.00    +0.000 C 
ATOM     12  C   UNL     1      45.221   4.725  10.772  0.00  0.00    +0.000 C 
ENDBRANCH   5   7
BRANCH   1  13
ATOM     13  C   UNL     1      49.032   7.812  12.574  0.00  0.00    +0.000 C 
ATOM     14  C   UNL     1      49.962   7.899  11.367  0.00  0.00    +0.000 C 
ATOM     15  C   UNL     1      49.783   9.093  12.235  0.00  0.00    +0.000 C 
BRANCH  13  16
ATOM     16  O   UNL     1      49.550   6.827  13.495  0.00  0.00    +0.000 OA
BRANCH  16  20
ATOM     17  C   UNL     1      48.562   7.163  17.476  0.00  0.00    +0.000 A 
ATOM     18  C   UNL     1      49.019   8.271  16.776  0.00  0.00    +0.000 A 
ATOM     19  C   UNL     1      49.343   8.135  15.429  0.00  0.00    +0.000 A 
ATOM     20  C   UNL     1      49.204   6.886  14.834  0.00  0.00    +0.000 A 
ATOM     21  N   UNL     1      48.761   5.794  15.489  0.00  0.00    +0.000 NA
ATOM     22  C   UNL     1      48.456   5.966  16.796  0.00  0.00    +0.000 A 
ENDBRANCH  16  20
ENDBRANCH  13  16
ENDBRANCH   1  13
TORSDOF 4
ENDMDL
MODEL 9
REMARK VINA RESULT:    -5.424      4.341      8.068
REMARK INTER + INTRA:          -7.695
REMARK INTER:                  -6.871
REMARK INTRA:                  -0.824
REMARK UNBOUND:                -1.002
REMARK  Name = 
REMARK  4 active torsions:
REMARK  status: ('A' for Active; 'I' for Inactive)
REMARK    1  A    between atoms: C_4  and  O_5
REMARK    2  A    between atoms: O_5  and  C_6
REMARK    3  A    between atoms: C_6  and  C_7
REMARK    4  A    between atoms: C_11  and  N_12
REMARK                            x       y       z     vdW  Elec       q    Type
REMARK                         _______ _______ _______ _____ _____    ______ ____
ROOT
ATOM      1  C   UNL     1      47.625   5.060  15.614  0.00  0.00    +0.000 A 
ATOM      2  C   UNL     1      48.457   6.153  15.325  0.00  0.00    +0.000 A 
ATOM      3  C   UNL     1      48.419   6.782  14.087  0.00  0.00    +0.000 A 
ATOM      4  C   UNL     1      47.556   6.317  13.103  0.00  0.00    +0.000 A 
ATOM      5  C   UNL     1      46.695   5.231  13.331  0.00  0.00    +0.000 A 
ATOM      6  C   UNL     1      46.716   4.656  14.613  0.00  0.00    +0.000 A 
ENDROOT
BRANCH   5   7
ATOM      7  N   UNL     1      45.878   4.769  12.307  0.00  0.00    +0.000 N 
ATOM      8  C   UNL     1      45.412   5.635  11.223  0.00  0.00    +0.000 C 
ATOM      9  C   UNL     1      43.926   5.957  11.381  0.00  0.00    +0.000 C 
ATOM     10  C   UNL     1      43.101   4.681  11.525  0.00  0.00    +0.000 C 
ATOM     11  C   UNL     1      43.630   3.828  12.676  0.00  0.00    +0.000 C 
ATOM     12  C   UNL     1      45.120   3.526  12.508  0.00  0.00    +0.000 C 
ENDBRANCH   5   7
BRANCH   1  13
ATOM     13  C   UNL     1      47.825   4.291  16.913  0.00  0.00    +0.000 C 
ATOM     14  C   UNL     1      48.047   2.782  16.931  0.00  0.00    +0.000 C 
ATOM     15  C   UNL     1      49.215   3.691  17.071  0.00  0.00    +0.000 C 
BRANCH  13  16
ATOM     16  O   UNL     1      47.003   4.658  18.043  0.00  0.00    +0.000 OA
BRANCH  16  20
ATOM     17  C   UNL     1      48.483   7.201  20.921  0.00  0.00    +0.000 A 
ATOM     18  C   UNL     1      47.794   7.711  19.829  0.00  0.00    +0.000 A 
ATOM     19  C   UNL     1      47.298   6.831  18.870  0.00  0.00    +0.000 A 
ATOM     20  C   UNL     1      47.520   5.469  19.038  0.00  0.00    +0.000 A 
ATOM     21  N   UNL     1      48.183   4.946  20.089  0.00  0.00    +0.000 NA
ATOM     22  C   UNL     1      48.649   5.833  21.000  0.00  0.00    +0.000 A 
ENDBRANCH  16  20
ENDBRANCH  13  16
ENDBRANCH   1  13
TORSDOF 4
ENDMDL
