MODEL 1
REMARK VINA RESULT:    -7.414      0.000      0.000
REMARK INTER + INTRA:         -10.435
REMARK INTER:                  -9.581
REMARK INTRA:                  -0.854
REMARK UNBOUND:                -0.854
REMARK  Name = 
REMARK  5 active torsions:
REMARK  status: ('A' for Active; 'I' for Inactive)
REMARK    1  A    between atoms: C_2  and  C_18
REMARK    2  A    between atoms: N_3  and  C_4
REMARK    3  A    between atoms: C_7  and  C_8
REMARK    4  A    between atoms: C_8  and  N_9
REMARK    5  A    between atoms: N_9  and  C_10
REMARK                            x       y       z     vdW  Elec       q    Type
REMARK                         _______ _______ _______ _____ _____    ______ ____
ROOT
ATOM      1  C   UNL     1      45.704   4.622  12.452  0.00  0.00    +0.000 A 
ATOM      2  C   UNL     1      45.068   3.425  12.143  0.00  0.00    +0.000 A 
ATOM      3  C   UNL     1      44.671   3.165  10.836  0.00  0.00    +0.000 A 
ATOM      4  C   UNL     1      44.872   4.109   9.820  0.00  0.00    +0.000 A 
ATOM      5  C   UNL     1      45.481   5.328  10.142  0.00  0.00    +0.000 A 
ATOM      6  C   UNL     1      45.883   5.586  11.453  0.00  0.00    +0.000 A 
ENDROOT
BRANCH   1   9
ATOM      7  O   UNL     1      47.424   3.002  14.198  0.00  0.00    +0.000 OA
ATOM      8  C   UNL     1      47.044   4.132  14.491  0.00  0.00    +0.000 C 
ATOM      9  N   UNL     1      46.217   4.918  13.724  0.00  0.00    +0.000 N 
ATOM     10  H   UNL     1      46.084   5.882  14.013  0.00  0.00    +0.000 HD
BRANCH   8  11
ATOM     11  C   UNL     1      47.481   4.736  15.758  0.00  0.00    +0.000 A 
ATOM     12  C   UNL     1      47.041   4.197  16.959  0.00  0.00    +0.000 A 
ATOM     13  S   UNL     1      47.654   4.999  18.330  0.00  0.00    +0.000 S 
ATOM     14  C   UNL     1      48.563   6.067  17.366  0.00  0.00    +0.000 A 
ATOM     15  N   UNL     1      49.366   7.007  17.933  0.00  0.00    +0.000 NA
ATOM     16  C   UNL     1      50.038   7.714  17.087  0.00  0.00    +0.000 A 
ATOM     17  N   UNL     1      49.965   7.585  15.724  0.00  0.00    +0.000 N 
ATOM     18  C   UNL     1      49.106   6.705  15.110  0.00  0.00    +0.000 A 
ATOM     19  O   UNL     1      48.959   6.716  13.890  0.00  0.00    +0.000 OA
ATOM     20  C   UNL     1      48.373   5.840  16.014  0.00  0.00    +0.000 A 
ATOM     21  H   UNL     1      50.486   8.197  15.115  0.00  0.00    +0.000 HD
ENDBRANCH   8  11
ENDBRANCH   1   9
BRANCH   4  22
ATOM     22  C   UNL     1      44.498   3.815   8.386  0.00  0.00    +0.000 C 
BRANCH  22  23
ATOM     23  N   UNL     1      45.158   2.617   7.889  0.00  0.00    +0.000 NA
ATOM     24  H   UNL     1      44.860   2.418   6.930  0.00  0.00    +0.000 HD
BRANCH  23  25
ATOM     25  C   UNL     1      46.624   2.652   7.918  0.00  0.00    +0.000 C 
ATOM     26  C   UNL     1      47.245   3.560   6.842  0.00  0.00    +0.000 C 
ATOM     27  C   UNL     1      46.927   3.048   5.436  0.00  0.00    +0.000 C 
ATOM     28  C   UNL     1      47.339   1.584   5.277  0.00  0.00    +0.000 C 
ATOM     29  N   UNL     1      46.764   0.730   6.317  0.00  0.00    +0.000 NA
ATOM     30  C   UNL     1      47.125   1.206   7.666  0.00  0.00    +0.000 C 
ATOM     31  H   UNL     1      47.104  -0.224   6.203  0.00  0.00    +0.000 HD
ENDBRANCH  23  25
ENDBRANCH  22  23
ENDBRANCH   4  22
TORSDOF 5
ENDMDL
MODEL 2
REMARK VINA RESULT:    -7.120      1.819      3.107
REMARK INTER + INTRA:         -10.055
REMARK INTER:                  -9.298
REMARK INTRA:                  -0.756
REMARK UNBOUND:                -0.854
REMARK  Name = 
REMARK  5 active torsions:
REMARK  status: ('A' for Active; 'I' for Inactive)
REMARK    1  A    between atoms: C_2  and  C_18
REMARK    2  A    between atoms: N_3  and  C_4
REMARK    3  A    between atoms: C_7  and  C_8
REMARK    4  A    between atoms: C_8  and  N_9
REMARK    5  A    between atoms: N_9  and  C_10
REMARK                            x       y       z     vdW  Elec       q    Type
REMARK                         _______ _______ _______ _____ _____    ______ ____
ROOT
ATOM      1  C   UNL     1      46.781   5.631  13.615  0.00  0.00    +0.000 A 
ATOM      2  C   UNL     1      46.922   6.548  12.580  0.00  0.00    +0.000 A 
ATOM      3  C   UNL     1      46.277   6.333  11.367  0.00  0.00    +0.000 A 
ATOM      4  C   UNL     1      45.505   5.183  11.155  0.00  0.00    +0.000 A 
ATOM      5  C   UNL     1      45.393   4.245  12.187  0.00  0.00    +0.000 A 
ATOM      6  C   UNL     1      46.038   4.462  13.406  0.00  0.00    +0.000 A 
ENDROOT
BRANCH   1   9
ATOM      7  O   UNL     1      49.432   6.627  14.395  0.00  0.00    +0.000 OA
ATOM      8  C   UNL     1      48.566   6.318  15.207  0.00  0.00    +0.000 C 
ATOM      9  N   UNL     1      47.322   5.821  14.896  0.00  0.00    +0.000 N 
ATOM     10  H   UNL     1      46.650   5.730  15.650  0.00  0.00    +0.000 HD
BRANCH   8  11
ATOM     11  C   UNL     1      48.833   6.472  16.644  0.00  0.00    +0.000 A 
ATOM     12  C   UNL     1      49.107   7.733  17.157  0.00  0.00    +0.000 A 
ATOM     13  S   UNL     1      49.372   7.741  18.839  0.00  0.00    +0.000 S 
ATOM     14  C   UNL     1      49.087   6.066  18.947  0.00  0.00    +0.000 A 
ATOM     15  N   UNL     1      49.120   5.430  20.148  0.00  0.00    +0.000 NA
ATOM     16  C   UNL     1      48.835   4.172  20.092  0.00  0.00    +0.000 A 
ATOM     17  N   UNL     1      48.541   3.484  18.942  0.00  0.00    +0.000 N 
ATOM     18  C   UNL     1      48.577   4.072  17.700  0.00  0.00    +0.000 A 
ATOM     19  O   UNL     1      48.452   3.399  16.680  0.00  0.00    +0.000 OA
ATOM     20  C   UNL     1      48.829   5.500  17.710  0.00  0.00    +0.000 A 
ATOM     21  H   UNL     1      48.367   2.491  18.960  0.00  0.00    +0.000 HD
ENDBRANCH   8  11
ENDBRANCH   1   9
BRANCH   4  22
ATOM     22  C   UNL     1      44.752   4.968   9.862  0.00  0.00    +0.000 C 
BRANCH  22  23
ATOM     23  N   UNL     1      45.651   4.699   8.750  0.00  0.00    +0.000 NA
ATOM     24  H   UNL     1      46.512   4.256   9.087  0.00  0.00    +0.000 HD
BRANCH  23  25
ATOM     25  C   UNL     1      45.093   3.865   7.680  0.00  0.00    +0.000 C 
ATOM     26  C   UNL     1      44.524   2.523   8.172  0.00  0.00    +0.000 C 
ATOM     27  C   UNL     1      45.622   1.644   8.774  0.00  0.00    +0.000 C 
ATOM     28  C   UNL     1      46.783   1.466   7.794  0.00  0.00    +0.000 C 
ATOM     29  N   UNL     1      47.304   2.745   7.313  0.00  0.00    +0.000 NA
ATOM     30  C   UNL     1      46.243   3.558   6.686  0.00  0.00    +0.000 C 
ATOM     31  H   UNL     1      48.039   2.578   6.627  0.00  0.00    +0.000 HD
ENDBRANCH  23  25
ENDBRANCH  22  23
ENDBRANCH   4  22
TORSDOF 5
ENDMDL
MODEL 3
REMARK VINA RESULT:    -7.079      2.234      3.227
REMARK INTER + INTRA:         -10.002
REMARK INTER:                  -9.572
REMARK INTRA:                  -0.430
REMARK UNBOUND:                -0.854
REMARK  Name = 
REMARK  5 active torsions:
REMARK  status: ('A' for Active; 'I' for Inactive)
REMARK    1  A    between atoms: C_2  and  C_18
REMARK    2  A    between atoms: N_3  and  C_4
REMARK    3  A    between atoms: C_7  and  C_8
REMARK    4  A    between atoms: C_8  and  N_9
REMARK    5  A    between atoms: N_9  and  C_10
REMARK                            x       y       z     vdW  Elec       q    Type
REMARK                         _______ _______ _______ _____ _____    ______ ____
ROOT
ATOM      1  C   UNL     1      46.884   4.888  14.472  0.00  0.00    +0.000 A 
ATOM      2  C   UNL     1      46.216   5.832  13.701  0.00  0.00    +0.000 A 
ATOM      3  C   UNL     1      45.513   5.435  12.570  0.00  0.00    +0.000 A 
ATOM      4  C   UNL     1      45.490   4.092  12.170  0.00  0.00    +0.000 A 
ATOM      5  C   UNL     1      46.192   3.149  12.929  0.00  0.00    +0.000 A 
ATOM      6  C   UNL     1      46.895   3.548  14.067  0.00  0.00    +0.000 A 
ENDROOT
BRANCH   1   9
ATOM      7  O   UNL     1      46.666   3.593  17.100  0.00  0.00    +0.000 OA
ATOM      8  C   UNL     1      47.418   4.536  16.878  0.00  0.00    +0.000 C 
ATOM      9  N   UNL     1      47.537   5.195  15.676  0.00  0.00    +0.000 N 
ATOM     10  H   UNL     1      48.289   5.870  15.583  0.00  0.00    +0.000 HD
BRANCH   8  11
ATOM     11  C   UNL     1      48.283   5.042  17.953  0.00  0.00    +0.000 A 
ATOM     12  C   UNL     1      47.813   6.041  18.794  0.00  0.00    +0.000 A 
ATOM     13  S   UNL     1      48.928   6.498  19.997  0.00  0.00    +0.000 S 
ATOM     14  C   UNL     1      50.059   5.344  19.464  0.00  0.00    +0.000 A 
ATOM     15  N   UNL     1      51.247   5.184  20.106  0.00  0.00    +0.000 NA
ATOM     16  C   UNL     1      51.988   4.240  19.629  0.00  0.00    +0.000 A 
ATOM     17  N   UNL     1      51.661   3.454  18.554  0.00  0.00    +0.000 N 
ATOM     18  C   UNL     1      50.509   3.638  17.827  0.00  0.00    +0.000 A 
ATOM     19  O   UNL     1      50.315   3.017  16.785  0.00  0.00    +0.000 OA
ATOM     20  C   UNL     1      49.609   4.644  18.358  0.00  0.00    +0.000 A 
ATOM     21  H   UNL     1      52.302   2.759  18.203  0.00  0.00    +0.000 HD
ENDBRANCH   8  11
ENDBRANCH   1   9
BRANCH   4  22
ATOM     22  C   UNL     1      44.681   3.640  10.976  0.00  0.00    +0.000 C 
BRANCH  22  23
ATOM     23  N   UNL     1      45.365   2.602  10.220  0.00  0.00    +0.000 NA
ATOM     24  H   UNL     1      45.427   1.741  10.772  0.00  0.00    +0.000 HD
BRANCH  23  25
ATOM     25  C   UNL     1      44.766   2.274   8.922  0.00  0.00    +0.000 C 
ATOM     26  C   UNL     1      45.596   1.281   8.089  0.00  0.00    +0.000 C 
ATOM     27  C   UNL     1      46.957   1.872   7.717  0.00  0.00    +0.000 C 
ATOM     28  C   UNL     1      46.797   3.227   7.026  0.00  0.00    +0.000 C 
ATOM     29  N   UNL     1      45.988   4.159   7.812  0.00  0.00    +0.000 NA
ATOM     30  C   UNL     1      44.659   3.595   8.116  0.00  0.00    +0.000 C 
ATOM     31  H   UNL     1      45.867   5.027   7.292  0.00  0.00    +0.000 HD
ENDBRANCH  23  25
ENDBRANCH  22  23
ENDBRANCH   4  22
TORSDOF 5
ENDMDL
MODEL 4
REMARK VINA RESULT:    -6.857      3.531     10.009
REMARK INTER + INTRA:          -9.714
REMARK INTER:                  -8.665
REMARK INTRA:                  -1.049
REMARK UNBOUND:                -0.854
REMARK  Name = 
REMARK  5 active torsions:
REMARK  status: ('A' for Active; 'I' for Inactive)
REMARK    1  A    between atoms: C_2  and  C_18
REMARK    2  A    between atoms: N_3  and  C_4
REMARK    3  A    between atoms: C_7  and  C_8
REMARK    4  A    between atoms: C_8  and  N_9
REMARK    5  A    between atoms: N_9  and  C_10
REMARK                            x       y       z     vdW  Elec       q    Type
REMARK                         _______ _______ _______ _____ _____    ______ ____
ROOT
ATOM      1  C   UNL     1      48.100   5.104  16.066  0.00  0.00    +0.000 A 
ATOM      2  C   UNL     1      48.263   3.856  16.655  0.00  0.00    +0.000 A 
ATOM      3  C   UNL     1      49.131   3.703  17.731  0.00  0.00    +0.000 A 
ATOM      4  C   UNL     1      49.876   4.786  18.217  0.00  0.00    +0.000 A 
ATOM      5  C   UNL     1      49.734   6.034  17.599  0.00  0.00    +0.000 A 
ATOM      6  C   UNL     1      48.861   6.188  16.522  0.00  0.00    +0.000 A 
ENDROOT
BRANCH   1   9
ATOM      7  O   UNL     1      48.554   6.167  13.365  0.00  0.00    +0.000 OA
ATOM      8  C   UNL     1      47.447   5.836  13.778  0.00  0.00    +0.000 C 
ATOM      9  N   UNL     1      47.177   5.360  15.041  0.00  0.00    +0.000 N 
ATOM     10  H   UNL     1      46.247   4.996  15.216  0.00  0.00    +0.000 HD
BRANCH   8  11
ATOM     11  C   UNL     1      46.282   5.938  12.888  0.00  0.00    +0.000 A 
ATOM     12  C   UNL     1      45.877   7.186  12.435  0.00  0.00    +0.000 A 
ATOM     13  S   UNL     1      44.528   7.129  11.398  0.00  0.00    +0.000 S 
ATOM     14  C   UNL     1      44.465   5.430  11.485  0.00  0.00    +0.000 A 
ATOM     15  N   UNL     1      43.540   4.730  10.777  0.00  0.00    +0.000 NA
ATOM     16  C   UNL     1      43.638   3.448  10.894  0.00  0.00    +0.000 A 
ATOM     17  N   UNL     1      44.563   2.799  11.671  0.00  0.00    +0.000 N 
ATOM     18  C   UNL     1      45.462   3.471  12.465  0.00  0.00    +0.000 A 
ATOM     19  O   UNL     1      46.178   2.865  13.258  0.00  0.00    +0.000 OA
ATOM     20  C   UNL     1      45.438   4.914  12.324  0.00  0.00    +0.000 A 
ATOM     21  H   UNL     1      44.561   1.795  11.753  0.00  0.00    +0.000 HD
ENDBRANCH   8  11
ENDBRANCH   1   9
BRANCH   4  22
ATOM     22  C   UNL     1      50.777   4.644  19.422  0.00  0.00    +0.000 C 
BRANCH  22  23
ATOM     23  N   UNL     1      50.730   5.822  20.275  0.00  0.00    +0.000 NA
ATOM     24  H   UNL     1      50.221   6.579  19.809  0.00  0.00    +0.000 HD
BRANCH  23  25
ATOM     25  C   UNL     1      50.135   5.613  21.599  0.00  0.00    +0.000 C 
ATOM     26  C   UNL     1      48.722   5.006  21.556  0.00  0.00    +0.000 C 
ATOM     27  C   UNL     1      47.735   5.948  20.864  0.00  0.00    +0.000 C 
ATOM     28  C   UNL     1      47.758   7.336  21.507  0.00  0.00    +0.000 C 
ATOM     29  N   UNL     1      49.107   7.898  21.567  0.00  0.00    +0.000 NA
ATOM     30  C   UNL     1      50.034   7.001  22.284  0.00  0.00    +0.000 C 
ATOM     31  H   UNL     1      49.082   8.797  22.046  0.00  0.00    +0.000 HD
ENDBRANCH  23  25
ENDBRANCH  22  23
ENDBRANCH   4  22
TORSDOF 5
ENDMDL
MODEL 5
REMARK VINA RESULT:    -6.845      3.920      9.555
REMARK INTER + INTRA:          -9.699
REMARK INTER:                  -8.495
REMARK INTRA:                  -1.205
REMARK UNBOUND:                -0.854
REMARK  Name = 
REMARK  5 active torsions:
REMARK  status: ('A' for Active; 'I' for Inactive)
REMARK    1  A    between atoms: C_2  and  C_18
REMARK    2  A    between atoms: N_3  and  C_4
REMARK    3  A    between atoms: C_7  and  C_8
REMARK    4  A    between atoms: C_8  and  N_9
REMARK    5  A    between atoms: N_9  and  C_10
REMARK                            x       y       z     vdW  Elec       q    Type
REMARK                         _______ _______ _______ _____ _____    ______ ____
ROOT
ATOM      1  C   UNL     1      48.594   5.668  16.915  0.00  0.00    +0.000 A 
ATOM      2  C   UNL     1      49.014   6.751  17.679  0.00  0.00    +0.000 A 
ATOM      3  C   UNL     1      49.907   6.557  18.728  0.00  0.00    +0.000 A 
ATOM      4  C   UNL     1      50.371   5.275  19.052  0.00  0.00    +0.000 A 
ATOM      5  C   UNL     1      49.919   4.184  18.302  0.00  0.00    +0.000 A 
ATOM      6  C   UNL     1      49.026   4.379  17.247  0.00  0.00    +0.000 A 
ENDROOT
BRANCH   1   9
ATOM      7  O   UNL     1      49.260   6.596  14.208  0.00  0.00    +0.000 OA
ATOM      8  C   UNL     1      48.141   6.210  14.528  0.00  0.00    +0.000 C 
ATOM      9  N   UNL     1      47.770   5.793  15.786  0.00  0.00    +0.000 N 
ATOM     10  H   UNL     1      46.853   5.372  15.889  0.00  0.00    +0.000 HD
BRANCH   8  11
ATOM     11  C   UNL     1      47.072   6.172  13.519  0.00  0.00    +0.000 A 
ATOM     12  C   UNL     1      46.687   7.347  12.889  0.00  0.00    +0.000 A 
ATOM     13  S   UNL     1      45.455   7.128  11.735  0.00  0.00    +0.000 S 
ATOM     14  C   UNL     1      45.425   5.448  12.006  0.00  0.00    +0.000 A 
ATOM     15  N   UNL     1      44.595   4.641  11.293  0.00  0.00    +0.000 NA
ATOM     16  C   UNL     1      44.711   3.384  11.563  0.00  0.00    +0.000 A 
ATOM     17  N   UNL     1      45.566   2.859  12.498  0.00  0.00    +0.000 N 
ATOM     18  C   UNL     1      46.361   3.646  13.297  0.00  0.00    +0.000 A 
ATOM     19  O   UNL     1      47.005   3.157  14.222  0.00  0.00    +0.000 OA
ATOM     20  C   UNL     1      46.317   5.063  12.992  0.00  0.00    +0.000 A 
ATOM     21  H   UNL     1      45.580   1.870  12.692  0.00  0.00    +0.000 HD
ENDBRANCH   8  11
ENDBRANCH   1   9
BRANCH   4  22
ATOM     22  C   UNL     1      51.386   5.060  20.151  0.00  0.00    +0.000 C 
BRANCH  22  23
ATOM     23  N   UNL     1      52.199   3.878  19.913  0.00  0.00    +0.000 NA
ATOM     24  H   UNL     1      51.688   3.204  19.335  0.00  0.00    +0.000 HD
BRANCH  23  25
ATOM     25  C   UNL     1      53.502   4.128  19.287  0.00  0.00    +0.000 C 
ATOM     26  C   UNL     1      53.611   3.594  17.848  0.00  0.00    +0.000 C 
ATOM     27  C   UNL     1      53.484   2.070  17.812  0.00  0.00    +0.000 C 
ATOM     28  C   UNL     1      54.488   1.412  18.760  0.00  0.00    +0.000 C 
ATOM     29  N   UNL     1      54.395   1.941  20.121  0.00  0.00    +0.000 NA
ATOM     30  C   UNL     1      54.573   3.405  20.144  0.00  0.00    +0.000 C 
ATOM     31  H   UNL     1      55.112   1.512  20.704  0.00  0.00    +0.000 HD
ENDBRANCH  23  25
ENDBRANCH  22  23
ENDBRANCH   4  22
TORSDOF 5
ENDMDL
MODEL 6
REMARK VINA RESULT:    -6.809      4.005      8.941
REMARK INTER + INTRA:          -9.653
REMARK INTER:                  -8.592
REMARK INTRA:                  -1.061
REMARK UNBOUND:                -0.854
REMARK  Name = 
REMARK  5 active torsions:
REMARK  status: ('A' for Active; 'I' for Inactive)
REMARK    1  A    between atoms: C_2  and  C_18
REMARK    2  A    between atoms: N_3  and  C_4
REMARK    3  A    between atoms: C_7  and  C_8
REMARK    4  A    between atoms: C_8  and  N_9
REMARK    5  A    between atoms: N_9  and  C_10
REMARK                            x       y       z     vdW  Elec       q    Type
REMARK                         _______ _______ _______ _____ _____    ______ ____
ROOT
ATOM      1  C   UNL     1      47.456   4.647  16.220  0.00  0.00    +0.000 A 
ATOM      2  C   UNL     1      47.468   3.647  17.184  0.00  0.00    +0.000 A 
ATOM      3  C   UNL     1      48.292   3.763  18.298  0.00  0.00    +0.000 A 
ATOM      4  C   UNL     1      49.143   4.865  18.453  0.00  0.00    +0.000 A 
ATOM      5  C   UNL     1      49.154   5.854  17.463  0.00  0.00    +0.000 A 
ATOM      6  C   UNL     1      48.324   5.739  16.347  0.00  0.00    +0.000 A 
ENDROOT
BRANCH   1   9
ATOM      7  O   UNL     1      47.752   3.342  13.605  0.00  0.00    +0.000 OA
ATOM      8  C   UNL     1      46.763   3.996  13.920  0.00  0.00    +0.000 C 
ATOM      9  N   UNL     1      46.588   4.649  15.118  0.00  0.00    +0.000 N 
ATOM     10  H   UNL     1      45.672   5.042  15.308  0.00  0.00    +0.000 HD
BRANCH   8  11
ATOM     11  C   UNL     1      45.647   4.122  12.972  0.00  0.00    +0.000 A 
ATOM     12  C   UNL     1      45.021   2.978  12.498  0.00  0.00    +0.000 A 
ATOM     13  S   UNL     1      43.736   3.299  11.427  0.00  0.00    +0.000 S 
ATOM     14  C   UNL     1      43.944   4.980  11.595  0.00  0.00    +0.000 A 
ATOM     15  N   UNL     1      43.119   5.851  10.956  0.00  0.00    +0.000 NA
ATOM     16  C   UNL     1      43.356   7.094  11.213  0.00  0.00    +0.000 A 
ATOM     17  N   UNL     1      44.357   7.549  12.033  0.00  0.00    +0.000 N 
ATOM     18  C   UNL     1      45.263   6.706  12.631  0.00  0.00    +0.000 A 
ATOM     19  O   UNL     1      46.232   7.152  13.240  0.00  0.00    +0.000 OA
ATOM     20  C   UNL     1      45.004   5.293  12.428  0.00  0.00    +0.000 A 
ATOM     21  H   UNL     1      44.516   8.537  12.160  0.00  0.00    +0.000 HD
ENDBRANCH   8  11
ENDBRANCH   1   9
BRANCH   4  22
ATOM     22  C   UNL     1      50.000   5.031  19.687  0.00  0.00    +0.000 C 
BRANCH  22  23
ATOM     23  N   UNL     1      51.104   4.085  19.711  0.00  0.00    +0.000 NA
ATOM     24  H   UNL     1      50.756   3.127  19.606  0.00  0.00    +0.000 HD
BRANCH  23  25
ATOM     25  C   UNL     1      52.144   4.310  18.700  0.00  0.00    +0.000 C 
ATOM     26  C   UNL     1      51.964   3.467  17.426  0.00  0.00    +0.000 C 
ATOM     27  C   UNL     1      52.077   1.972  17.730  0.00  0.00    +0.000 C 
ATOM     28  C   UNL     1      53.383   1.657  18.461  0.00  0.00    +0.000 C 
ATOM     29  N   UNL     1      53.560   2.478  19.659  0.00  0.00    +0.000 NA
ATOM     30  C   UNL     1      53.502   3.917  19.340  0.00  0.00    +0.000 C 
ATOM     31  H   UNL     1      54.462   2.271  20.084  0.00  0.00    +0.000 HD
ENDBRANCH  23  25
ENDBRANCH  22  23
ENDBRANCH   4  22
TORSDOF 5
ENDMDL
MODEL 7
REMARK VINA RESULT:    -6.637      4.057      9.831
REMARK INTER + INTRA:          -9.431
REMARK INTER:                  -8.243
REMARK INTRA:                  -1.188
REMARK UNBOUND:                -0.854
REMARK  Name = 
REMARK  5 active torsions:
REMARK  status: ('A' for Active; 'I' for Inactive)
REMARK    1  A    between atoms: C_2  and  C_18
REMARK    2  A    between atoms: N_3  and  C_4
REMARK    3  A    between atoms: C_7  and  C_8
REMARK    4  A    between atoms: C_8  and  N_9
REMARK    5  A    between atoms: N_9  and  C_10
REMARK                            x       y       z     vdW  Elec       q    Type
REMARK                         _______ _______ _______ _____ _____    ______ ____
ROOT
ATOM      1  C   UNL     1      47.492   4.480  16.169  0.00  0.00    +0.000 A 
ATOM      2  C   UNL     1      47.516   3.410  17.057  0.00  0.00    +0.000 A 
ATOM      3  C   UNL     1      48.380   3.429  18.146  0.00  0.00    +0.000 A 
ATOM      4  C   UNL     1      49.258   4.502  18.351  0.00  0.00    +0.000 A 
ATOM      5  C   UNL     1      49.254   5.562  17.436  0.00  0.00    +0.000 A 
ATOM      6  C   UNL     1      48.385   5.543  16.345  0.00  0.00    +0.000 A 
ENDROOT
BRANCH   1   9
ATOM      7  O   UNL     1      47.655   3.336  13.468  0.00  0.00    +0.000 OA
ATOM      8  C   UNL     1      46.698   3.997  13.860  0.00  0.00    +0.000 C 
ATOM      9  N   UNL     1      46.586   4.578  15.102  0.00  0.00    +0.000 N 
ATOM     10  H   UNL     1      45.691   4.986  15.350  0.00  0.00    +0.000 HD
BRANCH   8  11
ATOM     11  C   UNL     1      45.555   4.218  12.963  0.00  0.00    +0.000 A 
ATOM     12  C   UNL     1      44.796   3.133  12.545  0.00  0.00    +0.000 A 
ATOM     13  S   UNL     1      43.498   3.562  11.530  0.00  0.00    +0.000 S 
ATOM     14  C   UNL     1      43.880   5.216  11.649  0.00  0.00    +0.000 A 
ATOM     15  N   UNL     1      43.116   6.155  11.030  0.00  0.00    +0.000 NA
ATOM     16  C   UNL     1      43.487   7.372  11.246  0.00  0.00    +0.000 A 
ATOM     17  N   UNL     1      44.568   7.739  12.007  0.00  0.00    +0.000 N 
ATOM     18  C   UNL     1      45.413   6.820  12.581  0.00  0.00    +0.000 A 
ATOM     19  O   UNL     1      46.451   7.178  13.132  0.00  0.00    +0.000 OA
ATOM     20  C   UNL     1      45.006   5.438  12.423  0.00  0.00    +0.000 A 
ATOM     21  H   UNL     1      44.830   8.708  12.103  0.00  0.00    +0.000 HD
ENDBRANCH   8  11
ENDBRANCH   1   9
BRANCH   4  22
ATOM     22  C   UNL     1      50.159   4.562  19.563  0.00  0.00    +0.000 C 
BRANCH  22  23
ATOM     23  N   UNL     1      50.126   5.870  20.199  0.00  0.00    +0.000 NA
ATOM     24  H   UNL     1      49.479   6.490  19.704  0.00  0.00    +0.000 HD
BRANCH  23  25
ATOM     25  C   UNL     1      49.766   5.866  21.621  0.00  0.00    +0.000 C 
ATOM     26  C   UNL     1      48.391   5.238  21.911  0.00  0.00    +0.000 C 
ATOM     27  C   UNL     1      47.266   6.042  21.258  0.00  0.00    +0.000 C 
ATOM     28  C   UNL     1      47.335   7.515  21.665  0.00  0.00    +0.000 C 
ATOM     29  N   UNL     1      48.651   8.100  21.408  0.00  0.00    +0.000 NA
ATOM     30  C   UNL     1      49.720   7.344  22.089  0.00  0.00    +0.000 C 
ATOM     31  H   UNL     1      48.666   9.063  21.739  0.00  0.00    +0.000 HD
ENDBRANCH  23  25
ENDBRANCH  22  23
ENDBRANCH   4  22
TORSDOF 5
ENDMDL
MODEL 8
REMARK VINA RESULT:    -6.544      3.274      5.032
REMARK INTER + INTRA:          -9.310
REMARK INTER:                  -8.559
REMARK INTRA:                  -0.751
REMARK UNBOUND:                -0.854
REMARK  Name = 
REMARK  5 active torsions:
REMARK  status: ('A' for Active; 'I' for Inactive)
REMARK    1  A    between atoms: C_2  and  C_18
REMARK    2  A    between atoms: N_3  and  C_4
REMARK    3  A    between atoms: C_7  and  C_8
REMARK    4  A    between atoms: C_8  and  N_9
REMARK    5  A    between atoms: N_9  and  C_10
REMARK                            x       y       z     vdW  Elec       q    Type
REMARK                         _______ _______ _______ _____ _____    ______ ____
ROOT
ATOM      1  C   UNL     1      48.190   6.825  14.350  0.00  0.00    +0.000 A 
ATOM      2  C   UNL     1      47.615   8.045  14.016  0.00  0.00    +0.000 A 
ATOM      3  C   UNL     1      46.538   8.090  13.137  0.00  0.00    +0.000 A 
ATOM      4  C   UNL     1      46.037   6.920  12.551  0.00  0.00    +0.000 A 
ATOM      5  C   UNL     1      46.640   5.696  12.864  0.00  0.00    +0.000 A 
ATOM      6  C   UNL     1      47.719   5.652  13.748  0.00  0.00    +0.000 A 
ENDROOT
BRANCH   1   9
ATOM      7  O   UNL     1      48.117   5.600  17.019  0.00  0.00    +0.000 OA
ATOM      8  C   UNL     1      49.135   6.078  16.528  0.00  0.00    +0.000 C 
ATOM      9  N   UNL     1      49.216   6.687  15.297  0.00  0.00    +0.000 N 
ATOM     10  H   UNL     1      50.140   6.922  14.949  0.00  0.00    +0.000 HD
BRANCH   8  11
ATOM     11  C   UNL     1      50.397   6.022  17.280  0.00  0.00    +0.000 A 
ATOM     12  C   UNL     1      50.983   7.201  17.719  0.00  0.00    +0.000 A 
ATOM     13  S   UNL     1      52.425   6.960  18.590  0.00  0.00    +0.000 S 
ATOM     14  C   UNL     1      52.293   5.269  18.449  0.00  0.00    +0.000 A 
ATOM     15  N   UNL     1      53.210   4.447  19.025  0.00  0.00    +0.000 NA
ATOM     16  C   UNL     1      52.961   3.189  18.884  0.00  0.00    +0.000 A 
ATOM     17  N   UNL     1      51.889   2.673  18.201  0.00  0.00    +0.000 N 
ATOM     18  C   UNL     1      50.986   3.467  17.535  0.00  0.00    +0.000 A 
ATOM     19  O   UNL     1      50.123   2.972  16.814  0.00  0.00    +0.000 OA
ATOM     20  C   UNL     1      51.182   4.893  17.714  0.00  0.00    +0.000 A 
ATOM     21  H   UNL     1      51.772   1.678  18.091  0.00  0.00    +0.000 HD
ENDBRANCH   8  11
ENDBRANCH   1   9
BRANCH   4  22
ATOM     22  C   UNL     1      44.830   6.949  11.641  0.00  0.00    +0.000 C 
BRANCH  22  23
ATOM     23  N   UNL     1      44.831   5.836  10.705  0.00  0.00    +0.000 NA
ATOM     24  H   UNL     1      45.525   5.136  10.984  0.00  0.00    +0.000 HD
BRANCH  23  25
ATOM     25  C   UNL     1      43.540   5.162  10.531  0.00  0.00    +0.000 C 
ATOM     26  C   UNL     1      42.671   5.149  11.801  0.00  0.00    +0.000 C 
ATOM     27  C   UNL     1      43.342   4.354  12.922  0.00  0.00    +0.000 C 
ATOM     28  C   UNL     1      43.715   2.947  12.452  0.00  0.00    +0.000 C 
ATOM     29  N   UNL     1      44.521   2.965  11.231  0.00  0.00    +0.000 NA
ATOM     30  C   UNL     1      43.836   3.690  10.143  0.00  0.00    +0.000 C 
ATOM     31  H   UNL     1      44.703   2.010  10.927  0.00  0.00    +0.000 HD
ENDBRANCH  23  25
ENDBRANCH  22  23
ENDBRANCH   4  22
TORSDOF 5
ENDMDL
MODEL 9
REMARK VINA RESULT:    -6.338      2.528      3.682
REMARK INTER + INTRA:          -9.044
REMARK INTER:                  -8.054
REMARK INTRA:                  -0.990
REMARK UNBOUND:                -0.854
REMARK  Name = 
REMARK  5 active torsions:
REMARK  status: ('A' for Active; 'I' for Inactive)
REMARK    1  A    between atoms: C_2  and  C_18
REMARK    2  A    between atoms: N_3  and  C_4
REMARK    3  A    between atoms: C_7  and  C_8
REMARK    4  A    between atoms: C_8  and  N_9
REMARK    5  A    between atoms: N_9  and  C_10
REMARK                            x       y       z     vdW  Elec       q    Type
REMARK                         _______ _______ _______ _____ _____    ______ ____
ROOT
ATOM      1  C   UNL     1      46.496   6.531  13.085  0.00  0.00    +0.000 A 
ATOM      2  C   UNL     1      45.840   6.800  11.890  0.00  0.00    +0.000 A 
ATOM      3  C   UNL     1      45.154   5.787  11.230  0.00  0.00    +0.000 A 
ATOM      4  C   UNL     1      45.137   4.480  11.736  0.00  0.00    +0.000 A 
ATOM      5  C   UNL     1      45.827   4.206  12.922  0.00  0.00    +0.000 A 
ATOM      6  C   UNL     1      46.514   5.224  13.585  0.00  0.00    +0.000 A 
ENDROOT
BRANCH   1   9
ATOM      7  O   UNL     1      49.126   7.789  12.716  0.00  0.00    +0.000 OA
ATOM      8  C   UNL     1      48.358   8.093  13.624  0.00  0.00    +0.000 C 
ATOM      9  N   UNL     1      47.131   7.517  13.857  0.00  0.00    +0.000 N 
ATOM     10  H   UNL     1      46.536   7.948  14.556  0.00  0.00    +0.000 HD
BRANCH   8  11
ATOM     11  C   UNL     1      48.737   9.155  14.567  0.00  0.00    +0.000 A 
ATOM     12  C   UNL     1      48.925  10.448  14.099  0.00  0.00    +0.000 A 
ATOM     13  S   UNL     1      49.339  11.560  15.320  0.00  0.00    +0.000 S 
ATOM     14  C   UNL     1      49.238  10.360  16.523  0.00  0.00    +0.000 A 
ATOM     15  N   UNL     1      49.445  10.665  17.832  0.00  0.00    +0.000 NA
ATOM     16  C   UNL     1      49.286   9.673  18.642  0.00  0.00    +0.000 A 
ATOM     17  N   UNL     1      48.961   8.395  18.263  0.00  0.00    +0.000 N 
ATOM     18  C   UNL     1      48.824   8.027  16.946  0.00  0.00    +0.000 A 
ATOM     19  O   UNL     1      48.677   6.849  16.633  0.00  0.00    +0.000 OA
ATOM     20  C   UNL     1      48.929   9.118  15.996  0.00  0.00    +0.000 A 
ATOM     21  H   UNL     1      48.892   7.653  18.942  0.00  0.00    +0.000 HD
ENDBRANCH   8  11
ENDBRANCH   1   9
BRANCH   4  22
ATOM     22  C   UNL     1      44.345   3.384  11.059  0.00  0.00    +0.000 C 
BRANCH  22  23
ATOM     23  N   UNL     1      45.196   2.518  10.258  0.00  0.00    +0.000 NA
ATOM     24  H   UNL     1      45.374   1.638  10.751  0.00  0.00    +0.000 HD
BRANCH  23  25
ATOM     25  C   UNL     1      44.686   2.202   8.919  0.00  0.00    +0.000 C 
ATOM     26  C   UNL     1      45.654   1.360   8.069  0.00  0.00    +0.000 C 
ATOM     27  C   UNL     1      46.950   2.123   7.787  0.00  0.00    +0.000 C 
ATOM     28  C   UNL     1      46.659   3.490   7.166  0.00  0.00    +0.000 C 
ATOM     29  N   UNL     1      45.720   4.276   7.967  0.00  0.00    +0.000 NA
ATOM     30  C   UNL     1      44.456   3.547   8.183  0.00  0.00    +0.000 C 
ATOM     31  H   UNL     1      45.518   5.154   7.491  0.00  0.00    +0.000 HD
ENDBRANCH  23  25
ENDBRANCH  22  23
ENDBRANCH   4  22
TORSDOF 5
ENDMDL
