MODEL 1
REMARK VINA RESULT:    -6.972      0.000      0.000
REMARK INTER + INTRA:          -9.344
REMARK INTER:                  -8.603
REMARK INTRA:                  -0.741
REMARK UNBOUND:                -0.741
REMARK  Name = 
REMARK  4 active torsions:
REMARK  status: ('A' for Active; 'I' for Inactive)
REMARK    1  A    between atoms: C_4  and  O_5
REMARK    2  A    between atoms: O_5  and  C_6
REMARK    3  A    between atoms: C_6  and  C_7
REMARK    4  A    between atoms: C_11  and  C_12
REMARK                            x       y       z     vdW  Elec       q    Type
REMARK                         _______ _______ _______ _____ _____    ______ ____
ROOT
ATOM      1  C   UNL     1      45.099   5.136  12.223  0.00  0.00    +0.000 A 
ATOM      2  C   UNL     1      45.664   4.173  13.076  0.00  0.00    +0.000 A 
ATOM      3  C   UNL     1      46.916   4.352  13.659  0.00  0.00    +0.000 A 
ATOM      4  C   UNL     1      47.652   5.498  13.378  0.00  0.00    +0.000 A 
ATOM      5  C   UNL     1      47.144   6.496  12.533  0.00  0.00    +0.000 A 
ATOM      6  C   UNL     1      45.848   6.305  12.003  0.00  0.00    +0.000 A 
ENDROOT
BRANCH   5   7
ATOM      7  C   UNL     1      47.953   7.665  12.145  0.00  0.00    +0.000 A 
ATOM      8  C   UNL     1      49.307   7.559  11.798  0.00  0.00    +0.000 A 
ATOM      9  C   UNL     1      50.054   8.697  11.497  0.00  0.00    +0.000 A 
ATOM     10  C   UNL     1      49.424   9.927  11.536  0.00  0.00    +0.000 A 
ATOM     11  N   UNL     1      48.124  10.089  11.853  0.00  0.00    +0.000 NA
ATOM     12  C   UNL     1      47.429   8.962  12.152  0.00  0.00    +0.000 A 
ENDBRANCH   5   7
BRANCH   1  13
ATOM     13  C   UNL     1      43.786   4.864  11.492  0.00  0.00    +0.000 C 
ATOM     14  C   UNL     1      42.461   5.253  12.147  0.00  0.00    +0.000 C 
ATOM     15  C   UNL     1      43.003   6.073  11.025  0.00  0.00    +0.000 C 
BRANCH  13  16
ATOM     16  O   UNL     1      43.642   3.607  10.780  0.00  0.00    +0.000 OA
BRANCH  16  20
ATOM     17  C   UNL     1      46.267   2.910   7.702  0.00  0.00    +0.000 A 
ATOM     18  C   UNL     1      45.791   1.842   8.464  0.00  0.00    +0.000 A 
ATOM     19  C   UNL     1      44.881   2.091   9.483  0.00  0.00    +0.000 A 
ATOM     20  C   UNL     1      44.498   3.399   9.717  0.00  0.00    +0.000 A 
ATOM     21  N   UNL     1      44.904   4.447   8.965  0.00  0.00    +0.000 NA
ATOM     22  C   UNL     1      45.786   4.177   7.980  0.00  0.00    +0.000 A 
ENDBRANCH  16  20
ENDBRANCH  13  16
ENDBRANCH   1  13
TORSDOF 4
ENDMDL
MODEL 2
REMARK VINA RESULT:    -6.887      2.227      3.723
REMARK INTER + INTRA:          -9.239
REMARK INTER:                  -8.840
REMARK INTRA:                  -0.399
REMARK UNBOUND:                -0.741
REMARK  Name = 
REMARK  4 active torsions:
REMARK  status: ('A' for Active; 'I' for Inactive)
REMARK    1  A    between atoms: C_4  and  O_5
REMARK    2  A    between atoms: O_5  and  C_6
REMARK    3  A    between atoms: C_6  and  C_7
REMARK    4  A    between atoms: C_11  and  C_12
REMARK                            x       y       z     vdW  Elec       q    Type
REMARK                         _______ _______ _______ _____ _____    ______ ____
ROOT
ATOM      1  C   UNL     1      45.447   5.272  12.220  0.00  0.00    +0.000 A 
ATOM      2  C   UNL     1      46.158   6.303  11.582  0.00  0.00    +0.000 A 
ATOM      3  C   UNL     1      47.342   6.814  12.106  0.00  0.00    +0.000 A 
ATOM      4  C   UNL     1      47.836   6.319  13.309  0.00  0.00    +0.000 A 
ATOM      5  C   UNL     1      47.172   5.291  13.995  0.00  0.00    +0.000 A 
ATOM      6  C   UNL     1      46.003   4.761  13.406  0.00  0.00    +0.000 A 
ENDROOT
BRANCH   5   7
ATOM      7  C   UNL     1      47.626   4.828  15.319  0.00  0.00    +0.000 A 
ATOM      8  C   UNL     1      47.280   3.570  15.834  0.00  0.00    +0.000 A 
ATOM      9  C   UNL     1      47.678   3.194  17.116  0.00  0.00    +0.000 A 
ATOM     10  C   UNL     1      48.432   4.084  17.859  0.00  0.00    +0.000 A 
ATOM     11  N   UNL     1      48.802   5.300  17.412  0.00  0.00    +0.000 NA
ATOM     12  C   UNL     1      48.388   5.640  16.165  0.00  0.00    +0.000 A 
ENDBRANCH   5   7
BRANCH   1  13
ATOM     13  C   UNL     1      44.087   4.817  11.699  0.00  0.00    +0.000 C 
ATOM     14  C   UNL     1      42.829   5.093  12.522  0.00  0.00    +0.000 C 
ATOM     15  C   UNL     1      43.110   5.903  11.301  0.00  0.00    +0.000 C 
BRANCH  13  16
ATOM     16  O   UNL     1      43.994   3.513  11.066  0.00  0.00    +0.000 OA
BRANCH  16  20
ATOM     17  C   UNL     1      46.129   2.961   7.604  0.00  0.00    +0.000 A 
ATOM     18  C   UNL     1      45.799   1.863   8.399  0.00  0.00    +0.000 A 
ATOM     19  C   UNL     1      45.053   2.062   9.553  0.00  0.00    +0.000 A 
ATOM     20  C   UNL     1      44.680   3.354   9.878  0.00  0.00    +0.000 A 
ATOM     21  N   UNL     1      44.942   4.430   9.102  0.00  0.00    +0.000 NA
ATOM     22  C   UNL     1      45.668   4.207   7.987  0.00  0.00    +0.000 A 
ENDBRANCH  16  20
ENDBRANCH  13  16
ENDBRANCH   1  13
TORSDOF 4
ENDMDL
MODEL 3
REMARK VINA RESULT:    -6.543      2.488      6.371
REMARK INTER + INTRA:          -8.815
REMARK INTER:                  -7.956
REMARK INTRA:                  -0.858
REMARK UNBOUND:                -0.741
REMARK  Name = 
REMARK  4 active torsions:
REMARK  status: ('A' for Active; 'I' for Inactive)
REMARK    1  A    between atoms: C_4  and  O_5
REMARK    2  A    between atoms: O_5  and  C_6
REMARK    3  A    between atoms: C_6  and  C_7
REMARK    4  A    between atoms: C_11  and  C_12
REMARK                            x       y       z     vdW  Elec       q    Type
REMARK                         _______ _______ _______ _____ _____    ______ ____
ROOT
ATOM      1  C   UNL     1      45.101   6.450  11.870  0.00  0.00    +0.000 A 
ATOM      2  C   UNL     1      43.774   6.205  12.265  0.00  0.00    +0.000 A 
ATOM      3  C   UNL     1      43.012   5.190  11.694  0.00  0.00    +0.000 A 
ATOM      4  C   UNL     1      43.555   4.402  10.684  0.00  0.00    +0.000 A 
ATOM      5  C   UNL     1      44.874   4.598  10.244  0.00  0.00    +0.000 A 
ATOM      6  C   UNL     1      45.634   5.601  10.884  0.00  0.00    +0.000 A 
ENDROOT
BRANCH   5   7
ATOM      7  C   UNL     1      45.428   3.841   9.107  0.00  0.00    +0.000 A 
ATOM      8  C   UNL     1      45.489   2.440   9.096  0.00  0.00    +0.000 A 
ATOM      9  C   UNL     1      46.077   1.763   8.029  0.00  0.00    +0.000 A 
ATOM     10  C   UNL     1      46.584   2.506   6.978  0.00  0.00    +0.000 A 
ATOM     11  N   UNL     1      46.543   3.852   6.929  0.00  0.00    +0.000 NA
ATOM     12  C   UNL     1      45.975   4.480   7.990  0.00  0.00    +0.000 A 
ENDBRANCH   5   7
BRANCH   1  13
ATOM     13  C   UNL     1      45.874   7.648  12.414  0.00  0.00    +0.000 C 
ATOM     14  C   UNL     1      47.027   7.424  13.392  0.00  0.00    +0.000 C 
ATOM     15  C   UNL     1      47.317   7.786  11.974  0.00  0.00    +0.000 C 
BRANCH  13  16
ATOM     16  O   UNL     1      45.129   8.838  12.784  0.00  0.00    +0.000 OA
BRANCH  16  20
ATOM     17  C   UNL     1      44.651  11.586   9.772  0.00  0.00    +0.000 A 
ATOM     18  C   UNL     1      43.787  10.494   9.859  0.00  0.00    +0.000 A 
ATOM     19  C   UNL     1      43.944   9.588  10.900  0.00  0.00    +0.000 A 
ATOM     20  C   UNL     1      44.970   9.797  11.803  0.00  0.00    +0.000 A 
ATOM     21  N   UNL     1      45.791  10.871  11.773  0.00  0.00    +0.000 NA
ATOM     22  C   UNL     1      45.617  11.736  10.751  0.00  0.00    +0.000 A 
ENDBRANCH  16  20
ENDBRANCH  13  16
ENDBRANCH   1  13
TORSDOF 4
ENDMDL
MODEL 4
REMARK VINA RESULT:    -6.308      2.049      2.835
REMARK INTER + INTRA:          -8.525
REMARK INTER:                  -7.865
REMARK INTRA:                  -0.660
REMARK UNBOUND:                -0.741
REMARK  Name = 
REMARK  4 active torsions:
REMARK  status: ('A' for Active; 'I' for Inactive)
REMARK    1  A    between atoms: C_4  and  O_5
REMARK    2  A    between atoms: O_5  and  C_6
REMARK    3  A    between atoms: C_6  and  C_7
REMARK    4  A    between atoms: C_11  and  C_12
REMARK                            x       y       z     vdW  Elec       q    Type
REMARK                         _______ _______ _______ _____ _____    ______ ____
ROOT
ATOM      1  C   UNL     1      45.027   6.603  12.127  0.00  0.00    +0.000 A 
ATOM      2  C   UNL     1      44.631   7.871  11.667  0.00  0.00    +0.000 A 
ATOM      3  C   UNL     1      45.415   9.004  11.868  0.00  0.00    +0.000 A 
ATOM      4  C   UNL     1      46.614   8.900  12.565  0.00  0.00    +0.000 A 
ATOM      5  C   UNL     1      47.064   7.663  13.051  0.00  0.00    +0.000 A 
ATOM      6  C   UNL     1      46.270   6.527  12.781  0.00  0.00    +0.000 A 
ENDROOT
BRANCH   5   7
ATOM      7  C   UNL     1      48.280   7.554  13.878  0.00  0.00    +0.000 A 
ATOM      8  C   UNL     1      49.369   8.424  13.729  0.00  0.00    +0.000 A 
ATOM      9  C   UNL     1      50.526   8.250  14.487  0.00  0.00    +0.000 A 
ATOM     10  C   UNL     1      50.565   7.210  15.398  0.00  0.00    +0.000 A 
ATOM     11  N   UNL     1      49.546   6.350  15.591  0.00  0.00    +0.000 NA
ATOM     12  C   UNL     1      48.440   6.540  14.827  0.00  0.00    +0.000 A 
ENDBRANCH   5   7
BRANCH   1  13
ATOM     13  C   UNL     1      44.096   5.399  12.011  0.00  0.00    +0.000 C 
ATOM     14  C   UNL     1      42.908   5.266  12.964  0.00  0.00    +0.000 C 
ATOM     15  C   UNL     1      42.681   5.673  11.547  0.00  0.00    +0.000 C 
BRANCH  13  16
ATOM     16  O   UNL     1      44.685   4.095  11.760  0.00  0.00    +0.000 OA
BRANCH  16  20
ATOM     17  C   UNL     1      45.191   3.186   7.789  0.00  0.00    +0.000 A 
ATOM     18  C   UNL     1      45.647   4.407   8.285  0.00  0.00    +0.000 A 
ATOM     19  C   UNL     1      45.494   4.689   9.637  0.00  0.00    +0.000 A 
ATOM     20  C   UNL     1      44.873   3.748  10.437  0.00  0.00    +0.000 A 
ATOM     21  N   UNL     1      44.465   2.536   9.995  0.00  0.00    +0.000 NA
ATOM     22  C   UNL     1      44.626   2.289   8.678  0.00  0.00    +0.000 A 
ENDBRANCH  16  20
ENDBRANCH  13  16
ENDBRANCH   1  13
TORSDOF 4
ENDMDL
MODEL 5
REMARK VINA RESULT:    -6.186      2.955      6.793
REMARK INTER + INTRA:          -8.374
REMARK INTER:                  -7.810
REMARK INTRA:                  -0.564
REMARK UNBOUND:                -0.741
REMARK  Name = 
REMARK  4 active torsions:
REMARK  status: ('A' for Active; 'I' for Inactive)
REMARK    1  A    between atoms: C_4  and  O_5
REMARK    2  A    between atoms: O_5  and  C_6
REMARK    3  A    between atoms: C_6  and  C_7
REMARK    4  A    between atoms: C_11  and  C_12
REMARK                            x       y       z     vdW  Elec       q    Type
REMARK                         _______ _______ _______ _____ _____    ______ ____
ROOT
ATOM      1  C   UNL     1      46.928   7.362  13.053  0.00  0.00    +0.000 A 
ATOM      2  C   UNL     1      46.057   8.462  12.967  0.00  0.00    +0.000 A 
ATOM      3  C   UNL     1      44.926   8.443  12.156  0.00  0.00    +0.000 A 
ATOM      4  C   UNL     1      44.649   7.321  11.381  0.00  0.00    +0.000 A 
ATOM      5  C   UNL     1      45.481   6.191  11.421  0.00  0.00    +0.000 A 
ATOM      6  C   UNL     1      46.588   6.226  12.297  0.00  0.00    +0.000 A 
ENDROOT
BRANCH   5   7
ATOM      7  C   UNL     1      45.258   5.037  10.532  0.00  0.00    +0.000 A 
ATOM      8  C   UNL     1      45.623   5.050   9.178  0.00  0.00    +0.000 A 
ATOM      9  C   UNL     1      45.339   3.962   8.355  0.00  0.00    +0.000 A 
ATOM     10  C   UNL     1      44.703   2.867   8.909  0.00  0.00    +0.000 A 
ATOM     11  N   UNL     1      44.338   2.793  10.204  0.00  0.00    +0.000 NA
ATOM     12  C   UNL     1      44.618   3.874  10.974  0.00  0.00    +0.000 A 
ENDBRANCH   5   7
BRANCH   1  13
ATOM     13  C   UNL     1      48.230   7.449  13.845  0.00  0.00    +0.000 C 
ATOM     14  C   UNL     1      49.311   8.441  13.417  0.00  0.00    +0.000 C 
ATOM     15  C   UNL     1      48.473   8.729  14.617  0.00  0.00    +0.000 C 
BRANCH  13  16
ATOM     16  O   UNL     1      48.837   6.215  14.309  0.00  0.00    +0.000 OA
BRANCH  16  20
ATOM     17  C   UNL     1      47.421   4.584  17.800  0.00  0.00    +0.000 A 
ATOM     18  C   UNL     1      48.276   5.685  17.845  0.00  0.00    +0.000 A 
ATOM     19  C   UNL     1      48.725   6.243  16.655  0.00  0.00    +0.000 A 
ATOM     20  C   UNL     1      48.317   5.667  15.466  0.00  0.00    +0.000 A 
ATOM     21  N   UNL     1      47.450   4.633  15.389  0.00  0.00    +0.000 NA
ATOM     22  C   UNL     1      47.030   4.110  16.561  0.00  0.00    +0.000 A 
ENDBRANCH  16  20
ENDBRANCH  13  16
ENDBRANCH   1  13
TORSDOF 4
ENDMDL
MODEL 6
REMARK VINA RESULT:    -6.148      2.889      7.055
REMARK INTER + INTRA:          -8.327
REMARK INTER:                  -7.495
REMARK INTRA:                  -0.833
REMARK UNBOUND:                -0.741
REMARK  Name = 
REMARK  4 active torsions:
REMARK  status: ('A' for Active; 'I' for Inactive)
REMARK    1  A    between atoms: C_4  and  O_5
REMARK    2  A    between atoms: O_5  and  C_6
REMARK    3  A    between atoms: C_6  and  C_7
REMARK    4  A    between atoms: C_11  and  C_12
REMARK                            x       y       z     vdW  Elec       q    Type
REMARK                         _______ _______ _______ _____ _____    ______ ____
ROOT
ATOM      1  C   UNL     1      47.446   7.638  12.413  0.00  0.00    +0.000 A 
ATOM      2  C   UNL     1      46.455   8.586  12.721  0.00  0.00    +0.000 A 
ATOM      3  C   UNL     1      45.120   8.392  12.379  0.00  0.00    +0.000 A 
ATOM      4  C   UNL     1      44.742   7.245  11.689  0.00  0.00    +0.000 A 
ATOM      5  C   UNL     1      45.684   6.261  11.350  0.00  0.00    +0.000 A 
ATOM      6  C   UNL     1      47.020   6.467  11.762  0.00  0.00    +0.000 A 
ENDROOT
BRANCH   5   7
ATOM      7  C   UNL     1      45.318   5.091  10.531  0.00  0.00    +0.000 A 
ATOM      8  C   UNL     1      45.606   5.015   9.161  0.00  0.00    +0.000 A 
ATOM      9  C   UNL     1      45.189   3.919   8.408  0.00  0.00    +0.000 A 
ATOM     10  C   UNL     1      44.498   2.906   9.048  0.00  0.00    +0.000 A 
ATOM     11  N   UNL     1      44.203   2.920  10.363  0.00  0.00    +0.000 NA
ATOM     12  C   UNL     1      44.613   4.007  11.063  0.00  0.00    +0.000 A 
ENDBRANCH   5   7
BRANCH   1  13
ATOM     13  C   UNL     1      48.920   7.927  12.680  0.00  0.00    +0.000 C 
ATOM     14  C   UNL     1      49.814   8.418  11.541  0.00  0.00    +0.000 C 
ATOM     15  C   UNL     1      49.359   9.374  12.592  0.00  0.00    +0.000 C 
BRANCH  13  16
ATOM     16  O   UNL     1      49.656   7.014  13.536  0.00  0.00    +0.000 OA
BRANCH  16  20
ATOM     17  C   UNL     1      48.508   6.786  17.470  0.00  0.00    +0.000 A 
ATOM     18  C   UNL     1      48.992   7.989  16.958  0.00  0.00    +0.000 A 
ATOM     19  C   UNL     1      49.350   8.058  15.618  0.00  0.00    +0.000 A 
ATOM     20  C   UNL     1      49.229   6.917  14.846  0.00  0.00    +0.000 A 
ATOM     21  N   UNL     1      48.717   5.752  15.302  0.00  0.00    +0.000 NA
ATOM     22  C   UNL     1      48.377   5.712  16.608  0.00  0.00    +0.000 A 
ENDBRANCH  16  20
ENDBRANCH  13  16
ENDBRANCH   1  13
TORSDOF 4
ENDMDL
MODEL 7
REMARK VINA RESULT:    -5.756      3.593      7.409
REMARK INTER + INTRA:          -7.843
REMARK INTER:                  -7.047
REMARK INTRA:                  -0.796
REMARK UNBOUND:                -0.741
REMARK  Name = 
REMARK  4 active torsions:
REMARK  status: ('A' for Active; 'I' for Inactive)
REMARK    1  A    between atoms: C_4  and  O_5
REMARK    2  A    between atoms: O_5  and  C_6
REMARK    3  A    between atoms: C_6  and  C_7
REMARK    4  A    between atoms: C_11  and  C_12
REMARK                            x       y       z     vdW  Elec       q    Type
REMARK                         _______ _______ _______ _____ _____    ______ ____
ROOT
ATOM      1  C   UNL     1      48.210   7.558  14.220  0.00  0.00    +0.000 A 
ATOM      2  C   UNL     1      47.636   8.818  13.978  0.00  0.00    +0.000 A 
ATOM      3  C   UNL     1      46.474   8.966  13.226  0.00  0.00    +0.000 A 
ATOM      4  C   UNL     1      45.866   7.846  12.668  0.00  0.00    +0.000 A 
ATOM      5  C   UNL     1      46.390   6.560  12.871  0.00  0.00    +0.000 A 
ATOM      6  C   UNL     1      47.539   6.445  13.684  0.00  0.00    +0.000 A 
ENDROOT
BRANCH   5   7
ATOM      7  C   UNL     1      45.816   5.378  12.203  0.00  0.00    +0.000 A 
ATOM      8  C   UNL     1      45.366   5.410  10.875  0.00  0.00    +0.000 A 
ATOM      9  C   UNL     1      44.772   4.289  10.299  0.00  0.00    +0.000 A 
ATOM     10  C   UNL     1      44.651   3.143  11.064  0.00  0.00    +0.000 A 
ATOM     11  N   UNL     1      45.074   3.050  12.340  0.00  0.00    +0.000 NA
ATOM     12  C   UNL     1      45.636   4.164  12.874  0.00  0.00    +0.000 A 
ENDBRANCH   5   7
BRANCH   1  13
ATOM     13  C   UNL     1      49.552   7.430  14.935  0.00  0.00    +0.000 C 
ATOM     14  C   UNL     1      50.837   7.830  14.212  0.00  0.00    +0.000 C 
ATOM     15  C   UNL     1      50.273   8.719  15.269  0.00  0.00    +0.000 C 
BRANCH  13  16
ATOM     16  O   UNL     1      49.785   6.254  15.755  0.00  0.00    +0.000 OA
BRANCH  16  20
ATOM     17  C   UNL     1      47.147   5.674  18.847  0.00  0.00    +0.000 A 
ATOM     18  C   UNL     1      47.268   4.709  17.847  0.00  0.00    +0.000 A 
ATOM     19  C   UNL     1      48.184   4.906  16.823  0.00  0.00    +0.000 A 
ATOM     20  C   UNL     1      48.932   6.070  16.826  0.00  0.00    +0.000 A 
ATOM     21  N   UNL     1      48.873   6.999  17.807  0.00  0.00    +0.000 NA
ATOM     22  C   UNL     1      47.974   6.781  18.790  0.00  0.00    +0.000 A 
ENDBRANCH  16  20
ENDBRANCH  13  16
ENDBRANCH   1  13
TORSDOF 4
ENDMDL
MODEL 8
REMARK VINA RESULT:    -5.681      4.671      7.639
REMARK INTER + INTRA:          -7.750
REMARK INTER:                  -7.374
REMARK INTRA:                  -0.376
REMARK UNBOUND:                -0.741
REMARK  Name = 
REMARK  4 active torsions:
REMARK  status: ('A' for Active; 'I' for Inactive)
REMARK    1  A    between atoms: C_4  and  O_5
REMARK    2  A    between atoms: O_5  and  C_6
REMARK    3  A    between atoms: C_6  and  C_7
REMARK    4  A    between atoms: C_11  and  C_12
REMARK                            x       y       z     vdW  Elec       q    Type
REMARK                         _______ _______ _______ _____ _____    ______ ____
ROOT
ATOM      1  C   UNL     1      48.813   6.314  15.865  0.00  0.00    +0.000 A 
ATOM      2  C   UNL     1      49.689   7.195  15.208  0.00  0.00    +0.000 A 
ATOM      3  C   UNL     1      49.561   7.486  13.853  0.00  0.00    +0.000 A 
ATOM      4  C   UNL     1      48.558   6.875  13.106  0.00  0.00    +0.000 A 
ATOM      5  C   UNL     1      47.653   5.984  13.703  0.00  0.00    +0.000 A 
ATOM      6  C   UNL     1      47.781   5.756  15.091  0.00  0.00    +0.000 A 
ENDROOT
BRANCH   5   7
ATOM      7  C   UNL     1      46.652   5.252  12.907  0.00  0.00    +0.000 A 
ATOM      8  C   UNL     1      46.046   5.805  11.770  0.00  0.00    +0.000 A 
ATOM      9  C   UNL     1      45.058   5.105  11.079  0.00  0.00    +0.000 A 
ATOM     10  C   UNL     1      44.703   3.848  11.534  0.00  0.00    +0.000 A 
ATOM     11  N   UNL     1      45.258   3.262  12.613  0.00  0.00    +0.000 NA
ATOM     12  C   UNL     1      46.207   3.976  13.269  0.00  0.00    +0.000 A 
ENDBRANCH   5   7
BRANCH   1  13
ATOM     13  C   UNL     1      49.049   5.909  17.317  0.00  0.00    +0.000 C 
ATOM     14  C   UNL     1      48.374   6.693  18.441  0.00  0.00    +0.000 C 
ATOM     15  C   UNL     1      47.863   5.342  18.069  0.00  0.00    +0.000 C 
BRANCH  13  16
ATOM     16  O   UNL     1      50.391   5.521  17.714  0.00  0.00    +0.000 OA
BRANCH  16  20
ATOM     17  C   UNL     1      51.446   1.572  17.340  0.00  0.00    +0.000 A 
ATOM     18  C   UNL     1      52.322   2.470  17.950  0.00  0.00    +0.000 A 
ATOM     19  C   UNL     1      51.939   3.797  18.095  0.00  0.00    +0.000 A 
ATOM     20  C   UNL     1      50.704   4.180  17.606  0.00  0.00    +0.000 A 
ATOM     21  N   UNL     1      49.814   3.324  17.056  0.00  0.00    +0.000 NA
ATOM     22  C   UNL     1      50.211   2.041  16.928  0.00  0.00    +0.000 A 
ENDBRANCH  16  20
ENDBRANCH  13  16
ENDBRANCH   1  13
TORSDOF 4
ENDMDL
MODEL 9
REMARK VINA RESULT:    -5.634      3.790      7.290
REMARK INTER + INTRA:          -7.693
REMARK INTER:                  -7.131
REMARK INTRA:                  -0.561
REMARK UNBOUND:                -0.741
REMARK  Name = 
REMARK  4 active torsions:
REMARK  status: ('A' for Active; 'I' for Inactive)
REMARK    1  A    between atoms: C_4  and  O_5
REMARK    2  A    between atoms: O_5  and  C_6
REMARK    3  A    between atoms: C_6  and  C_7
REMARK    4  A    between atoms: C_11  and  C_12
REMARK                            x       y       z     vdW  Elec       q    Type
REMARK                         _______ _______ _______ _____ _____    ______ ____
ROOT
ATOM      1  C   UNL     1      48.589   7.224  14.082  0.00  0.00    +0.000 A 
ATOM      2  C   UNL     1      49.261   7.781  12.980  0.00  0.00    +0.000 A 
ATOM      3  C   UNL     1      48.774   7.658  11.682  0.00  0.00    +0.000 A 
ATOM      4  C   UNL     1      47.604   6.944  11.447  0.00  0.00    +0.000 A 
ATOM      5  C   UNL     1      46.887   6.362  12.504  0.00  0.00    +0.000 A 
ATOM      6  C   UNL     1      47.382   6.554  13.813  0.00  0.00    +0.000 A 
ENDROOT
BRANCH   5   7
ATOM      7  C   UNL     1      45.703   5.517  12.262  0.00  0.00    +0.000 A 
ATOM      8  C   UNL     1      45.013   5.525  11.041  0.00  0.00    +0.000 A 
ATOM      9  C   UNL     1      43.862   4.758  10.872  0.00  0.00    +0.000 A 
ATOM     10  C   UNL     1      43.427   3.981  11.930  0.00  0.00    +0.000 A 
ATOM     11  N   UNL     1      44.055   3.925  13.121  0.00  0.00    +0.000 NA
ATOM     12  C   UNL     1      45.166   4.694  13.256  0.00  0.00    +0.000 A 
ENDBRANCH   5   7
BRANCH   1  13
ATOM     13  C   UNL     1      49.205   7.258  15.478  0.00  0.00    +0.000 C 
ATOM     14  C   UNL     1      49.807   8.559  16.007  0.00  0.00    +0.000 C 
ATOM     15  C   UNL     1      48.487   8.090  16.520  0.00  0.00    +0.000 C 
BRANCH  13  16
ATOM     16  O   UNL     1      50.007   6.125  15.904  0.00  0.00    +0.000 OA
BRANCH  16  20
ATOM     17  C   UNL     1      48.311   3.382  18.444  0.00  0.00    +0.000 A 
ATOM     18  C   UNL     1      49.295   4.251  18.917  0.00  0.00    +0.000 A 
ATOM     19  C   UNL     1      49.839   5.192  18.053  0.00  0.00    +0.000 A 
ATOM     20  C   UNL     1      49.393   5.216  16.744  0.00  0.00    +0.000 A 
ATOM     21  N   UNL     1      48.408   4.421  16.270  0.00  0.00    +0.000 NA
ATOM     22  C   UNL     1      47.896   3.516  17.131  0.00  0.00    +0.000 A 
ENDBRANCH  16  20
ENDBRANCH  13  16
ENDBRANCH   1  13
TORSDOF 4
ENDMDL
