MODEL 1
REMARK VINA RESULT:    -7.585      0.000      0.000
REMARK INTER + INTRA:         -11.823
REMARK INTER:                 -10.689
REMARK INTRA:                  -1.134
REMARK UNBOUND:                -1.134
REMARK  Name = 
REMARK  8 active torsions:
REMARK  status: ('A' for Active; 'I' for Inactive)
REMARK    1  A    between atoms: C_1  and  C_2
REMARK    2  A    between atoms: C_2  and  N_3
REMARK    3  A    between atoms: C_2  and  C_18
REMARK    4  A    between atoms: N_3  and  C_4
REMARK    5  A    between atoms: C_7  and  C_8
REMARK    6  A    between atoms: C_8  and  N_9
REMARK    7  A    between atoms: N_9  and  C_10
REMARK    8  A    between atoms: C_18  and  C_20
REMARK                            x       y       z     vdW  Elec       q    Type
REMARK                         _______ _______ _______ _____ _____    ______ ____
ROOT
ATOM      1  N   UNL     1      47.245   6.401  14.272  0.00  0.00    +0.000 N 
ATOM      2  H   UNL     1      47.284   5.717  15.035  0.00  0.00    +0.000 HD
ENDROOT
BRANCH   1   3
ATOM      3  C   UNL     1      46.540   5.910  13.177  0.00  0.00    +0.000 A 
ATOM      4  C   UNL     1      46.487   6.529  11.926  0.00  0.00    +0.000 A 
ATOM      5  C   UNL     1      45.732   5.982  10.878  0.00  0.00    +0.000 A 
ATOM      6  C   UNL     1      45.023   4.785  11.050  0.00  0.00    +0.000 A 
ATOM      7  C   UNL     1      45.161   4.109  12.266  0.00  0.00    +0.000 A 
ATOM      8  C   UNL     1      45.919   4.662  13.307  0.00  0.00    +0.000 A 
BRANCH   6   9
ATOM      9  C   UNL     1      44.098   4.260   9.975  0.00  0.00    +0.000 C 
BRANCH   9  10
ATOM     10  N   UNL     1      44.692   4.387   8.652  0.00  0.00    +0.000 N 
ATOM     11  H   UNL     1      44.031   4.675   7.936  0.00  0.00    +0.000 HD
BRANCH  10  12
ATOM     12  C   UNL     1      45.580   3.402   8.210  0.00  0.00    +0.000 A 
ATOM     13  C   UNL     1      46.525   3.543   7.204  0.00  0.00    +0.000 A 
ATOM     14  N   UNL     1      47.337   2.562   6.746  0.00  0.00    +0.000 NA
ATOM     15  C   UNL     1      47.160   1.359   7.305  0.00  0.00    +0.000 A 
ATOM     16  N   UNL     1      46.261   1.060   8.251  0.00  0.00    +0.000 NA
ATOM     17  C   UNL     1      45.484   2.091   8.661  0.00  0.00    +0.000 A 
ENDBRANCH  10  12
ENDBRANCH   9  10
ENDBRANCH   6   9
ENDBRANCH   1   3
BRANCH   1  19
ATOM     18  C   UNL     1      48.245   8.593  13.967  0.00  0.00    +0.000 C 
ATOM     19  C   UNL     1      48.539   7.098  14.099  0.00  0.00    +0.000 C 
BRANCH  19  20
ATOM     20  C   UNL     1      49.413   6.907  15.355  0.00  0.00    +0.000 C 
ATOM     21  O   UNL     1      50.641   6.845  15.241  0.00  0.00    +0.000 OA
BRANCH  20  22
ATOM     22  C   UNL     1      48.812   6.885  16.693  0.00  0.00    +0.000 A 
ATOM     23  C   UNL     1      48.507   7.999  17.457  0.00  0.00    +0.000 A 
ATOM     24  S   UNL     1      48.246   7.604  19.107  0.00  0.00    +0.000 S 
ATOM     25  C   UNL     1      48.425   5.939  18.799  0.00  0.00    +0.000 A 
ATOM     26  N   UNL     1      48.419   5.011  19.794  0.00  0.00    +0.000 NA
ATOM     27  C   UNL     1      48.505   3.789  19.376  0.00  0.00    +0.000 A 
ATOM     28  N   UNL     1      48.544   3.409  18.056  0.00  0.00    +0.000 N 
ATOM     29  C   UNL     1      48.471   4.311  17.019  0.00  0.00    +0.000 A 
ATOM     30  O   UNL     1      48.246   3.957  15.867  0.00  0.00    +0.000 OA
ATOM     31  C   UNL     1      48.546   5.693  17.449  0.00  0.00    +0.000 A 
ATOM     32  H   UNL     1      48.477   2.435  17.798  0.00  0.00    +0.000 HD
ENDBRANCH  20  22
ENDBRANCH  19  20
ENDBRANCH   1  19
TORSDOF 7
ENDMDL
MODEL 2
REMARK VINA RESULT:    -7.471      1.774      2.181
REMARK INTER + INTRA:         -11.662
REMARK INTER:                 -11.064
REMARK INTRA:                  -0.598
REMARK UNBOUND:                -1.134
REMARK  Name = 
REMARK  8 active torsions:
REMARK  status: ('A' for Active; 'I' for Inactive)
REMARK    1  A    between atoms: C_1  and  C_2
REMARK    2  A    between atoms: C_2  and  N_3
REMARK    3  A    between atoms: C_2  and  C_18
REMARK    4  A    between atoms: N_3  and  C_4
REMARK    5  A    between atoms: C_7  and  C_8
REMARK    6  A    between atoms: C_8  and  N_9
REMARK    7  A    between atoms: N_9  and  C_10
REMARK    8  A    between atoms: C_18  and  C_20
REMARK                            x       y       z     vdW  Elec       q    Type
REMARK                         _______ _______ _______ _____ _____    ______ ____
ROOT
ATOM      1  N   UNL     1      46.565   5.782  14.269  0.00  0.00    +0.000 N 
ATOM      2  H   UNL     1      45.819   5.764  14.973  0.00  0.00    +0.000 HD
ENDROOT
BRANCH   1   3
ATOM      3  C   UNL     1      46.097   5.398  13.015  0.00  0.00    +0.000 A 
ATOM      4  C   UNL     1      46.129   6.207  11.877  0.00  0.00    +0.000 A 
ATOM      5  C   UNL     1      45.614   5.755  10.652  0.00  0.00    +0.000 A 
ATOM      6  C   UNL     1      45.070   4.469  10.531  0.00  0.00    +0.000 A 
ATOM      7  C   UNL     1      45.135   3.621  11.641  0.00  0.00    +0.000 A 
ATOM      8  C   UNL     1      45.653   4.080  12.859  0.00  0.00    +0.000 A 
BRANCH   6   9
ATOM      9  C   UNL     1      44.388   4.023   9.257  0.00  0.00    +0.000 C 
BRANCH   9  10
ATOM     10  N   UNL     1      45.281   4.126   8.111  0.00  0.00    +0.000 N 
ATOM     11  H   UNL     1      44.876   4.627   7.325  0.00  0.00    +0.000 HD
BRANCH  10  12
ATOM     12  C   UNL     1      46.015   3.002   7.721  0.00  0.00    +0.000 A 
ATOM     13  C   UNL     1      46.835   2.907   6.605  0.00  0.00    +0.000 A 
ATOM     14  N   UNL     1      47.492   1.793   6.207  0.00  0.00    +0.000 NA
ATOM     15  C   UNL     1      47.282   0.701   6.952  0.00  0.00    +0.000 A 
ATOM     16  N   UNL     1      46.486   0.628   8.026  0.00  0.00    +0.000 NA
ATOM     17  C   UNL     1      45.862   1.781   8.366  0.00  0.00    +0.000 A 
ENDBRANCH  10  12
ENDBRANCH   9  10
ENDBRANCH   6   9
ENDBRANCH   1   3
BRANCH   1  19
ATOM     18  C   UNL     1      48.696   6.437  15.232  0.00  0.00    +0.000 C 
ATOM     19  C   UNL     1      47.835   5.246  14.808  0.00  0.00    +0.000 C 
BRANCH  19  20
ATOM     20  C   UNL     1      47.559   4.403  16.070  0.00  0.00    +0.000 C 
ATOM     21  O   UNL     1      46.663   3.554  16.053  0.00  0.00    +0.000 OA
BRANCH  20  22
ATOM     22  C   UNL     1      48.403   4.536  17.262  0.00  0.00    +0.000 A 
ATOM     23  C   UNL     1      48.241   5.480  18.262  0.00  0.00    +0.000 A 
ATOM     24  S   UNL     1      49.640   5.633  19.245  0.00  0.00    +0.000 S 
ATOM     25  C   UNL     1      50.430   4.368  18.423  0.00  0.00    +0.000 A 
ATOM     26  N   UNL     1      51.719   4.025  18.684  0.00  0.00    +0.000 NA
ATOM     27  C   UNL     1      52.141   3.004  18.010  0.00  0.00    +0.000 A 
ATOM     28  N   UNL     1      51.376   2.265  17.140  0.00  0.00    +0.000 N 
ATOM     29  C   UNL     1      50.045   2.528  16.910  0.00  0.00    +0.000 A 
ATOM     30  O   UNL     1      49.313   1.724  16.345  0.00  0.00    +0.000 OA
ATOM     31  C   UNL     1      49.588   3.764  17.514  0.00  0.00    +0.000 A 
ATOM     32  H   UNL     1      51.727   1.402  16.750  0.00  0.00    +0.000 HD
ENDBRANCH  20  22
ENDBRANCH  19  20
ENDBRANCH   1  19
TORSDOF 7
ENDMDL
MODEL 3
REMARK VINA RESULT:    -7.032      3.145      5.196
REMARK INTER + INTRA:         -11.043
REMARK INTER:                  -9.817
REMARK INTRA:                  -1.227
REMARK UNBOUND:                -1.134
REMARK  Name = 
REMARK  8 active torsions:
REMARK  status: ('A' for Active; 'I' for Inactive)
REMARK    1  A    between atoms: C_1  and  C_2
REMARK    2  A    between atoms: C_2  and  N_3
REMARK    3  A    between atoms: C_2  and  C_18
REMARK    4  A    between atoms: N_3  and  C_4
REMARK    5  A    between atoms: C_7  and  C_8
REMARK    6  A    between atoms: C_8  and  N_9
REMARK    7  A    between atoms: N_9  and  C_10
REMARK    8  A    between atoms: C_18  and  C_20
REMARK                            x       y       z     vdW  Elec       q    Type
REMARK                         _______ _______ _______ _____ _____    ______ ____
ROOT
ATOM      1  N   UNL     1      48.338   6.721  13.069  0.00  0.00    +0.000 N 
ATOM      2  H   UNL     1      48.822   7.325  12.396  0.00  0.00    +0.000 HD
ENDROOT
BRANCH   1   3
ATOM      3  C   UNL     1      47.206   6.134  12.510  0.00  0.00    +0.000 A 
ATOM      4  C   UNL     1      46.383   5.216  13.168  0.00  0.00    +0.000 A 
ATOM      5  C   UNL     1      45.272   4.650  12.526  0.00  0.00    +0.000 A 
ATOM      6  C   UNL     1      44.943   5.004  11.210  0.00  0.00    +0.000 A 
ATOM      7  C   UNL     1      45.702   6.001  10.588  0.00  0.00    +0.000 A 
ATOM      8  C   UNL     1      46.809   6.562  11.239  0.00  0.00    +0.000 A 
BRANCH   6   9
ATOM      9  C   UNL     1      43.833   4.299  10.462  0.00  0.00    +0.000 C 
BRANCH   9  10
ATOM     10  N   UNL     1      44.099   4.254   9.031  0.00  0.00    +0.000 N 
ATOM     11  H   UNL     1      43.257   4.239   8.462  0.00  0.00    +0.000 HD
BRANCH  10  12
ATOM     12  C   UNL     1      45.095   3.397   8.554  0.00  0.00    +0.000 A 
ATOM     13  C   UNL     1      46.082   3.722   7.634  0.00  0.00    +0.000 A 
ATOM     14  N   UNL     1      47.003   2.864   7.136  0.00  0.00    +0.000 NA
ATOM     15  C   UNL     1      46.901   1.598   7.558  0.00  0.00    +0.000 A 
ATOM     16  N   UNL     1      45.977   1.128   8.405  0.00  0.00    +0.000 NA
ATOM     17  C   UNL     1      45.090   2.042   8.863  0.00  0.00    +0.000 A 
ENDBRANCH  10  12
ENDBRANCH   9  10
ENDBRANCH   6   9
ENDBRANCH   1   3
BRANCH   1  19
ATOM     18  C   UNL     1      49.557   6.891  15.162  0.00  0.00    +0.000 C 
ATOM     19  C   UNL     1      48.297   7.331  14.416  0.00  0.00    +0.000 C 
BRANCH  19  20
ATOM     20  C   UNL     1      48.341   8.869  14.301  0.00  0.00    +0.000 C 
ATOM     21  O   UNL     1      48.456   9.554  15.321  0.00  0.00    +0.000 OA
BRANCH  20  22
ATOM     22  C   UNL     1      48.335   9.524  12.989  0.00  0.00    +0.000 A 
ATOM     23  C   UNL     1      49.455   9.815  12.229  0.00  0.00    +0.000 A 
ATOM     24  S   UNL     1      49.124  10.962  10.994  0.00  0.00    +0.000 S 
ATOM     25  C   UNL     1      47.467  10.995  11.386  0.00  0.00    +0.000 A 
ATOM     26  N   UNL     1      46.595  11.846  10.783  0.00  0.00    +0.000 NA
ATOM     27  C   UNL     1      45.365  11.694  11.158  0.00  0.00    +0.000 A 
ATOM     28  N   UNL     1      44.923  10.737  12.039  0.00  0.00    +0.000 N 
ATOM     29  C   UNL     1      45.760   9.805  12.608  0.00  0.00    +0.000 A 
ATOM     30  O   UNL     1      45.330   8.809  13.178  0.00  0.00    +0.000 OA
ATOM     31  C   UNL     1      47.164  10.052  12.345  0.00  0.00    +0.000 A 
ATOM     32  H   UNL     1      43.935  10.587  12.185  0.00  0.00    +0.000 HD
ENDBRANCH  20  22
ENDBRANCH  19  20
ENDBRANCH   1  19
TORSDOF 7
ENDMDL
MODEL 4
REMARK VINA RESULT:    -6.981      2.945      4.013
REMARK INTER + INTRA:         -10.972
REMARK INTER:                  -9.318
REMARK INTRA:                  -1.654
REMARK UNBOUND:                -1.134
REMARK  Name = 
REMARK  8 active torsions:
REMARK  status: ('A' for Active; 'I' for Inactive)
REMARK    1  A    between atoms: C_1  and  C_2
REMARK    2  A    between atoms: C_2  and  N_3
REMARK    3  A    between atoms: C_2  and  C_18
REMARK    4  A    between atoms: N_3  and  C_4
REMARK    5  A    between atoms: C_7  and  C_8
REMARK    6  A    between atoms: C_8  and  N_9
REMARK    7  A    between atoms: N_9  and  C_10
REMARK    8  A    between atoms: C_18  and  C_20
REMARK                            x       y       z     vdW  Elec       q    Type
REMARK                         _______ _______ _______ _____ _____    ______ ____
ROOT
ATOM      1  N   UNL     1      49.618   8.027  15.551  0.00  0.00    +0.000 N 
ATOM      2  H   UNL     1      49.276   8.189  16.504  0.00  0.00    +0.000 HD
ENDROOT
BRANCH   1   3
ATOM      3  C   UNL     1      48.574   7.764  14.668  0.00  0.00    +0.000 A 
ATOM      4  C   UNL     1      48.199   6.487  14.245  0.00  0.00    +0.000 A 
ATOM      5  C   UNL     1      47.149   6.306  13.332  0.00  0.00    +0.000 A 
ATOM      6  C   UNL     1      46.432   7.403  12.832  0.00  0.00    +0.000 A 
ATOM      7  C   UNL     1      46.736   8.671  13.337  0.00  0.00    +0.000 A 
ATOM      8  C   UNL     1      47.785   8.841  14.250  0.00  0.00    +0.000 A 
BRANCH   6   9
ATOM      9  C   UNL     1      45.393   7.232  11.747  0.00  0.00    +0.000 C 
BRANCH   9  10
ATOM     10  N   UNL     1      44.135   6.734  12.285  0.00  0.00    +0.000 N 
ATOM     11  H   UNL     1      43.915   7.101  13.207  0.00  0.00    +0.000 HD
BRANCH  10  12
ATOM     12  C   UNL     1      43.831   5.376  12.152  0.00  0.00    +0.000 A 
ATOM     13  C   UNL     1      43.824   4.435  13.172  0.00  0.00    +0.000 A 
ATOM     14  N   UNL     1      43.586   3.112  13.017  0.00  0.00    +0.000 NA
ATOM     15  C   UNL     1      43.382   2.705  11.758  0.00  0.00    +0.000 A 
ATOM     16  N   UNL     1      43.403   3.486  10.671  0.00  0.00    +0.000 NA
ATOM     17  C   UNL     1      43.645   4.799  10.902  0.00  0.00    +0.000 A 
ENDBRANCH  10  12
ENDBRANCH   9  10
ENDBRANCH   6   9
ENDBRANCH   1   3
BRANCH   1  19
ATOM     18  C   UNL     1      52.013   8.118  15.160  0.00  0.00    +0.000 C 
ATOM     19  C   UNL     1      50.849   7.206  15.547  0.00  0.00    +0.000 C 
BRANCH  19  20
ATOM     20  C   UNL     1      51.132   6.671  16.966  0.00  0.00    +0.000 C 
ATOM     21  O   UNL     1      51.603   7.427  17.820  0.00  0.00    +0.000 OA
BRANCH  20  22
ATOM     22  C   UNL     1      50.767   5.300  17.340  0.00  0.00    +0.000 A 
ATOM     23  C   UNL     1      51.649   4.242  17.476  0.00  0.00    +0.000 A 
ATOM     24  S   UNL     1      50.848   2.723  17.475  0.00  0.00    +0.000 S 
ATOM     25  C   UNL     1      49.316   3.464  17.409  0.00  0.00    +0.000 A 
ATOM     26  N   UNL     1      48.167   2.748  17.284  0.00  0.00    +0.000 NA
ATOM     27  C   UNL     1      47.091   3.467  17.310  0.00  0.00    +0.000 A 
ATOM     28  N   UNL     1      47.058   4.826  17.502  0.00  0.00    +0.000 N 
ATOM     29  C   UNL     1      48.191   5.577  17.714  0.00  0.00    +0.000 A 
ATOM     30  O   UNL     1      48.139   6.726  18.137  0.00  0.00    +0.000 OA
ATOM     31  C   UNL     1      49.420   4.834  17.520  0.00  0.00    +0.000 A 
ATOM     32  H   UNL     1      46.180   5.305  17.646  0.00  0.00    +0.000 HD
ENDBRANCH  20  22
ENDBRANCH  19  20
ENDBRANCH   1  19
TORSDOF 7
ENDMDL
MODEL 5
REMARK VINA RESULT:    -6.610      1.864      2.244
REMARK INTER + INTRA:         -10.450
REMARK INTER:                  -9.246
REMARK INTRA:                  -1.204
REMARK UNBOUND:                -1.134
REMARK  Name = 
REMARK  8 active torsions:
REMARK  status: ('A' for Active; 'I' for Inactive)
REMARK    1  A    between atoms: C_1  and  C_2
REMARK    2  A    between atoms: C_2  and  N_3
REMARK    3  A    between atoms: C_2  and  C_18
REMARK    4  A    between atoms: N_3  and  C_4
REMARK    5  A    between atoms: C_7  and  C_8
REMARK    6  A    between atoms: C_8  and  N_9
REMARK    7  A    between atoms: N_9  and  C_10
REMARK    8  A    between atoms: C_18  and  C_20
REMARK                            x       y       z     vdW  Elec       q    Type
REMARK                         _______ _______ _______ _____ _____    ______ ____
ROOT
ATOM      1  N   UNL     1      48.269   7.811  13.701  0.00  0.00    +0.000 N 
ATOM      2  H   UNL     1      47.956   8.655  14.193  0.00  0.00    +0.000 HD
ENDROOT
BRANCH   1   3
ATOM      3  C   UNL     1      47.195   7.029  13.288  0.00  0.00    +0.000 A 
ATOM      4  C   UNL     1      47.165   5.633  13.339  0.00  0.00    +0.000 A 
ATOM      5  C   UNL     1      46.052   4.914  12.879  0.00  0.00    +0.000 A 
ATOM      6  C   UNL     1      44.926   5.578  12.372  0.00  0.00    +0.000 A 
ATOM      7  C   UNL     1      44.910   6.976  12.420  0.00  0.00    +0.000 A 
ATOM      8  C   UNL     1      46.027   7.685  12.883  0.00  0.00    +0.000 A 
BRANCH   6   9
ATOM      9  C   UNL     1      43.780   4.814  11.748  0.00  0.00    +0.000 C 
BRANCH   9  10
ATOM     10  N   UNL     1      43.795   4.922  10.296  0.00  0.00    +0.000 N 
ATOM     11  H   UNL     1      42.874   5.054   9.889  0.00  0.00    +0.000 HD
BRANCH  10  12
ATOM     12  C   UNL     1      44.596   4.043   9.560  0.00  0.00    +0.000 A 
ATOM     13  C   UNL     1      45.484   4.394   8.553  0.00  0.00    +0.000 A 
ATOM     14  N   UNL     1      46.208   3.526   7.808  0.00  0.00    +0.000 NA
ATOM     15  C   UNL     1      45.998   2.229   8.065  0.00  0.00    +0.000 A 
ATOM     16  N   UNL     1      45.143   1.740   8.972  0.00  0.00    +0.000 NA
ATOM     17  C   UNL     1      44.454   2.666   9.680  0.00  0.00    +0.000 A 
ENDBRANCH  10  12
ENDBRANCH   9  10
ENDBRANCH   6   9
ENDBRANCH   1   3
BRANCH   1  19
ATOM     18  C   UNL     1      50.667   8.057  13.999  0.00  0.00    +0.000 C 
ATOM     19  C   UNL     1      49.449   7.205  14.358  0.00  0.00    +0.000 C 
BRANCH  19  20
ATOM     20  C   UNL     1      49.284   7.255  15.891  0.00  0.00    +0.000 C 
ATOM     21  O   UNL     1      48.454   8.020  16.390  0.00  0.00    +0.000 OA
BRANCH  20  22
ATOM     22  C   UNL     1      50.039   6.344  16.758  0.00  0.00    +0.000 A 
ATOM     23  C   UNL     1      51.245   6.633  17.372  0.00  0.00    +0.000 A 
ATOM     24  S   UNL     1      52.047   5.219  17.927  0.00  0.00    +0.000 S 
ATOM     25  C   UNL     1      50.747   4.225  17.458  0.00  0.00    +0.000 A 
ATOM     26  N   UNL     1      50.798   2.869  17.550  0.00  0.00    +0.000 NA
ATOM     27  C   UNL     1      49.701   2.275  17.208  0.00  0.00    +0.000 A 
ATOM     28  N   UNL     1      48.544   2.913  16.832  0.00  0.00    +0.000 N 
ATOM     29  C   UNL     1      48.425   4.283  16.803  0.00  0.00    +0.000 A 
ATOM     30  O   UNL     1      47.335   4.838  16.722  0.00  0.00    +0.000 OA
ATOM     31  C   UNL     1      49.680   4.977  17.015  0.00  0.00    +0.000 A 
ATOM     32  H   UNL     1      47.686   2.395  16.707  0.00  0.00    +0.000 HD
ENDBRANCH  20  22
ENDBRANCH  19  20
ENDBRANCH   1  19
TORSDOF 7
ENDMDL
MODEL 6
REMARK VINA RESULT:    -6.565      3.079      7.682
REMARK INTER + INTRA:         -10.385
REMARK INTER:                  -8.835
REMARK INTRA:                  -1.550
REMARK UNBOUND:                -1.134
REMARK  Name = 
REMARK  8 active torsions:
REMARK  status: ('A' for Active; 'I' for Inactive)
REMARK    1  A    between atoms: C_1  and  C_2
REMARK    2  A    between atoms: C_2  and  N_3
REMARK    3  A    between atoms: C_2  and  C_18
REMARK    4  A    between atoms: N_3  and  C_4
REMARK    5  A    between atoms: C_7  and  C_8
REMARK    6  A    between atoms: C_8  and  N_9
REMARK    7  A    between atoms: N_9  and  C_10
REMARK    8  A    between atoms: C_18  and  C_20
REMARK                            x       y       z     vdW  Elec       q    Type
REMARK                         _______ _______ _______ _____ _____    ______ ____
ROOT
ATOM      1  N   UNL     1      48.122   9.447  13.812  0.00  0.00    +0.000 N 
ATOM      2  H   UNL     1      48.852   9.689  13.133  0.00  0.00    +0.000 HD
ENDROOT
BRANCH   1   3
ATOM      3  C   UNL     1      48.653   8.819  14.935  0.00  0.00    +0.000 A 
ATOM      4  C   UNL     1      49.755   7.961  14.915  0.00  0.00    +0.000 A 
ATOM      5  C   UNL     1      50.215   7.346  16.089  0.00  0.00    +0.000 A 
ATOM      6  C   UNL     1      49.592   7.590  17.321  0.00  0.00    +0.000 A 
ATOM      7  C   UNL     1      48.558   8.530  17.360  0.00  0.00    +0.000 A 
ATOM      8  C   UNL     1      48.107   9.141  16.182  0.00  0.00    +0.000 A 
BRANCH   6   9
ATOM      9  C   UNL     1      49.991   6.829  18.566  0.00  0.00    +0.000 C 
BRANCH   9  10
ATOM     10  N   UNL     1      48.940   5.914  18.991  0.00  0.00    +0.000 N 
ATOM     11  H   UNL     1      49.011   5.639  19.966  0.00  0.00    +0.000 HD
BRANCH  10  12
ATOM     12  C   UNL     1      48.582   4.856  18.150  0.00  0.00    +0.000 A 
ATOM     13  C   UNL     1      47.289   4.481  17.811  0.00  0.00    +0.000 A 
ATOM     14  N   UNL     1      46.957   3.417  17.045  0.00  0.00    +0.000 NA
ATOM     15  C   UNL     1      47.981   2.663  16.627  0.00  0.00    +0.000 A 
ATOM     16  N   UNL     1      49.272   2.873  16.909  0.00  0.00    +0.000 NA
ATOM     17  C   UNL     1      49.531   3.957  17.680  0.00  0.00    +0.000 A 
ENDBRANCH  10  12
ENDBRANCH   9  10
ENDBRANCH   6   9
ENDBRANCH   1   3
BRANCH   1  19
ATOM     18  C   UNL     1      46.446   9.977  12.136  0.00  0.00    +0.000 C 
ATOM     19  C   UNL     1      46.910   8.924  13.144  0.00  0.00    +0.000 C 
BRANCH  19  20
ATOM     20  C   UNL     1      47.253   7.646  12.352  0.00  0.00    +0.000 C 
ATOM     21  O   UNL     1      48.096   7.693  11.452  0.00  0.00    +0.000 OA
BRANCH  20  22
ATOM     22  C   UNL     1      46.654   6.356  12.711  0.00  0.00    +0.000 A 
ATOM     23  C   UNL     1      47.184   5.443  13.605  0.00  0.00    +0.000 A 
ATOM     24  S   UNL     1      46.475   3.887  13.444  0.00  0.00    +0.000 S 
ATOM     25  C   UNL     1      45.380   4.442  12.265  0.00  0.00    +0.000 A 
ATOM     26  N   UNL     1      44.530   3.606  11.611  0.00  0.00    +0.000 NA
ATOM     27  C   UNL     1      43.726   4.205  10.793  0.00  0.00    +0.000 A 
ATOM     28  N   UNL     1      43.660   5.564  10.607  0.00  0.00    +0.000 N 
ATOM     29  C   UNL     1      44.446   6.450  11.307  0.00  0.00    +0.000 A 
ATOM     30  O   UNL     1      44.206   7.652  11.330  0.00  0.00    +0.000 OA
ATOM     31  C   UNL     1      45.472   5.808  12.104  0.00  0.00    +0.000 A 
ATOM     32  H   UNL     1      42.921   5.974  10.054  0.00  0.00    +0.000 HD
ENDBRANCH  20  22
ENDBRANCH  19  20
ENDBRANCH   1  19
TORSDOF 7
ENDMDL
MODEL 7
REMARK VINA RESULT:    -6.417      3.388      8.216
REMARK INTER + INTRA:         -10.176
REMARK INTER:                  -9.125
REMARK INTRA:                  -1.052
REMARK UNBOUND:                -1.134
REMARK  Name = 
REMARK  8 active torsions:
REMARK  status: ('A' for Active; 'I' for Inactive)
REMARK    1  A    between atoms: C_1  and  C_2
REMARK    2  A    between atoms: C_2  and  N_3
REMARK    3  A    between atoms: C_2  and  C_18
REMARK    4  A    between atoms: N_3  and  C_4
REMARK    5  A    between atoms: C_7  and  C_8
REMARK    6  A    between atoms: C_8  and  N_9
REMARK    7  A    between atoms: N_9  and  C_10
REMARK    8  A    between atoms: C_18  and  C_20
REMARK                            x       y       z     vdW  Elec       q    Type
REMARK                         _______ _______ _______ _____ _____    ______ ____
ROOT
ATOM      1  N   UNL     1      47.613   6.220  13.086  0.00  0.00    +0.000 N 
ATOM      2  H   UNL     1      46.977   5.417  13.038  0.00  0.00    +0.000 HD
ENDROOT
BRANCH   1   3
ATOM      3  C   UNL     1      48.336   6.231  14.276  0.00  0.00    +0.000 A 
ATOM      4  C   UNL     1      49.473   7.010  14.505  0.00  0.00    +0.000 A 
ATOM      5  C   UNL     1      50.161   6.946  15.726  0.00  0.00    +0.000 A 
ATOM      6  C   UNL     1      49.715   6.112  16.761  0.00  0.00    +0.000 A 
ATOM      7  C   UNL     1      48.517   5.414  16.573  0.00  0.00    +0.000 A 
ATOM      8  C   UNL     1      47.836   5.486  15.350  0.00  0.00    +0.000 A 
BRANCH   6   9
ATOM      9  C   UNL     1      50.523   5.931  18.026  0.00  0.00    +0.000 C 
BRANCH   9  10
ATOM     10  N   UNL     1      50.276   4.632  18.636  0.00  0.00    +0.000 N 
ATOM     11  H   UNL     1      50.218   4.664  19.650  0.00  0.00    +0.000 HD
BRANCH  10  12
ATOM     12  C   UNL     1      50.978   3.518  18.165  0.00  0.00    +0.000 A 
ATOM     13  C   UNL     1      50.430   2.422  17.515  0.00  0.00    +0.000 A 
ATOM     14  N   UNL     1      51.114   1.323  17.118  0.00  0.00    +0.000 NA
ATOM     15  C   UNL     1      52.415   1.309  17.428  0.00  0.00    +0.000 A 
ATOM     16  N   UNL     1      53.072   2.270  18.090  0.00  0.00    +0.000 NA
ATOM     17  C   UNL     1      52.325   3.340  18.454  0.00  0.00    +0.000 A 
ENDBRANCH  10  12
ENDBRANCH   9  10
ENDBRANCH   6   9
ENDBRANCH   1   3
BRANCH   1  19
ATOM     18  C   UNL     1      47.932   8.066  11.542  0.00  0.00    +0.000 C 
ATOM     19  C   UNL     1      46.978   7.450  12.566  0.00  0.00    +0.000 C 
BRANCH  19  20
ATOM     20  C   UNL     1      45.671   7.097  11.826  0.00  0.00    +0.000 C 
ATOM     21  O   UNL     1      44.724   7.889  11.849  0.00  0.00    +0.000 OA
BRANCH  20  22
ATOM     22  C   UNL     1      45.568   5.873  11.026  0.00  0.00    +0.000 A 
ATOM     23  C   UNL     1      45.968   5.737   9.708  0.00  0.00    +0.000 A 
ATOM     24  S   UNL     1      45.300   4.340   8.965  0.00  0.00    +0.000 S 
ATOM     25  C   UNL     1      44.566   3.845  10.420  0.00  0.00    +0.000 A 
ATOM     26  N   UNL     1      43.743   2.764  10.488  0.00  0.00    +0.000 NA
ATOM     27  C   UNL     1      43.322   2.496  11.682  0.00  0.00    +0.000 A 
ATOM     28  N   UNL     1      43.688   3.176  12.817  0.00  0.00    +0.000 N 
ATOM     29  C   UNL     1      44.581   4.223  12.803  0.00  0.00    +0.000 A 
ATOM     30  O   UNL     1      45.097   4.650  13.830  0.00  0.00    +0.000 OA
ATOM     31  C   UNL     1      44.939   4.659  11.468  0.00  0.00    +0.000 A 
ATOM     32  H   UNL     1      43.429   2.832  13.731  0.00  0.00    +0.000 HD
ENDBRANCH  20  22
ENDBRANCH  19  20
ENDBRANCH   1  19
TORSDOF 7
ENDMDL
MODEL 8
REMARK VINA RESULT:    -6.373      1.623      2.193
REMARK INTER + INTRA:         -10.116
REMARK INTER:                  -9.190
REMARK INTRA:                  -0.925
REMARK UNBOUND:                -1.134
REMARK  Name = 
REMARK  8 active torsions:
REMARK  status: ('A' for Active; 'I' for Inactive)
REMARK    1  A    between atoms: C_1  and  C_2
REMARK    2  A    between atoms: C_2  and  N_3
REMARK    3  A    between atoms: C_2  and  C_18
REMARK    4  A    between atoms: N_3  and  C_4
REMARK    5  A    between atoms: C_7  and  C_8
REMARK    6  A    between atoms: C_8  and  N_9
REMARK    7  A    between atoms: N_9  and  C_10
REMARK    8  A    between atoms: C_18  and  C_20
REMARK                            x       y       z     vdW  Elec       q    Type
REMARK                         _______ _______ _______ _____ _____    ______ ____
ROOT
ATOM      1  N   UNL     1      47.919   6.177  14.702  0.00  0.00    +0.000 N 
ATOM      2  H   UNL     1      48.329   5.320  15.089  0.00  0.00    +0.000 HD
ENDROOT
BRANCH   1   3
ATOM      3  C   UNL     1      47.011   5.898  13.684  0.00  0.00    +0.000 A 
ATOM      4  C   UNL     1      47.053   6.465  12.408  0.00  0.00    +0.000 A 
ATOM      5  C   UNL     1      46.085   6.150  11.443  0.00  0.00    +0.000 A 
ATOM      6  C   UNL     1      45.056   5.240  11.726  0.00  0.00    +0.000 A 
ATOM      7  C   UNL     1      45.075   4.592  12.965  0.00  0.00    +0.000 A 
ATOM      8  C   UNL     1      46.048   4.911  13.921  0.00  0.00    +0.000 A 
BRANCH   6   9
ATOM      9  C   UNL     1      43.932   4.999  10.744  0.00  0.00    +0.000 C 
BRANCH   9  10
ATOM     10  N   UNL     1      43.980   3.650  10.199  0.00  0.00    +0.000 N 
ATOM     11  H   UNL     1      43.901   2.924  10.905  0.00  0.00    +0.000 HD
BRANCH  10  12
ATOM     12  C   UNL     1      44.924   3.351   9.212  0.00  0.00    +0.000 A 
ATOM     13  C   UNL     1      45.419   4.232   8.260  0.00  0.00    +0.000 A 
ATOM     14  N   UNL     1      46.288   3.912   7.273  0.00  0.00    +0.000 NA
ATOM     15  C   UNL     1      46.649   2.625   7.215  0.00  0.00    +0.000 A 
ATOM     16  N   UNL     1      46.222   1.655   8.033  0.00  0.00    +0.000 NA
ATOM     17  C   UNL     1      45.356   2.048   8.998  0.00  0.00    +0.000 A 
ENDBRANCH  10  12
ENDBRANCH   9  10
ENDBRANCH   6   9
ENDBRANCH   1   3
BRANCH   1  19
ATOM     18  C   UNL     1      48.238   8.582  14.811  0.00  0.00    +0.000 C 
ATOM     19  C   UNL     1      48.932   7.244  14.552  0.00  0.00    +0.000 C 
BRANCH  19  20
ATOM     20  C   UNL     1      50.034   7.081  15.619  0.00  0.00    +0.000 C 
ATOM     21  O   UNL     1      51.115   7.659  15.474  0.00  0.00    +0.000 OA
BRANCH  20  22
ATOM     22  C   UNL     1      49.784   6.317  16.847  0.00  0.00    +0.000 A 
ATOM     23  C   UNL     1      50.080   4.978  17.036  0.00  0.00    +0.000 A 
ATOM     24  S   UNL     1      49.258   4.316  18.390  0.00  0.00    +0.000 S 
ATOM     25  C   UNL     1      48.593   5.828  18.803  0.00  0.00    +0.000 A 
ATOM     26  N   UNL     1      47.699   5.977  19.816  0.00  0.00    +0.000 NA
ATOM     27  C   UNL     1      47.343   7.203  20.031  0.00  0.00    +0.000 A 
ATOM     28  N   UNL     1      47.838   8.295  19.360  0.00  0.00    +0.000 N 
ATOM     29  C   UNL     1      48.803   8.195  18.384  0.00  0.00    +0.000 A 
ATOM     30  O   UNL     1      49.420   9.174  17.980  0.00  0.00    +0.000 OA
ATOM     31  C   UNL     1      49.098   6.829  18.001  0.00  0.00    +0.000 A 
ATOM     32  H   UNL     1      47.619   9.231  19.667  0.00  0.00    +0.000 HD
ENDBRANCH  20  22
ENDBRANCH  19  20
ENDBRANCH   1  19
TORSDOF 7
ENDMDL
MODEL 9
REMARK VINA RESULT:    -6.335      3.084      4.948
REMARK INTER + INTRA:         -10.061
REMARK INTER:                  -8.885
REMARK INTRA:                  -1.176
REMARK UNBOUND:                -1.134
REMARK  Name = 
REMARK  8 active torsions:
REMARK  status: ('A' for Active; 'I' for Inactive)
REMARK    1  A    between atoms: C_1  and  C_2
REMARK    2  A    between atoms: C_2  and  N_3
REMARK    3  A    between atoms: C_2  and  C_18
REMARK    4  A    between atoms: N_3  and  C_4
REMARK    5  A    between atoms: C_7  and  C_8
REMARK    6  A    between atoms: C_8  and  N_9
REMARK    7  A    between atoms: N_9  and  C_10
REMARK    8  A    between atoms: C_18  and  C_20
REMARK                            x       y       z     vdW  Elec       q    Type
REMARK                         _______ _______ _______ _____ _____    ______ ____
ROOT
ATOM      1  N   UNL     1      48.521   6.697  13.418  0.00  0.00    +0.000 N 
ATOM      2  H   UNL     1      49.121   7.160  12.726  0.00  0.00    +0.000 HD
ENDROOT
BRANCH   1   3
ATOM      3  C   UNL     1      47.398   6.127  12.824  0.00  0.00    +0.000 A 
ATOM      4  C   UNL     1      46.654   5.082  13.377  0.00  0.00    +0.000 A 
ATOM      5  C   UNL     1      45.547   4.546  12.704  0.00  0.00    +0.000 A 
ATOM      6  C   UNL     1      45.141   5.058  11.463  0.00  0.00    +0.000 A 
ATOM      7  C   UNL     1      45.818   6.173  10.960  0.00  0.00    +0.000 A 
ATOM      8  C   UNL     1      46.922   6.703  11.641  0.00  0.00    +0.000 A 
BRANCH   6   9
ATOM      9  C   UNL     1      44.038   4.399  10.666  0.00  0.00    +0.000 C 
BRANCH   9  10
ATOM     10  N   UNL     1      44.301   4.465   9.235  0.00  0.00    +0.000 N 
ATOM     11  H   UNL     1      43.480   4.692   8.681  0.00  0.00    +0.000 HD
BRANCH  10  12
ATOM     12  C   UNL     1      45.101   3.481   8.647  0.00  0.00    +0.000 A 
ATOM     13  C   UNL     1      45.131   2.137   8.994  0.00  0.00    +0.000 A 
ATOM     14  N   UNL     1      45.955   1.207   8.456  0.00  0.00    +0.000 NA
ATOM     15  C   UNL     1      46.824   1.662   7.546  0.00  0.00    +0.000 A 
ATOM     16  N   UNL     1      46.942   2.934   7.144  0.00  0.00    +0.000 NA
ATOM     17  C   UNL     1      46.085   3.808   7.724  0.00  0.00    +0.000 A 
ENDBRANCH  10  12
ENDBRANCH   9  10
ENDBRANCH   6   9
ENDBRANCH   1   3
BRANCH   1  19
ATOM     18  C   UNL     1      48.810   6.588  15.826  0.00  0.00    +0.000 C 
ATOM     19  C   UNL     1      48.410   7.492  14.660  0.00  0.00    +0.000 C 
BRANCH  19  20
ATOM     20  C   UNL     1      49.406   8.670  14.625  0.00  0.00    +0.000 C 
ATOM     21  O   UNL     1      49.079   9.760  15.101  0.00  0.00    +0.000 OA
BRANCH  20  22
ATOM     22  C   UNL     1      50.767   8.487  14.110  0.00  0.00    +0.000 A 
ATOM     23  C   UNL     1      51.829   7.949  14.817  0.00  0.00    +0.000 A 
ATOM     24  S   UNL     1      53.342   8.297  14.082  0.00  0.00    +0.000 S 
ATOM     25  C   UNL     1      52.591   9.065  12.760  0.00  0.00    +0.000 A 
ATOM     26  N   UNL     1      53.301   9.692  11.785  0.00  0.00    +0.000 NA
ATOM     27  C   UNL     1      52.574  10.168  10.826  0.00  0.00    +0.000 A 
ATOM     28  N   UNL     1      51.211  10.030  10.729  0.00  0.00    +0.000 N 
ATOM     29  C   UNL     1      50.465   9.334  11.652  0.00  0.00    +0.000 A 
ATOM     30  O   UNL     1      49.308   8.996  11.429  0.00  0.00    +0.000 OA
ATOM     31  C   UNL     1      51.221   8.935  12.823  0.00  0.00    +0.000 A 
ATOM     32  H   UNL     1      50.723  10.309   9.890  0.00  0.00    +0.000 HD
ENDBRANCH  20  22
ENDBRANCH  19  20
ENDBRANCH   1  19
TORSDOF 7
ENDMDL
