MODEL 1
REMARK VINA RESULT:    -8.276      0.000      0.000
REMARK INTER + INTRA:         -12.718
REMARK INTER:                 -11.662
REMARK INTRA:                  -1.055
REMARK UNBOUND:                -1.055
REMARK  Name = 
REMARK  7 active torsions:
REMARK  status: ('A' for Active; 'I' for Inactive)
REMARK    1  A    between atoms: C_2  and  C_20
REMARK    2  A    between atoms: N_3  and  C_4
REMARK    3  A    between atoms: C_4  and  C_5
REMARK    4  A    between atoms: C_8  and  C_9
REMARK    5  A    between atoms: C_9  and  O_10
REMARK    6  A    between atoms: O_10  and  C_11
REMARK    7  A    between atoms: C_11  and  C_12
REMARK                            x       y       z     vdW  Elec       q    Type
REMARK                         _______ _______ _______ _____ _____    ______ ____
ROOT
ATOM      1  C   UNL     1      48.127   6.552  13.420  0.00  0.00    +0.000 C 
ENDROOT
BRANCH   1   2
ATOM      2  C   UNL     1      46.919   5.955  12.750  0.00  0.00    +0.000 A 
ATOM      3  C   UNL     1      46.528   6.379  11.472  0.00  0.00    +0.000 A 
ATOM      4  C   UNL     1      45.446   5.776  10.826  0.00  0.00    +0.000 A 
ATOM      5  C   UNL     1      44.731   4.745  11.450  0.00  0.00    +0.000 A 
ATOM      6  C   UNL     1      45.094   4.352  12.744  0.00  0.00    +0.000 A 
ATOM      7  C   UNL     1      46.175   4.955  13.389  0.00  0.00    +0.000 A 
BRANCH   5   8
ATOM      8  C   UNL     1      43.626   4.028  10.712  0.00  0.00    +0.000 C 
BRANCH   8   9
ATOM      9  O   UNL     1      44.035   3.612   9.407  0.00  0.00    +0.000 OA
BRANCH   9  10
ATOM     10  C   UNL     1      44.768   2.388   9.428  0.00  0.00    +0.000 C 
BRANCH  10  11
ATOM     11  C   UNL     1      45.732   2.358   8.272  0.00  0.00    +0.000 A 
ATOM     12  C   UNL     1      45.922   3.496   7.475  0.00  0.00    +0.000 A 
ATOM     13  C   UNL     1      46.848   3.483   6.433  0.00  0.00    +0.000 A 
ATOM     14  C   UNL     1      47.591   2.334   6.174  0.00  0.00    +0.000 A 
ATOM     15  C   UNL     1      47.400   1.192   6.950  0.00  0.00    +0.000 A 
ATOM     16  C   UNL     1      46.473   1.202   7.993  0.00  0.00    +0.000 A 
ENDBRANCH  10  11
ENDBRANCH   9  10
ENDBRANCH   8   9
ENDBRANCH   5   8
ENDBRANCH   1   2
BRANCH   1  19
ATOM     17  O   UNL     1      50.259   6.793  15.150  0.00  0.00    +0.000 OA
ATOM     18  C   UNL     1      49.130   6.742  15.631  0.00  0.00    +0.000 C 
ATOM     19  N   UNL     1      48.016   6.535  14.855  0.00  0.00    +0.000 N 
ATOM     20  H   UNL     1      47.095   6.702  15.248  0.00  0.00    +0.000 HD
BRANCH  18  21
ATOM     21  C   UNL     1      48.914   6.872  17.075  0.00  0.00    +0.000 A 
ATOM     22  C   UNL     1      48.587   8.107  17.619  0.00  0.00    +0.000 A 
ATOM     23  S   UNL     1      48.342   8.066  19.306  0.00  0.00    +0.000 S 
ATOM     24  C   UNL     1      48.624   6.389  19.362  0.00  0.00    +0.000 A 
ATOM     25  N   UNL     1      48.521   5.699  20.531  0.00  0.00    +0.000 NA
ATOM     26  C   UNL     1      48.724   4.428  20.416  0.00  0.00    +0.000 A 
ATOM     27  N   UNL     1      49.036   3.788  19.246  0.00  0.00    +0.000 N 
ATOM     28  C   UNL     1      49.200   4.452  18.051  0.00  0.00    +0.000 A 
ATOM     29  O   UNL     1      49.566   3.859  17.041  0.00  0.00    +0.000 OA
ATOM     30  C   UNL     1      48.941   5.875  18.117  0.00  0.00    +0.000 A 
ATOM     31  H   UNL     1      49.211   2.793  19.230  0.00  0.00    +0.000 HD
ENDBRANCH  18  21
ENDBRANCH   1  19
TORSDOF 7
ENDMDL
MODEL 2
REMARK VINA RESULT:    -7.976      1.492      2.130
REMARK INTER + INTRA:         -12.295
REMARK INTER:                 -11.256
REMARK INTRA:                  -1.040
REMARK UNBOUND:                -1.055
REMARK  Name = 
REMARK  7 active torsions:
REMARK  status: ('A' for Active; 'I' for Inactive)
REMARK    1  A    between atoms: C_2  and  C_20
REMARK    2  A    between atoms: N_3  and  C_4
REMARK    3  A    between atoms: C_4  and  C_5
REMARK    4  A    between atoms: C_8  and  C_9
REMARK    5  A    between atoms: C_9  and  O_10
REMARK    6  A    between atoms: O_10  and  C_11
REMARK    7  A    between atoms: C_11  and  C_12
REMARK                            x       y       z     vdW  Elec       q    Type
REMARK                         _______ _______ _______ _____ _____    ______ ____
ROOT
ATOM      1  C   UNL     1      46.252   7.209  12.935  0.00  0.00    +0.000 C 
ENDROOT
BRANCH   1   2
ATOM      2  C   UNL     1      45.754   5.976  12.230  0.00  0.00    +0.000 A 
ATOM      3  C   UNL     1      45.448   4.814  12.952  0.00  0.00    +0.000 A 
ATOM      4  C   UNL     1      44.923   3.694  12.304  0.00  0.00    +0.000 A 
ATOM      5  C   UNL     1      44.705   3.712  10.920  0.00  0.00    +0.000 A 
ATOM      6  C   UNL     1      45.051   4.857  10.191  0.00  0.00    +0.000 A 
ATOM      7  C   UNL     1      45.575   5.976  10.841  0.00  0.00    +0.000 A 
BRANCH   5   8
ATOM      8  C   UNL     1      44.046   2.539  10.235  0.00  0.00    +0.000 C 
BRANCH   8   9
ATOM      9  O   UNL     1      44.504   2.377   8.891  0.00  0.00    +0.000 OA
BRANCH   9  10
ATOM     10  C   UNL     1      45.730   1.649   8.815  0.00  0.00    +0.000 C 
BRANCH  10  11
ATOM     11  C   UNL     1      46.385   1.905   7.483  0.00  0.00    +0.000 A 
ATOM     12  C   UNL     1      47.105   0.890   6.837  0.00  0.00    +0.000 A 
ATOM     13  C   UNL     1      47.672   1.113   5.583  0.00  0.00    +0.000 A 
ATOM     14  C   UNL     1      47.529   2.352   4.963  0.00  0.00    +0.000 A 
ATOM     15  C   UNL     1      46.829   3.374   5.602  0.00  0.00    +0.000 A 
ATOM     16  C   UNL     1      46.261   3.153   6.858  0.00  0.00    +0.000 A 
ENDBRANCH  10  11
ENDBRANCH   9  10
ENDBRANCH   8   9
ENDBRANCH   5   8
ENDBRANCH   1   2
BRANCH   1  19
ATOM     17  O   UNL     1      48.877   6.386  13.106  0.00  0.00    +0.000 OA
ATOM     18  C   UNL     1      48.262   6.569  14.153  0.00  0.00    +0.000 C 
ATOM     19  N   UNL     1      46.927   6.894  14.167  0.00  0.00    +0.000 N 
ATOM     20  H   UNL     1      46.505   7.236  15.024  0.00  0.00    +0.000 HD
BRANCH  18  21
ATOM     21  C   UNL     1      48.918   6.421  15.454  0.00  0.00    +0.000 A 
ATOM     22  C   UNL     1      49.981   7.248  15.795  0.00  0.00    +0.000 A 
ATOM     23  S   UNL     1      50.601   6.956  17.356  0.00  0.00    +0.000 S 
ATOM     24  C   UNL     1      49.446   5.741  17.647  0.00  0.00    +0.000 A 
ATOM     25  N   UNL     1      49.391   5.099  18.846  0.00  0.00    +0.000 NA
ATOM     26  C   UNL     1      48.439   4.228  18.939  0.00  0.00    +0.000 A 
ATOM     27  N   UNL     1      47.551   3.931  17.939  0.00  0.00    +0.000 N 
ATOM     28  C   UNL     1      47.602   4.517  16.695  0.00  0.00    +0.000 A 
ATOM     29  O   UNL     1      46.846   4.163  15.795  0.00  0.00    +0.000 OA
ATOM     30  C   UNL     1      48.624   5.533  16.553  0.00  0.00    +0.000 A 
ATOM     31  H   UNL     1      46.847   3.218  18.066  0.00  0.00    +0.000 HD
ENDBRANCH  18  21
ENDBRANCH   1  19
TORSDOF 7
ENDMDL
MODEL 3
REMARK VINA RESULT:    -7.916      1.149      1.559
REMARK INTER + INTRA:         -12.210
REMARK INTER:                 -11.077
REMARK INTRA:                  -1.134
REMARK UNBOUND:                -1.055
REMARK  Name = 
REMARK  7 active torsions:
REMARK  status: ('A' for Active; 'I' for Inactive)
REMARK    1  A    between atoms: C_2  and  C_20
REMARK    2  A    between atoms: N_3  and  C_4
REMARK    3  A    between atoms: C_4  and  C_5
REMARK    4  A    between atoms: C_8  and  C_9
REMARK    5  A    between atoms: C_9  and  O_10
REMARK    6  A    between atoms: O_10  and  C_11
REMARK    7  A    between atoms: C_11  and  C_12
REMARK                            x       y       z     vdW  Elec       q    Type
REMARK                         _______ _______ _______ _____ _____    ______ ____
ROOT
ATOM      1  C   UNL     1      48.261   6.475  13.639  0.00  0.00    +0.000 C 
ENDROOT
BRANCH   1   2
ATOM      2  C   UNL     1      46.959   6.067  13.004  0.00  0.00    +0.000 A 
ATOM      3  C   UNL     1      46.563   6.609  11.774  0.00  0.00    +0.000 A 
ATOM      4  C   UNL     1      45.386   6.178  11.156  0.00  0.00    +0.000 A 
ATOM      5  C   UNL     1      44.580   5.206  11.763  0.00  0.00    +0.000 A 
ATOM      6  C   UNL     1      44.953   4.697  13.013  0.00  0.00    +0.000 A 
ATOM      7  C   UNL     1      46.129   5.128  13.629  0.00  0.00    +0.000 A 
BRANCH   5   8
ATOM      8  C   UNL     1      43.362   4.671  11.049  0.00  0.00    +0.000 C 
BRANCH   8   9
ATOM      9  O   UNL     1      43.686   4.145   9.760  0.00  0.00    +0.000 OA
BRANCH   9  10
ATOM     10  C   UNL     1      44.332   2.874   9.834  0.00  0.00    +0.000 C 
BRANCH  10  11
ATOM     11  C   UNL     1      45.396   2.788   8.771  0.00  0.00    +0.000 A 
ATOM     12  C   UNL     1      45.964   1.552   8.432  0.00  0.00    +0.000 A 
ATOM     13  C   UNL     1      46.916   1.466   7.416  0.00  0.00    +0.000 A 
ATOM     14  C   UNL     1      47.311   2.613   6.731  0.00  0.00    +0.000 A 
ATOM     15  C   UNL     1      46.764   3.850   7.070  0.00  0.00    +0.000 A 
ATOM     16  C   UNL     1      45.812   3.938   8.087  0.00  0.00    +0.000 A 
ENDBRANCH  10  11
ENDBRANCH   9  10
ENDBRANCH   8   9
ENDBRANCH   5   8
ENDBRANCH   1   2
BRANCH   1  19
ATOM     17  O   UNL     1      49.546   5.601  15.915  0.00  0.00    +0.000 OA
ATOM     18  C   UNL     1      48.820   6.588  16.007  0.00  0.00    +0.000 C 
ATOM     19  N   UNL     1      48.072   7.043  14.948  0.00  0.00    +0.000 N 
ATOM     20  H   UNL     1      47.650   7.964  14.995  0.00  0.00    +0.000 HD
BRANCH  18  21
ATOM     21  C   UNL     1      48.691   7.320  17.270  0.00  0.00    +0.000 A 
ATOM     22  C   UNL     1      49.053   8.659  17.336  0.00  0.00    +0.000 A 
ATOM     23  S   UNL     1      48.807   9.357  18.873  0.00  0.00    +0.000 S 
ATOM     24  C   UNL     1      48.170   7.905  19.491  0.00  0.00    +0.000 A 
ATOM     25  N   UNL     1      47.711   7.830  20.770  0.00  0.00    +0.000 NA
ATOM     26  C   UNL     1      47.221   6.678  21.091  0.00  0.00    +0.000 A 
ATOM     27  N   UNL     1      47.162   5.593  20.257  0.00  0.00    +0.000 N 
ATOM     28  C   UNL     1      47.661   5.608  18.974  0.00  0.00    +0.000 A 
ATOM     29  O   UNL     1      47.672   4.593  18.285  0.00  0.00    +0.000 OA
ATOM     30  C   UNL     1      48.183   6.890  18.550  0.00  0.00    +0.000 A 
ATOM     31  H   UNL     1      46.792   4.710  20.579  0.00  0.00    +0.000 HD
ENDBRANCH  18  21
ENDBRANCH   1  19
TORSDOF 7
ENDMDL
MODEL 4
REMARK VINA RESULT:    -7.727      3.946      5.833
REMARK INTER + INTRA:         -11.944
REMARK INTER:                 -10.786
REMARK INTRA:                  -1.158
REMARK UNBOUND:                -1.055
REMARK  Name = 
REMARK  7 active torsions:
REMARK  status: ('A' for Active; 'I' for Inactive)
REMARK    1  A    between atoms: C_2  and  C_20
REMARK    2  A    between atoms: N_3  and  C_4
REMARK    3  A    between atoms: C_4  and  C_5
REMARK    4  A    between atoms: C_8  and  C_9
REMARK    5  A    between atoms: C_9  and  O_10
REMARK    6  A    between atoms: O_10  and  C_11
REMARK    7  A    between atoms: C_11  and  C_12
REMARK                            x       y       z     vdW  Elec       q    Type
REMARK                         _______ _______ _______ _____ _____    ______ ____
ROOT
ATOM      1  C   UNL     1      47.826   6.672  13.501  0.00  0.00    +0.000 C 
ENDROOT
BRANCH   1   2
ATOM      2  C   UNL     1      46.791   5.832  12.802  0.00  0.00    +0.000 A 
ATOM      3  C   UNL     1      46.213   4.728  13.445  0.00  0.00    +0.000 A 
ATOM      4  C   UNL     1      45.206   3.991  12.819  0.00  0.00    +0.000 A 
ATOM      5  C   UNL     1      44.766   4.338  11.534  0.00  0.00    +0.000 A 
ATOM      6  C   UNL     1      45.373   5.413  10.875  0.00  0.00    +0.000 A 
ATOM      7  C   UNL     1      46.380   6.150  11.502  0.00  0.00    +0.000 A 
BRANCH   5   8
ATOM      8  C   UNL     1      43.610   3.602  10.899  0.00  0.00    +0.000 C 
BRANCH   8   9
ATOM      9  O   UNL     1      43.890   3.231   9.548  0.00  0.00    +0.000 OA
BRANCH   9  10
ATOM     10  C   UNL     1      44.676   2.042   9.459  0.00  0.00    +0.000 C 
BRANCH  10  11
ATOM     11  C   UNL     1      45.691   2.192   8.357  0.00  0.00    +0.000 A 
ATOM     12  C   UNL     1      45.872   3.427   7.719  0.00  0.00    +0.000 A 
ATOM     13  C   UNL     1      46.844   3.577   6.730  0.00  0.00    +0.000 A 
ATOM     14  C   UNL     1      47.643   2.495   6.368  0.00  0.00    +0.000 A 
ATOM     15  C   UNL     1      47.463   1.258   6.985  0.00  0.00    +0.000 A 
ATOM     16  C   UNL     1      46.490   1.106   7.973  0.00  0.00    +0.000 A 
ENDBRANCH  10  11
ENDBRANCH   9  10
ENDBRANCH   8   9
ENDBRANCH   5   8
ENDBRANCH   1   2
BRANCH   1  19
ATOM     17  O   UNL     1      49.227   8.058  11.574  0.00  0.00    +0.000 OA
ATOM     18  C   UNL     1      48.350   8.658  12.192  0.00  0.00    +0.000 C 
ATOM     19  N   UNL     1      47.661   8.075  13.227  0.00  0.00    +0.000 N 
ATOM     20  H   UNL     1      46.816   8.517  13.575  0.00  0.00    +0.000 HD
BRANCH  18  21
ATOM     21  C   UNL     1      48.011  10.046  11.871  0.00  0.00    +0.000 A 
ATOM     22  C   UNL     1      49.013  10.943  11.524  0.00  0.00    +0.000 A 
ATOM     23  S   UNL     1      48.434  12.504  11.153  0.00  0.00    +0.000 S 
ATOM     24  C   UNL     1      46.821  12.025  11.404  0.00  0.00    +0.000 A 
ATOM     25  N   UNL     1      45.792  12.893  11.204  0.00  0.00    +0.000 NA
ATOM     26  C   UNL     1      44.620  12.382  11.396  0.00  0.00    +0.000 A 
ATOM     27  N   UNL     1      44.385  11.089  11.784  0.00  0.00    +0.000 N 
ATOM     28  C   UNL     1      45.396  10.192  12.047  0.00  0.00    +0.000 A 
ATOM     29  O   UNL     1      45.151   9.069  12.477  0.00  0.00    +0.000 OA
ATOM     30  C   UNL     1      46.729  10.703  11.806  0.00  0.00    +0.000 A 
ATOM     31  H   UNL     1      43.444  10.759  11.944  0.00  0.00    +0.000 HD
ENDBRANCH  18  21
ENDBRANCH   1  19
TORSDOF 7
ENDMDL
MODEL 5
REMARK VINA RESULT:    -7.517      2.054      3.635
REMARK INTER + INTRA:         -11.649
REMARK INTER:                 -10.401
REMARK INTRA:                  -1.247
REMARK UNBOUND:                -1.055
REMARK  Name = 
REMARK  7 active torsions:
REMARK  status: ('A' for Active; 'I' for Inactive)
REMARK    1  A    between atoms: C_2  and  C_20
REMARK    2  A    between atoms: N_3  and  C_4
REMARK    3  A    between atoms: C_4  and  C_5
REMARK    4  A    between atoms: C_8  and  C_9
REMARK    5  A    between atoms: C_9  and  O_10
REMARK    6  A    between atoms: O_10  and  C_11
REMARK    7  A    between atoms: C_11  and  C_12
REMARK                            x       y       z     vdW  Elec       q    Type
REMARK                         _______ _______ _______ _____ _____    ______ ____
ROOT
ATOM      1  C   UNL     1      47.140   4.467  15.046  0.00  0.00    +0.000 C 
ENDROOT
BRANCH   1   2
ATOM      2  C   UNL     1      46.322   4.502  13.783  0.00  0.00    +0.000 A 
ATOM      3  C   UNL     1      45.987   3.317  13.115  0.00  0.00    +0.000 A 
ATOM      4  C   UNL     1      45.173   3.347  11.980  0.00  0.00    +0.000 A 
ATOM      5  C   UNL     1      44.688   4.566  11.488  0.00  0.00    +0.000 A 
ATOM      6  C   UNL     1      45.058   5.755  12.129  0.00  0.00    +0.000 A 
ATOM      7  C   UNL     1      45.872   5.722  13.263  0.00  0.00    +0.000 A 
BRANCH   5   8
ATOM      8  C   UNL     1      43.728   4.591  10.322  0.00  0.00    +0.000 C 
BRANCH   8   9
ATOM      9  O   UNL     1      44.098   3.657   9.305  0.00  0.00    +0.000 OA
BRANCH   9  10
ATOM     10  C   UNL     1      44.991   4.220   8.344  0.00  0.00    +0.000 C 
BRANCH  10  11
ATOM     11  C   UNL     1      45.861   3.134   7.769  0.00  0.00    +0.000 A 
ATOM     12  C   UNL     1      45.901   1.865   8.364  0.00  0.00    +0.000 A 
ATOM     13  C   UNL     1      46.670   0.845   7.804  0.00  0.00    +0.000 A 
ATOM     14  C   UNL     1      47.410   1.083   6.648  0.00  0.00    +0.000 A 
ATOM     15  C   UNL     1      47.390   2.346   6.056  0.00  0.00    +0.000 A 
ATOM     16  C   UNL     1      46.621   3.368   6.615  0.00  0.00    +0.000 A 
ENDBRANCH  10  11
ENDBRANCH   9  10
ENDBRANCH   8   9
ENDBRANCH   5   8
ENDBRANCH   1   2
BRANCH   1  19
ATOM     17  O   UNL     1      49.242   4.812  16.795  0.00  0.00    +0.000 OA
ATOM     18  C   UNL     1      48.866   5.786  16.148  0.00  0.00    +0.000 C 
ATOM     19  N   UNL     1      47.773   5.732  15.318  0.00  0.00    +0.000 N 
ATOM     20  H   UNL     1      47.614   6.479  14.651  0.00  0.00    +0.000 HD
BRANCH  18  21
ATOM     21  C   UNL     1      49.554   7.076  16.250  0.00  0.00    +0.000 A 
ATOM     22  C   UNL     1      49.845   7.610  17.498  0.00  0.00    +0.000 A 
ATOM     23  S   UNL     1      50.674   9.099  17.426  0.00  0.00    +0.000 S 
ATOM     24  C   UNL     1      50.708   9.061  15.725  0.00  0.00    +0.000 A 
ATOM     25  N   UNL     1      51.328  10.042  15.015  0.00  0.00    +0.000 NA
ATOM     26  C   UNL     1      51.308   9.864  13.734  0.00  0.00    +0.000 A 
ATOM     27  N   UNL     1      50.712   8.805  13.101  0.00  0.00    +0.000 N 
ATOM     28  C   UNL     1      50.030   7.818  13.777  0.00  0.00    +0.000 A 
ATOM     29  O   UNL     1      49.433   6.932  13.173  0.00  0.00    +0.000 OA
ATOM     30  C   UNL     1      50.059   7.949  15.218  0.00  0.00    +0.000 A 
ATOM     31  H   UNL     1      50.707   8.739  12.094  0.00  0.00    +0.000 HD
ENDBRANCH  18  21
ENDBRANCH   1  19
TORSDOF 7
ENDMDL
MODEL 6
REMARK VINA RESULT:    -7.368      1.720      2.262
REMARK INTER + INTRA:         -11.439
REMARK INTER:                 -10.499
REMARK INTRA:                  -0.940
REMARK UNBOUND:                -1.055
REMARK  Name = 
REMARK  7 active torsions:
REMARK  status: ('A' for Active; 'I' for Inactive)
REMARK    1  A    between atoms: C_2  and  C_20
REMARK    2  A    between atoms: N_3  and  C_4
REMARK    3  A    between atoms: C_4  and  C_5
REMARK    4  A    between atoms: C_8  and  C_9
REMARK    5  A    between atoms: C_9  and  O_10
REMARK    6  A    between atoms: O_10  and  C_11
REMARK    7  A    between atoms: C_11  and  C_12
REMARK                            x       y       z     vdW  Elec       q    Type
REMARK                         _______ _______ _______ _____ _____    ______ ____
ROOT
ATOM      1  C   UNL     1      47.215   3.960  15.205  0.00  0.00    +0.000 C 
ENDROOT
BRANCH   1   2
ATOM      2  C   UNL     1      46.658   4.523  13.924  0.00  0.00    +0.000 A 
ATOM      3  C   UNL     1      47.115   5.750  13.424  0.00  0.00    +0.000 A 
ATOM      4  C   UNL     1      46.645   6.237  12.203  0.00  0.00    +0.000 A 
ATOM      5  C   UNL     1      45.702   5.510  11.465  0.00  0.00    +0.000 A 
ATOM      6  C   UNL     1      45.212   4.305  11.985  0.00  0.00    +0.000 A 
ATOM      7  C   UNL     1      45.683   3.820  13.206  0.00  0.00    +0.000 A 
BRANCH   5   8
ATOM      8  C   UNL     1      45.268   5.987  10.099  0.00  0.00    +0.000 C 
BRANCH   8   9
ATOM      9  O   UNL     1      45.877   5.232   9.050  0.00  0.00    +0.000 OA
BRANCH   9  10
ATOM     10  C   UNL     1      45.023   4.202   8.550  0.00  0.00    +0.000 C 
BRANCH  10  11
ATOM     11  C   UNL     1      45.854   3.136   7.887  0.00  0.00    +0.000 A 
ATOM     12  C   UNL     1      46.651   3.444   6.775  0.00  0.00    +0.000 A 
ATOM     13  C   UNL     1      47.457   2.468   6.190  0.00  0.00    +0.000 A 
ATOM     14  C   UNL     1      47.472   1.174   6.707  0.00  0.00    +0.000 A 
ATOM     15  C   UNL     1      46.672   0.852   7.803  0.00  0.00    +0.000 A 
ATOM     16  C   UNL     1      45.865   1.828   8.390  0.00  0.00    +0.000 A 
ENDBRANCH  10  11
ENDBRANCH   9  10
ENDBRANCH   8   9
ENDBRANCH   5   8
ENDBRANCH   1   2
BRANCH   1  19
ATOM     17  O   UNL     1      46.721   4.276  17.898  0.00  0.00    +0.000 OA
ATOM     18  C   UNL     1      47.565   5.002  17.378  0.00  0.00    +0.000 C 
ATOM     19  N   UNL     1      47.816   4.977  16.028  0.00  0.00    +0.000 N 
ATOM     20  H   UNL     1      48.648   5.431  15.666  0.00  0.00    +0.000 HD
BRANCH  18  21
ATOM     21  C   UNL     1      48.336   5.960  18.175  0.00  0.00    +0.000 A 
ATOM     22  C   UNL     1      47.679   6.934  18.916  0.00  0.00    +0.000 A 
ATOM     23  S   UNL     1      48.730   7.941  19.805  0.00  0.00    +0.000 S 
ATOM     24  C   UNL     1      50.097   7.085  19.262  0.00  0.00    +0.000 A 
ATOM     25  N   UNL     1      51.346   7.412  19.695  0.00  0.00    +0.000 NA
ATOM     26  C   UNL     1      52.284   6.653  19.230  0.00  0.00    +0.000 A 
ATOM     27  N   UNL     1      52.089   5.611  18.362  0.00  0.00    +0.000 N 
ATOM     28  C   UNL     1      50.851   5.278  17.859  0.00  0.00    +0.000 A 
ATOM     29  O   UNL     1      50.726   4.395  17.015  0.00  0.00    +0.000 OA
ATOM     30  C   UNL     1      49.759   6.071  18.382  0.00  0.00    +0.000 A 
ATOM     31  H   UNL     1      52.870   5.074  18.013  0.00  0.00    +0.000 HD
ENDBRANCH  18  21
ENDBRANCH   1  19
TORSDOF 7
ENDMDL
MODEL 7
REMARK VINA RESULT:    -7.349      2.855      4.679
REMARK INTER + INTRA:         -11.411
REMARK INTER:                 -10.209
REMARK INTRA:                  -1.202
REMARK UNBOUND:                -1.055
REMARK  Name = 
REMARK  7 active torsions:
REMARK  status: ('A' for Active; 'I' for Inactive)
REMARK    1  A    between atoms: C_2  and  C_20
REMARK    2  A    between atoms: N_3  and  C_4
REMARK    3  A    between atoms: C_4  and  C_5
REMARK    4  A    between atoms: C_8  and  C_9
REMARK    5  A    between atoms: C_9  and  O_10
REMARK    6  A    between atoms: O_10  and  C_11
REMARK    7  A    between atoms: C_11  and  C_12
REMARK                            x       y       z     vdW  Elec       q    Type
REMARK                         _______ _______ _______ _____ _____    ______ ____
ROOT
ATOM      1  C   UNL     1      47.650   5.566  14.384  0.00  0.00    +0.000 C 
ENDROOT
BRANCH   1   2
ATOM      2  C   UNL     1      46.573   5.148  13.419  0.00  0.00    +0.000 A 
ATOM      3  C   UNL     1      45.914   6.100  12.629  0.00  0.00    +0.000 A 
ATOM      4  C   UNL     1      44.962   5.702  11.687  0.00  0.00    +0.000 A 
ATOM      5  C   UNL     1      44.645   4.347  11.527  0.00  0.00    +0.000 A 
ATOM      6  C   UNL     1      45.271   3.400  12.347  0.00  0.00    +0.000 A 
ATOM      7  C   UNL     1      46.223   3.799  13.288  0.00  0.00    +0.000 A 
BRANCH   5   8
ATOM      8  C   UNL     1      43.690   3.909  10.443  0.00  0.00    +0.000 C 
BRANCH   8   9
ATOM      9  O   UNL     1      44.328   3.076   9.472  0.00  0.00    +0.000 OA
BRANCH   9  10
ATOM     10  C   UNL     1      44.969   3.829   8.442  0.00  0.00    +0.000 C 
BRANCH  10  11
ATOM     11  C   UNL     1      45.910   2.936   7.678  0.00  0.00    +0.000 A 
ATOM     12  C   UNL     1      46.198   1.644   8.140  0.00  0.00    +0.000 A 
ATOM     13  C   UNL     1      47.033   0.800   7.409  0.00  0.00    +0.000 A 
ATOM     14  C   UNL     1      47.591   1.239   6.210  0.00  0.00    +0.000 A 
ATOM     15  C   UNL     1      47.324   2.527   5.748  0.00  0.00    +0.000 A 
ATOM     16  C   UNL     1      46.489   3.373   6.479  0.00  0.00    +0.000 A 
ENDBRANCH  10  11
ENDBRANCH   9  10
ENDBRANCH   8   9
ENDBRANCH   5   8
ENDBRANCH   1   2
BRANCH   1  19
ATOM     17  O   UNL     1      49.984   6.878  15.038  0.00  0.00    +0.000 OA
ATOM     18  C   UNL     1      49.012   7.557  14.719  0.00  0.00    +0.000 C 
ATOM     19  N   UNL     1      47.784   6.997  14.462  0.00  0.00    +0.000 N 
ATOM     20  H   UNL     1      47.067   7.552  14.008  0.00  0.00    +0.000 HD
BRANCH  18  21
ATOM     21  C   UNL     1      49.105   9.016  14.623  0.00  0.00    +0.000 A 
ATOM     22  C   UNL     1      49.421   9.767  15.748  0.00  0.00    +0.000 A 
ATOM     23  S   UNL     1      49.516  11.443  15.446  0.00  0.00    +0.000 S 
ATOM     24  C   UNL     1      49.178  11.219  13.793  0.00  0.00    +0.000 A 
ATOM     25  N   UNL     1      49.156  12.274  12.933  0.00  0.00    +0.000 NA
ATOM     26  C   UNL     1      48.923  11.951  11.703  0.00  0.00    +0.000 A 
ATOM     27  N   UNL     1      48.695  10.675  11.259  0.00  0.00    +0.000 N 
ATOM     28  C   UNL     1      48.657   9.586  12.100  0.00  0.00    +0.000 A 
ATOM     29  O   UNL     1      48.363   8.471  11.681  0.00  0.00    +0.000 OA
ATOM     30  C   UNL     1      48.954   9.889  13.484  0.00  0.00    +0.000 A 
ATOM     31  H   UNL     1      48.491  10.494  10.286  0.00  0.00    +0.000 HD
ENDBRANCH  18  21
ENDBRANCH   1  19
TORSDOF 7
ENDMDL
MODEL 8
REMARK VINA RESULT:    -7.228      4.018      8.620
REMARK INTER + INTRA:         -11.241
REMARK INTER:                  -9.519
REMARK INTRA:                  -1.723
REMARK UNBOUND:                -1.055
REMARK  Name = 
REMARK  7 active torsions:
REMARK  status: ('A' for Active; 'I' for Inactive)
REMARK    1  A    between atoms: C_2  and  C_20
REMARK    2  A    between atoms: N_3  and  C_4
REMARK    3  A    between atoms: C_4  and  C_5
REMARK    4  A    between atoms: C_8  and  C_9
REMARK    5  A    between atoms: C_9  and  O_10
REMARK    6  A    between atoms: O_10  and  C_11
REMARK    7  A    between atoms: C_11  and  C_12
REMARK                            x       y       z     vdW  Elec       q    Type
REMARK                         _______ _______ _______ _____ _____    ______ ____
ROOT
ATOM      1  C   UNL     1      48.210   8.030  12.272  0.00  0.00    +0.000 C 
ENDROOT
BRANCH   1   2
ATOM      2  C   UNL     1      48.401   7.966  13.764  0.00  0.00    +0.000 A 
ATOM      3  C   UNL     1      48.991   6.844  14.362  0.00  0.00    +0.000 A 
ATOM      4  C   UNL     1      49.227   6.815  15.738  0.00  0.00    +0.000 A 
ATOM      5  C   UNL     1      48.867   7.905  16.542  0.00  0.00    +0.000 A 
ATOM      6  C   UNL     1      48.237   9.008  15.952  0.00  0.00    +0.000 A 
ATOM      7  C   UNL     1      48.002   9.035  14.576  0.00  0.00    +0.000 A 
BRANCH   5   8
ATOM      8  C   UNL     1      49.211   7.915  18.012  0.00  0.00    +0.000 C 
BRANCH   8   9
ATOM      9  O   UNL     1      48.151   7.388  18.814  0.00  0.00    +0.000 OA
BRANCH   9  10
ATOM     10  C   UNL     1      48.541   6.223  19.540  0.00  0.00    +0.000 C 
BRANCH  10  11
ATOM     11  C   UNL     1      48.452   5.017  18.642  0.00  0.00    +0.000 A 
ATOM     12  C   UNL     1      47.249   4.698  17.996  0.00  0.00    +0.000 A 
ATOM     13  C   UNL     1      47.179   3.609  17.129  0.00  0.00    +0.000 A 
ATOM     14  C   UNL     1      48.307   2.826  16.899  0.00  0.00    +0.000 A 
ATOM     15  C   UNL     1      49.505   3.124  17.547  0.00  0.00    +0.000 A 
ATOM     16  C   UNL     1      49.577   4.213  18.417  0.00  0.00    +0.000 A 
ENDBRANCH  10  11
ENDBRANCH   9  10
ENDBRANCH   8   9
ENDBRANCH   5   8
ENDBRANCH   1   2
BRANCH   1  19
ATOM     17  O   UNL     1      45.495   7.896  11.815  0.00  0.00    +0.000 OA
ATOM     18  C   UNL     1      46.182   6.929  11.494  0.00  0.00    +0.000 C 
ATOM     19  N   UNL     1      47.528   6.870  11.762  0.00  0.00    +0.000 N 
ATOM     20  H   UNL     1      48.097   6.163  11.308  0.00  0.00    +0.000 HD
BRANCH  18  21
ATOM     21  C   UNL     1      45.590   5.767  10.826  0.00  0.00    +0.000 A 
ATOM     22  C   UNL     1      45.839   5.538   9.479  0.00  0.00    +0.000 A 
ATOM     23  S   UNL     1      45.096   4.126   8.878  0.00  0.00    +0.000 S 
ATOM     24  C   UNL     1      44.449   3.749  10.406  0.00  0.00    +0.000 A 
ATOM     25  N   UNL     1      43.727   2.612  10.601  0.00  0.00    +0.000 NA
ATOM     26  C   UNL     1      43.331   2.437  11.819  0.00  0.00    +0.000 A 
ATOM     27  N   UNL     1      43.577   3.301  12.854  0.00  0.00    +0.000 N 
ATOM     28  C   UNL     1      44.258   4.486  12.692  0.00  0.00    +0.000 A 
ATOM     29  O   UNL     1      44.384   5.278  13.621  0.00  0.00    +0.000 OA
ATOM     30  C   UNL     1      44.761   4.710  11.353  0.00  0.00    +0.000 A 
ATOM     31  H   UNL     1      43.214   3.119  13.778  0.00  0.00    +0.000 HD
ENDBRANCH  18  21
ENDBRANCH   1  19
TORSDOF 7
ENDMDL
MODEL 9
REMARK VINA RESULT:    -7.132      1.778      2.963
REMARK INTER + INTRA:         -11.105
REMARK INTER:                 -10.083
REMARK INTRA:                  -1.022
REMARK UNBOUND:                -1.055
REMARK  Name = 
REMARK  7 active torsions:
REMARK  status: ('A' for Active; 'I' for Inactive)
REMARK    1  A    between atoms: C_2  and  C_20
REMARK    2  A    between atoms: N_3  and  C_4
REMARK    3  A    between atoms: C_4  and  C_5
REMARK    4  A    between atoms: C_8  and  C_9
REMARK    5  A    between atoms: C_9  and  O_10
REMARK    6  A    between atoms: O_10  and  C_11
REMARK    7  A    between atoms: C_11  and  C_12
REMARK                            x       y       z     vdW  Elec       q    Type
REMARK                         _______ _______ _______ _____ _____    ______ ____
ROOT
ATOM      1  C   UNL     1      47.663   3.986  15.470  0.00  0.00    +0.000 C 
ENDROOT
BRANCH   1   2
ATOM      2  C   UNL     1      46.832   4.273  14.249  0.00  0.00    +0.000 A 
ATOM      3  C   UNL     1      46.605   5.592  13.833  0.00  0.00    +0.000 A 
ATOM      4  C   UNL     1      45.889   5.853  12.662  0.00  0.00    +0.000 A 
ATOM      5  C   UNL     1      45.378   4.799  11.893  0.00  0.00    +0.000 A 
ATOM      6  C   UNL     1      45.566   3.483  12.332  0.00  0.00    +0.000 A 
ATOM      7  C   UNL     1      46.282   3.224  13.502  0.00  0.00    +0.000 A 
BRANCH   5   8
ATOM      8  C   UNL     1      44.690   5.078  10.578  0.00  0.00    +0.000 C 
BRANCH   8   9
ATOM      9  O   UNL     1      44.721   3.945   9.707  0.00  0.00    +0.000 OA
BRANCH   9  10
ATOM     10  C   UNL     1      45.062   4.295   8.366  0.00  0.00    +0.000 C 
BRANCH  10  11
ATOM     11  C   UNL     1      45.843   3.173   7.736  0.00  0.00    +0.000 A 
ATOM     12  C   UNL     1      46.557   3.382   6.547  0.00  0.00    +0.000 A 
ATOM     13  C   UNL     1      47.318   2.356   5.989  0.00  0.00    +0.000 A 
ATOM     14  C   UNL     1      47.372   1.110   6.610  0.00  0.00    +0.000 A 
ATOM     15  C   UNL     1      46.655   0.885   7.784  0.00  0.00    +0.000 A 
ATOM     16  C   UNL     1      45.892   1.911   8.344  0.00  0.00    +0.000 A 
ENDBRANCH  10  11
ENDBRANCH   9  10
ENDBRANCH   8   9
ENDBRANCH   5   8
ENDBRANCH   1   2
BRANCH   1  19
ATOM     17  O   UNL     1      49.768   5.319  16.650  0.00  0.00    +0.000 OA
ATOM     18  C   UNL     1      48.628   5.666  16.946  0.00  0.00    +0.000 C 
ATOM     19  N   UNL     1      47.519   5.005  16.477  0.00  0.00    +0.000 N 
ATOM     20  H   UNL     1      46.605   5.434  16.571  0.00  0.00    +0.000 HD
BRANCH  18  21
ATOM     21  C   UNL     1      48.390   6.797  17.847  0.00  0.00    +0.000 A 
ATOM     22  C   UNL     1      48.297   6.587  19.216  0.00  0.00    +0.000 A 
ATOM     23  S   UNL     1      48.050   8.017  20.112  0.00  0.00    +0.000 S 
ATOM     24  C   UNL     1      48.099   8.972  18.704  0.00  0.00    +0.000 A 
ATOM     25  N   UNL     1      47.995  10.327  18.772  0.00  0.00    +0.000 NA
ATOM     26  C   UNL     1      48.087  10.925  17.630  0.00  0.00    +0.000 A 
ATOM     27  N   UNL     1      48.257  10.292  16.427  0.00  0.00    +0.000 N 
ATOM     28  C   UNL     1      48.316   8.922  16.305  0.00  0.00    +0.000 A 
ATOM     29  O   UNL     1      48.380   8.384  15.203  0.00  0.00    +0.000 OA
ATOM     30  C   UNL     1      48.260   8.206  17.563  0.00  0.00    +0.000 A 
ATOM     31  H   UNL     1      48.293  10.817  15.565  0.00  0.00    +0.000 HD
ENDBRANCH  18  21
ENDBRANCH   1  19
TORSDOF 7
ENDMDL
