MODEL 1
REMARK VINA RESULT:    -7.492      0.000      0.000
REMARK INTER + INTRA:          -9.278
REMARK INTER:                  -8.806
REMARK INTRA:                  -0.473
REMARK UNBOUND:                -0.473
REMARK  Name = 
REMARK  3 active torsions:
REMARK  status: ('A' for Active; 'I' for Inactive)
REMARK    1  A    between atoms: N_6  and  C_7
REMARK    2  A    between atoms: C_7  and  C_8
REMARK    3  A    between atoms: C_12  and  N_13
REMARK                            x       y       z     vdW  Elec       q    Type
REMARK                         _______ _______ _______ _____ _____    ______ ____
ROOT
ATOM      1  C   UNL     1      44.880   3.912  11.301  0.00  0.00    +0.000 A 
ATOM      2  C   UNL     1      45.339   3.139  12.360  0.00  0.00    +0.000 A 
ATOM      3  N   UNL     1      46.025   3.662  13.394  0.00  0.00    +0.000 NA
ATOM      4  C   UNL     1      46.219   5.002  13.323  0.00  0.00    +0.000 A 
ATOM      5  C   UNL     1      45.781   5.825  12.274  0.00  0.00    +0.000 A 
ATOM      6  N   UNL     1      45.086   5.264  11.258  0.00  0.00    +0.000 NA
ENDROOT
BRANCH   5   7
ATOM      7  N   UNL     1      45.969   7.198  12.317  0.00  0.00    +0.000 N 
ATOM      8  C   UNL     1      47.336   7.741  12.233  0.00  0.00    +0.000 C 
ATOM      9  C   UNL     1      47.335   9.145  12.862  0.00  0.00    +0.000 C 
ATOM     10  O   UNL     1      46.386  10.011  12.216  0.00  0.00    +0.000 OA
ATOM     11  C   UNL     1      45.058   9.453  12.286  0.00  0.00    +0.000 C 
ATOM     12  C   UNL     1      44.992   8.058  11.631  0.00  0.00    +0.000 C 
ENDBRANCH   5   7
BRANCH   1  13
ATOM     13  C   UNL     1      44.184   3.252  10.135  0.00  0.00    +0.000 C 
BRANCH  13  19
ATOM     14  F   UNL     1      48.141   2.090   5.327  0.00  0.00    +0.000 F 
ATOM     15  C   UNL     1      47.348   2.106   6.404  0.00  0.00    +0.000 A 
ATOM     16  C   UNL     1      46.748   3.250   6.852  0.00  0.00    +0.000 A 
ATOM     17  N   UNL     1      45.918   3.286   7.921  0.00  0.00    +0.000 NA
ATOM     18  C   UNL     1      45.720   2.128   8.577  0.00  0.00    +0.000 A 
ATOM     19  N   UNL     1      44.863   2.077   9.641  0.00  0.00    +0.000 N 
ATOM     20  N   UNL     1      46.299   0.969   8.232  0.00  0.00    +0.000 NA
ATOM     21  C   UNL     1      47.087   0.976   7.133  0.00  0.00    +0.000 A 
ATOM     22  H   UNL     1      45.087   1.337  10.291  0.00  0.00    +0.000 HD
ENDBRANCH  13  19
ENDBRANCH   1  13
TORSDOF 3
ENDMDL
MODEL 2
REMARK VINA RESULT:    -7.304      1.304      1.995
REMARK INTER + INTRA:          -9.057
REMARK INTER:                  -8.615
REMARK INTRA:                  -0.442
REMARK UNBOUND:                -0.473
REMARK  Name = 
REMARK  3 active torsions:
REMARK  status: ('A' for Active; 'I' for Inactive)
REMARK    1  A    between atoms: N_6  and  C_7
REMARK    2  A    between atoms: C_7  and  C_8
REMARK    3  A    between atoms: C_12  and  N_13
REMARK                            x       y       z     vdW  Elec       q    Type
REMARK                         _______ _______ _______ _____ _____    ______ ____
ROOT
ATOM      1  C   UNL     1      44.883   4.493  11.317  0.00  0.00    +0.000 A 
ATOM      2  C   UNL     1      44.979   3.412  12.185  0.00  0.00    +0.000 A 
ATOM      3  N   UNL     1      45.746   3.439  13.292  0.00  0.00    +0.000 NA
ATOM      4  C   UNL     1      46.404   4.608  13.495  0.00  0.00    +0.000 A 
ATOM      5  C   UNL     1      46.344   5.724  12.647  0.00  0.00    +0.000 A 
ATOM      6  N   UNL     1      45.554   5.661  11.550  0.00  0.00    +0.000 NA
ENDROOT
BRANCH   5   7
ATOM      7  N   UNL     1      47.000   6.903  12.968  0.00  0.00    +0.000 N 
ATOM      8  C   UNL     1      46.233   8.159  13.032  0.00  0.00    +0.000 C 
ATOM      9  C   UNL     1      47.211   9.329  12.825  0.00  0.00    +0.000 C 
ATOM     10  O   UNL     1      48.269   9.309  13.799  0.00  0.00    +0.000 OA
ATOM     11  C   UNL     1      48.992   8.064  13.739  0.00  0.00    +0.000 C 
ATOM     12  C   UNL     1      48.065   6.855  13.981  0.00  0.00    +0.000 C 
ENDBRANCH   5   7
BRANCH   1  13
ATOM     13  C   UNL     1      44.066   4.370  10.053  0.00  0.00    +0.000 C 
BRANCH  13  19
ATOM     14  F   UNL     1      47.768   0.855   6.303  0.00  0.00    +0.000 F 
ATOM     15  C   UNL     1      47.018   1.769   6.927  0.00  0.00    +0.000 A 
ATOM     16  C   UNL     1      46.299   1.477   8.054  0.00  0.00    +0.000 A 
ATOM     17  N   UNL     1      45.556   2.392   8.720  0.00  0.00    +0.000 NA
ATOM     18  C   UNL     1      45.514   3.634   8.206  0.00  0.00    +0.000 A 
ATOM     19  N   UNL     1      44.819   4.622   8.846  0.00  0.00    +0.000 N 
ATOM     20  N   UNL     1      46.155   3.997   7.085  0.00  0.00    +0.000 NA
ATOM     21  C   UNL     1      46.916   3.059   6.478  0.00  0.00    +0.000 A 
ATOM     22  H   UNL     1      44.503   5.350   8.220  0.00  0.00    +0.000 HD
ENDBRANCH  13  19
ENDBRANCH   1  13
TORSDOF 3
ENDMDL
MODEL 3
REMARK VINA RESULT:    -6.710      5.264      7.770
REMARK INTER + INTRA:          -8.359
REMARK INTER:                  -7.927
REMARK INTRA:                  -0.432
REMARK UNBOUND:                -0.473
REMARK  Name = 
REMARK  3 active torsions:
REMARK  status: ('A' for Active; 'I' for Inactive)
REMARK    1  A    between atoms: N_6  and  C_7
REMARK    2  A    between atoms: C_7  and  C_8
REMARK    3  A    between atoms: C_12  and  N_13
REMARK                            x       y       z     vdW  Elec       q    Type
REMARK                         _______ _______ _______ _____ _____    ______ ____
ROOT
ATOM      1  C   UNL     1      47.307   4.650  15.502  0.00  0.00    +0.000 A 
ATOM      2  C   UNL     1      48.210   5.629  15.106  0.00  0.00    +0.000 A 
ATOM      3  N   UNL     1      48.138   6.238  13.907  0.00  0.00    +0.000 NA
ATOM      4  C   UNL     1      47.107   5.828  13.126  0.00  0.00    +0.000 A 
ATOM      5  C   UNL     1      46.173   4.842  13.478  0.00  0.00    +0.000 A 
ATOM      6  N   UNL     1      46.273   4.260  14.695  0.00  0.00    +0.000 NA
ENDROOT
BRANCH   5   7
ATOM      7  N   UNL     1      45.112   4.532  12.641  0.00  0.00    +0.000 N 
ATOM      8  C   UNL     1      44.982   3.158  12.123  0.00  0.00    +0.000 C 
ATOM      9  C   UNL     1      44.140   3.209  10.836  0.00  0.00    +0.000 C 
ATOM     10  O   UNL     1      42.852   3.806  11.072  0.00  0.00    +0.000 OA
ATOM     11  C   UNL     1      42.999   5.139  11.602  0.00  0.00    +0.000 C 
ATOM     12  C   UNL     1      43.803   5.142  12.918  0.00  0.00    +0.000 C 
ENDBRANCH   5   7
BRANCH   1  13
ATOM     13  C   UNL     1      47.489   3.952  16.828  0.00  0.00    +0.000 C 
BRANCH  13  19
ATOM     14  F   UNL     1      53.541   2.508  18.015  0.00  0.00    +0.000 F 
ATOM     15  C   UNL     1      52.237   2.575  17.728  0.00  0.00    +0.000 A 
ATOM     16  C   UNL     1      51.523   3.736  17.846  0.00  0.00    +0.000 A 
ATOM     17  N   UNL     1      50.210   3.836  17.533  0.00  0.00    +0.000 NA
ATOM     18  C   UNL     1      49.594   2.713  17.120  0.00  0.00    +0.000 A 
ATOM     19  N   UNL     1      48.279   2.745  16.747  0.00  0.00    +0.000 N 
ATOM     20  N   UNL     1      50.207   1.525  17.014  0.00  0.00    +0.000 NA
ATOM     21  C   UNL     1      51.528   1.484  17.299  0.00  0.00    +0.000 A 
ATOM     22  H   UNL     1      47.816   1.854  16.860  0.00  0.00    +0.000 HD
ENDBRANCH  13  19
ENDBRANCH   1  13
TORSDOF 3
ENDMDL
MODEL 4
REMARK VINA RESULT:    -6.272      4.561      7.817
REMARK INTER + INTRA:          -7.844
REMARK INTER:                  -7.339
REMARK INTRA:                  -0.506
REMARK UNBOUND:                -0.473
REMARK  Name = 
REMARK  3 active torsions:
REMARK  status: ('A' for Active; 'I' for Inactive)
REMARK    1  A    between atoms: N_6  and  C_7
REMARK    2  A    between atoms: C_7  and  C_8
REMARK    3  A    between atoms: C_12  and  N_13
REMARK                            x       y       z     vdW  Elec       q    Type
REMARK                         _______ _______ _______ _____ _____    ______ ____
ROOT
ATOM      1  C   UNL     1      47.320   7.107  13.573  0.00  0.00    +0.000 A 
ATOM      2  C   UNL     1      46.801   8.374  13.341  0.00  0.00    +0.000 A 
ATOM      3  N   UNL     1      45.665   8.575  12.645  0.00  0.00    +0.000 NA
ATOM      4  C   UNL     1      45.066   7.441  12.202  0.00  0.00    +0.000 A 
ATOM      5  C   UNL     1      45.553   6.141  12.406  0.00  0.00    +0.000 A 
ATOM      6  N   UNL     1      46.692   5.980  13.119  0.00  0.00    +0.000 NA
ENDROOT
BRANCH   5   7
ATOM      7  N   UNL     1      44.839   5.034  11.973  0.00  0.00    +0.000 N 
ATOM      8  C   UNL     1      43.802   4.458  12.847  0.00  0.00    +0.000 C 
ATOM      9  C   UNL     1      43.589   2.991  12.437  0.00  0.00    +0.000 C 
ATOM     10  O   UNL     1      43.227   2.879  11.049  0.00  0.00    +0.000 OA
ATOM     11  C   UNL     1      44.241   3.469  10.211  0.00  0.00    +0.000 C 
ATOM     12  C   UNL     1      44.467   4.956  10.552  0.00  0.00    +0.000 C 
ENDBRANCH   5   7
BRANCH   1  13
ATOM     13  C   UNL     1      48.638   6.956  14.294  0.00  0.00    +0.000 C 
BRANCH  13  19
ATOM     14  F   UNL     1      48.144   2.776  19.028  0.00  0.00    +0.000 F 
ATOM     15  C   UNL     1      48.264   3.823  18.206  0.00  0.00    +0.000 A 
ATOM     16  C   UNL     1      48.391   3.677  16.851  0.00  0.00    +0.000 A 
ATOM     17  N   UNL     1      48.483   4.721  15.996  0.00  0.00    +0.000 NA
ATOM     18  C   UNL     1      48.482   5.953  16.535  0.00  0.00    +0.000 A 
ATOM     19  N   UNL     1      48.530   7.058  15.731  0.00  0.00    +0.000 N 
ATOM     20  N   UNL     1      48.402   6.188  17.853  0.00  0.00    +0.000 NA
ATOM     21  C   UNL     1      48.269   5.114  18.664  0.00  0.00    +0.000 A 
ATOM     22  H   UNL     1      48.933   7.863  16.192  0.00  0.00    +0.000 HD
ENDBRANCH  13  19
ENDBRANCH   1  13
TORSDOF 3
ENDMDL
MODEL 5
REMARK VINA RESULT:    -5.989      5.974      9.116
REMARK INTER + INTRA:          -7.513
REMARK INTER:                  -7.109
REMARK INTRA:                  -0.404
REMARK UNBOUND:                -0.473
REMARK  Name = 
REMARK  3 active torsions:
REMARK  status: ('A' for Active; 'I' for Inactive)
REMARK    1  A    between atoms: N_6  and  C_7
REMARK    2  A    between atoms: C_7  and  C_8
REMARK    3  A    between atoms: C_12  and  N_13
REMARK                            x       y       z     vdW  Elec       q    Type
REMARK                         _______ _______ _______ _____ _____    ______ ____
ROOT
ATOM      1  C   UNL     1      47.227   4.659  15.540  0.00  0.00    +0.000 A 
ATOM      2  C   UNL     1      48.181   5.589  15.147  0.00  0.00    +0.000 A 
ATOM      3  N   UNL     1      48.176   6.160  13.927  0.00  0.00    +0.000 NA
ATOM      4  C   UNL     1      47.160   5.761  13.121  0.00  0.00    +0.000 A 
ATOM      5  C   UNL     1      46.176   4.823  13.469  0.00  0.00    +0.000 A 
ATOM      6  N   UNL     1      46.210   4.280  14.708  0.00  0.00    +0.000 NA
ENDROOT
BRANCH   5   7
ATOM      7  N   UNL     1      45.136   4.524  12.604  0.00  0.00    +0.000 N 
ATOM      8  C   UNL     1      45.156   3.248  11.867  0.00  0.00    +0.000 C 
ATOM      9  C   UNL     1      44.276   3.402  10.615  0.00  0.00    +0.000 C 
ATOM     10  O   UNL     1      42.934   3.789  10.958  0.00  0.00    +0.000 OA
ATOM     11  C   UNL     1      42.935   5.026  11.699  0.00  0.00    +0.000 C 
ATOM     12  C   UNL     1      43.771   4.915  12.990  0.00  0.00    +0.000 C 
ENDBRANCH   5   7
BRANCH   1  13
ATOM     13  C   UNL     1      47.333   4.000  16.895  0.00  0.00    +0.000 C 
BRANCH  13  19
ATOM     14  F   UNL     1      50.229   6.245  22.062  0.00  0.00    +0.000 F 
ATOM     15  C   UNL     1      49.434   5.914  21.039  0.00  0.00    +0.000 A 
ATOM     16  C   UNL     1      49.863   5.123  20.008  0.00  0.00    +0.000 A 
ATOM     17  N   UNL     1      49.069   4.750  18.978  0.00  0.00    +0.000 NA
ATOM     18  C   UNL     1      47.809   5.222  18.976  0.00  0.00    +0.000 A 
ATOM     19  N   UNL     1      46.936   4.854  17.990  0.00  0.00    +0.000 N 
ATOM     20  N   UNL     1      47.318   6.033  19.924  0.00  0.00    +0.000 NA
ATOM     21  C   UNL     1      48.137   6.345  20.954  0.00  0.00    +0.000 A 
ATOM     22  H   UNL     1      46.209   5.538  17.833  0.00  0.00    +0.000 HD
ENDBRANCH  13  19
ENDBRANCH   1  13
TORSDOF 3
ENDMDL
MODEL 6
REMARK VINA RESULT:    -5.946      1.825      2.314
REMARK INTER + INTRA:          -7.462
REMARK INTER:                  -7.298
REMARK INTRA:                  -0.164
REMARK UNBOUND:                -0.473
REMARK  Name = 
REMARK  3 active torsions:
REMARK  status: ('A' for Active; 'I' for Inactive)
REMARK    1  A    between atoms: N_6  and  C_7
REMARK    2  A    between atoms: C_7  and  C_8
REMARK    3  A    between atoms: C_12  and  N_13
REMARK                            x       y       z     vdW  Elec       q    Type
REMARK                         _______ _______ _______ _____ _____    ______ ____
ROOT
ATOM      1  C   UNL     1      44.849   5.370  13.002  0.00  0.00    +0.000 A 
ATOM      2  C   UNL     1      45.870   4.733  13.696  0.00  0.00    +0.000 A 
ATOM      3  N   UNL     1      47.045   5.333  13.968  0.00  0.00    +0.000 NA
ATOM      4  C   UNL     1      47.143   6.610  13.521  0.00  0.00    +0.000 A 
ATOM      5  C   UNL     1      46.144   7.295  12.813  0.00  0.00    +0.000 A 
ATOM      6  N   UNL     1      44.974   6.661  12.568  0.00  0.00    +0.000 NA
ENDROOT
BRANCH   5   7
ATOM      7  N   UNL     1      46.307   8.624  12.452  0.00  0.00    +0.000 N 
ATOM      8  C   UNL     1      47.648   9.109  12.078  0.00  0.00    +0.000 C 
ATOM      9  C   UNL     1      47.683  10.632  12.288  0.00  0.00    +0.000 C 
ATOM     10  O   UNL     1      46.655  11.292  11.529  0.00  0.00    +0.000 OA
ATOM     11  C   UNL     1      45.353  10.788  11.889  0.00  0.00    +0.000 C 
ATOM     12  C   UNL     1      45.249   9.267  11.659  0.00  0.00    +0.000 C 
ENDBRANCH   5   7
BRANCH   1  13
ATOM     13  C   UNL     1      43.586   4.615  12.663  0.00  0.00    +0.000 C 
BRANCH  13  19
ATOM     14  F   UNL     1      45.678   3.345   6.821  0.00  0.00    +0.000 F 
ATOM     15  C   UNL     1      45.242   3.373   8.084  0.00  0.00    +0.000 A 
ATOM     16  C   UNL     1      45.065   4.544   8.769  0.00  0.00    +0.000 A 
ATOM     17  N   UNL     1      44.596   4.600  10.038  0.00  0.00    +0.000 NA
ATOM     18  C   UNL     1      44.331   3.427  10.642  0.00  0.00    +0.000 A 
ATOM     19  N   UNL     1      43.816   3.405  11.908  0.00  0.00    +0.000 N 
ATOM     20  N   UNL     1      44.513   2.233  10.060  0.00  0.00    +0.000 NA
ATOM     21  C   UNL     1      44.944   2.230   8.778  0.00  0.00    +0.000 A 
ATOM     22  H   UNL     1      44.038   2.556  12.409  0.00  0.00    +0.000 HD
ENDBRANCH  13  19
ENDBRANCH   1  13
TORSDOF 3
ENDMDL
MODEL 7
REMARK VINA RESULT:    -5.915      4.452      6.608
REMARK INTER + INTRA:          -7.425
REMARK INTER:                  -6.916
REMARK INTRA:                  -0.510
REMARK UNBOUND:                -0.473
REMARK  Name = 
REMARK  3 active torsions:
REMARK  status: ('A' for Active; 'I' for Inactive)
REMARK    1  A    between atoms: N_6  and  C_7
REMARK    2  A    between atoms: C_7  and  C_8
REMARK    3  A    between atoms: C_12  and  N_13
REMARK                            x       y       z     vdW  Elec       q    Type
REMARK                         _______ _______ _______ _____ _____    ______ ____
ROOT
ATOM      1  C   UNL     1      48.354   6.870  13.769  0.00  0.00    +0.000 A 
ATOM      2  C   UNL     1      49.454   7.713  13.668  0.00  0.00    +0.000 A 
ATOM      3  N   UNL     1      50.383   7.808  14.639  0.00  0.00    +0.000 NA
ATOM      4  C   UNL     1      50.163   7.008  15.712  0.00  0.00    +0.000 A 
ATOM      5  C   UNL     1      49.067   6.146  15.863  0.00  0.00    +0.000 A 
ATOM      6  N   UNL     1      48.160   6.070  14.861  0.00  0.00    +0.000 NA
ENDROOT
BRANCH   5   7
ATOM      7  N   UNL     1      48.957   5.315  16.967  0.00  0.00    +0.000 N 
ATOM      8  C   UNL     1      48.906   5.912  18.314  0.00  0.00    +0.000 C 
ATOM      9  C   UNL     1      49.360   4.847  19.328  0.00  0.00    +0.000 C 
ATOM     10  O   UNL     1      48.548   3.662  19.247  0.00  0.00    +0.000 OA
ATOM     11  C   UNL     1      48.591   3.107  17.917  0.00  0.00    +0.000 C 
ATOM     12  C   UNL     1      48.105   4.121  16.861  0.00  0.00    +0.000 C 
ENDBRANCH   5   7
BRANCH   1  13
ATOM     13  C   UNL     1      47.309   6.867  12.679  0.00  0.00    +0.000 C 
BRANCH  13  19
ATOM     14  F   UNL     1      42.864   2.457  11.725  0.00  0.00    +0.000 F 
ATOM     15  C   UNL     1      43.647   3.476  12.090  0.00  0.00    +0.000 A 
ATOM     16  C   UNL     1      44.927   3.616  11.626  0.00  0.00    +0.000 A 
ATOM     17  N   UNL     1      45.729   4.654  11.958  0.00  0.00    +0.000 NA
ATOM     18  C   UNL     1      45.227   5.563  12.814  0.00  0.00    +0.000 A 
ATOM     19  N   UNL     1      45.963   6.661  13.163  0.00  0.00    +0.000 N 
ATOM     20  N   UNL     1      44.000   5.483  13.348  0.00  0.00    +0.000 NA
ATOM     21  C   UNL     1      43.222   4.450  12.955  0.00  0.00    +0.000 A 
ATOM     22  H   UNL     1      45.711   7.033  14.068  0.00  0.00    +0.000 HD
ENDBRANCH  13  19
ENDBRANCH   1  13
TORSDOF 3
ENDMDL
MODEL 8
REMARK VINA RESULT:    -5.885      4.808      8.119
REMARK INTER + INTRA:          -7.390
REMARK INTER:                  -6.926
REMARK INTRA:                  -0.465
REMARK UNBOUND:                -0.473
REMARK  Name = 
REMARK  3 active torsions:
REMARK  status: ('A' for Active; 'I' for Inactive)
REMARK    1  A    between atoms: N_6  and  C_7
REMARK    2  A    between atoms: C_7  and  C_8
REMARK    3  A    between atoms: C_12  and  N_13
REMARK                            x       y       z     vdW  Elec       q    Type
REMARK                         _______ _______ _______ _____ _____    ______ ____
ROOT
ATOM      1  C   UNL     1      45.324   8.728  12.144  0.00  0.00    +0.000 A 
ATOM      2  C   UNL     1      46.481   8.700  12.913  0.00  0.00    +0.000 A 
ATOM      3  N   UNL     1      47.012   7.554  13.380  0.00  0.00    +0.000 NA
ATOM      4  C   UNL     1      46.334   6.433  13.028  0.00  0.00    +0.000 A 
ATOM      5  C   UNL     1      45.161   6.409  12.259  0.00  0.00    +0.000 A 
ATOM      6  N   UNL     1      44.664   7.581  11.800  0.00  0.00    +0.000 NA
ENDROOT
BRANCH   5   7
ATOM      7  N   UNL     1      44.570   5.209  11.892  0.00  0.00    +0.000 N 
ATOM      8  C   UNL     1      43.615   4.567  12.812  0.00  0.00    +0.000 C 
ATOM      9  C   UNL     1      43.563   3.066  12.478  0.00  0.00    +0.000 C 
ATOM     10  O   UNL     1      43.199   2.845  11.104  0.00  0.00    +0.000 OA
ATOM     11  C   UNL     1      44.129   3.501  10.219  0.00  0.00    +0.000 C 
ATOM     12  C   UNL     1      44.191   5.019  10.484  0.00  0.00    +0.000 C 
ENDBRANCH   5   7
BRANCH   1  13
ATOM     13  C   UNL     1      44.738  10.053  11.717  0.00  0.00    +0.000 C 
BRANCH  13  19
ATOM     14  F   UNL     1      38.791  12.230  11.662  0.00  0.00    +0.000 F 
ATOM     15  C   UNL     1      39.994  11.688  11.452  0.00  0.00    +0.000 A 
ATOM     16  C   UNL     1      41.033  11.854  12.327  0.00  0.00    +0.000 A 
ATOM     17  N   UNL     1      42.250  11.291  12.152  0.00  0.00    +0.000 NA
ATOM     18  C   UNL     1      42.431  10.563  11.035  0.00  0.00    +0.000 A 
ATOM     19  N   UNL     1      43.621   9.930  10.809  0.00  0.00    +0.000 N 
ATOM     20  N   UNL     1      41.482  10.382  10.105  0.00  0.00    +0.000 NA
ATOM     21  C   UNL     1      40.270  10.930  10.345  0.00  0.00    +0.000 A 
ATOM     22  H   UNL     1      43.808   9.781   9.828  0.00  0.00    +0.000 HD
ENDBRANCH  13  19
ENDBRANCH   1  13
TORSDOF 3
ENDMDL
MODEL 9
REMARK VINA RESULT:    -5.826      4.647      6.619
REMARK INTER + INTRA:          -7.320
REMARK INTER:                  -6.882
REMARK INTRA:                  -0.439
REMARK UNBOUND:                -0.473
REMARK  Name = 
REMARK  3 active torsions:
REMARK  status: ('A' for Active; 'I' for Inactive)
REMARK    1  A    between atoms: N_6  and  C_7
REMARK    2  A    between atoms: C_7  and  C_8
REMARK    3  A    between atoms: C_12  and  N_13
REMARK                            x       y       z     vdW  Elec       q    Type
REMARK                         _______ _______ _______ _____ _____    ______ ____
ROOT
ATOM      1  C   UNL     1      45.238   4.937  12.614  0.00  0.00    +0.000 A 
ATOM      2  C   UNL     1      44.111   4.322  12.083  0.00  0.00    +0.000 A 
ATOM      3  N   UNL     1      43.161   5.004  11.414  0.00  0.00    +0.000 NA
ATOM      4  C   UNL     1      43.401   6.334  11.292  0.00  0.00    +0.000 A 
ATOM      5  C   UNL     1      44.520   7.002  11.813  0.00  0.00    +0.000 A 
ATOM      6  N   UNL     1      45.457   6.280  12.470  0.00  0.00    +0.000 NA
ENDROOT
BRANCH   5   7
ATOM      7  N   UNL     1      44.716   8.355  11.584  0.00  0.00    +0.000 N 
ATOM      8  C   UNL     1      43.630   9.147  10.980  0.00  0.00    +0.000 C 
ATOM      9  C   UNL     1      44.253  10.389  10.318  0.00  0.00    +0.000 C 
ATOM     10  O   UNL     1      45.008  11.167  11.263  0.00  0.00    +0.000 OA
ATOM     11  C   UNL     1      46.049  10.369  11.861  0.00  0.00    +0.000 C 
ATOM     12  C   UNL     1      45.476   9.129  12.577  0.00  0.00    +0.000 C 
ENDBRANCH   5   7
BRANCH   1  13
ATOM     13  C   UNL     1      46.226   4.128  13.418  0.00  0.00    +0.000 C 
BRANCH  13  19
ATOM     14  F   UNL     1      48.519   3.895  19.318  0.00  0.00    +0.000 F 
ATOM     15  C   UNL     1      48.192   4.126  18.043  0.00  0.00    +0.000 A 
ATOM     16  C   UNL     1      47.327   3.320  17.354  0.00  0.00    +0.000 A 
ATOM     17  N   UNL     1      46.958   3.550  16.072  0.00  0.00    +0.000 NA
ATOM     18  C   UNL     1      47.511   4.612  15.459  0.00  0.00    +0.000 A 
ATOM     19  N   UNL     1      47.155   4.932  14.178  0.00  0.00    +0.000 N 
ATOM     20  N   UNL     1      48.398   5.431  16.045  0.00  0.00    +0.000 NA
ATOM     21  C   UNL     1      48.704   5.184  17.339  0.00  0.00    +0.000 A 
ATOM     22  H   UNL     1      47.877   5.437  13.684  0.00  0.00    +0.000 HD
ENDBRANCH  13  19
ENDBRANCH   1  13
TORSDOF 3
ENDMDL
