MODEL 1
REMARK VINA RESULT:    -7.867      0.000      0.000
REMARK INTER + INTRA:         -12.655
REMARK INTER:                 -11.546
REMARK INTRA:                  -1.109
REMARK UNBOUND:                -1.109
REMARK  Name = 
REMARK  8 active torsions:
REMARK  status: ('A' for Active; 'I' for Inactive)
REMARK    1  A    between atoms: C_2  and  C_22
REMARK    2  A    between atoms: N_3  and  C_4
REMARK    3  A    between atoms: C_4  and  C_5
REMARK    4  A    between atoms: C_8  and  C_9
REMARK    5  A    between atoms: C_9  and  C_10
REMARK    6  A    between atoms: C_10  and  N_11
REMARK    7  A    between atoms: N_11  and  C_12
REMARK    8  A    between atoms: C_12  and  C_13
REMARK                            x       y       z     vdW  Elec       q    Type
REMARK                         _______ _______ _______ _____ _____    ______ ____
ROOT
ATOM      1  C   UNL     1      47.061   6.229  12.850  0.00  0.00    +0.000 A 
ATOM      2  C   UNL     1      46.775   6.534  11.513  0.00  0.00    +0.000 A 
ATOM      3  C   UNL     1      45.669   5.970  10.872  0.00  0.00    +0.000 A 
ATOM      4  C   UNL     1      44.820   5.095  11.560  0.00  0.00    +0.000 A 
ATOM      5  C   UNL     1      45.091   4.809  12.904  0.00  0.00    +0.000 A 
ATOM      6  C   UNL     1      46.193   5.379  13.547  0.00  0.00    +0.000 A 
ENDROOT
BRANCH   1   7
ATOM      7  C   UNL     1      48.294   6.790  13.505  0.00  0.00    +0.000 C 
BRANCH   7  10
ATOM      8  O   UNL     1      50.435   6.827  15.321  0.00  0.00    +0.000 OA
ATOM      9  C   UNL     1      49.287   6.885  15.750  0.00  0.00    +0.000 C 
ATOM     10  N   UNL     1      48.185   6.836  14.936  0.00  0.00    +0.000 N 
ATOM     11  H   UNL     1      47.270   7.066  15.311  0.00  0.00    +0.000 HD
BRANCH   9  12
ATOM     12  C   UNL     1      49.019   6.976  17.187  0.00  0.00    +0.000 A 
ATOM     13  C   UNL     1      48.692   8.194  17.767  0.00  0.00    +0.000 A 
ATOM     14  S   UNL     1      48.344   8.073  19.435  0.00  0.00    +0.000 S 
ATOM     15  C   UNL     1      48.608   6.391  19.423  0.00  0.00    +0.000 A 
ATOM     16  N   UNL     1      48.428   5.642  20.547  0.00  0.00    +0.000 NA
ATOM     17  C   UNL     1      48.630   4.376  20.372  0.00  0.00    +0.000 A 
ATOM     18  N   UNL     1      49.008   3.793  19.188  0.00  0.00    +0.000 N 
ATOM     19  C   UNL     1      49.292   4.518  18.060  0.00  0.00    +0.000 A 
ATOM     20  O   UNL     1      49.799   3.988  17.084  0.00  0.00    +0.000 OA
ATOM     21  C   UNL     1      49.003   5.938  18.179  0.00  0.00    +0.000 A 
ATOM     22  H   UNL     1      49.206   2.807  19.132  0.00  0.00    +0.000 HD
ENDBRANCH   9  12
ENDBRANCH   7  10
ENDBRANCH   1   7
BRANCH   4  23
ATOM     23  C   UNL     1      43.608   4.490  10.890  0.00  0.00    +0.000 C 
BRANCH  23  24
ATOM     24  C   UNL     1      43.519   2.970  11.066  0.00  0.00    +0.000 C 
BRANCH  24  25
ATOM     25  N   UNL     1      44.747   2.329  10.577  0.00  0.00    +0.000 NA
ATOM     26  H   UNL     1      44.925   1.491  11.133  0.00  0.00    +0.000 HD
BRANCH  25  27
ATOM     27  C   UNL     1      44.586   1.933   9.172  0.00  0.00    +0.000 C 
BRANCH  27  28
ATOM     28  C   UNL     1      45.696   2.437   8.288  0.00  0.00    +0.000 A 
ATOM     29  C   UNL     1      45.826   3.790   7.988  0.00  0.00    +0.000 A 
ATOM     30  N   UNL     1      46.784   4.312   7.183  0.00  0.00    +0.000 NA
ATOM     31  C   UNL     1      47.651   3.447   6.624  0.00  0.00    +0.000 A 
ATOM     32  C   UNL     1      47.599   2.082   6.823  0.00  0.00    +0.000 A 
ATOM     33  C   UNL     1      46.605   1.579   7.658  0.00  0.00    +0.000 A 
ATOM     34 CL   UNL     1      46.544  -0.136   7.871  0.00  0.00    +0.000 Cl
ENDBRANCH  27  28
ENDBRANCH  25  27
ENDBRANCH  24  25
ENDBRANCH  23  24
ENDBRANCH   4  23
TORSDOF 8
ENDMDL
MODEL 2
REMARK VINA RESULT:    -7.588      1.673      1.859
REMARK INTER + INTRA:         -12.245
REMARK INTER:                 -10.961
REMARK INTRA:                  -1.284
REMARK UNBOUND:                -1.109
REMARK  Name = 
REMARK  8 active torsions:
REMARK  status: ('A' for Active; 'I' for Inactive)
REMARK    1  A    between atoms: C_2  and  C_22
REMARK    2  A    between atoms: N_3  and  C_4
REMARK    3  A    between atoms: C_4  and  C_5
REMARK    4  A    between atoms: C_8  and  C_9
REMARK    5  A    between atoms: C_9  and  C_10
REMARK    6  A    between atoms: C_10  and  N_11
REMARK    7  A    between atoms: N_11  and  C_12
REMARK    8  A    between atoms: C_12  and  C_13
REMARK                            x       y       z     vdW  Elec       q    Type
REMARK                         _______ _______ _______ _____ _____    ______ ____
ROOT
ATOM      1  C   UNL     1      46.161   7.097  12.852  0.00  0.00    +0.000 A 
ATOM      2  C   UNL     1      45.435   7.444  11.706  0.00  0.00    +0.000 A 
ATOM      3  C   UNL     1      44.505   6.559  11.155  0.00  0.00    +0.000 A 
ATOM      4  C   UNL     1      44.275   5.310  11.748  0.00  0.00    +0.000 A 
ATOM      5  C   UNL     1      44.983   4.974  12.908  0.00  0.00    +0.000 A 
ATOM      6  C   UNL     1      45.908   5.862  13.463  0.00  0.00    +0.000 A 
ENDROOT
BRANCH   1   7
ATOM      7  C   UNL     1      47.209   8.033  13.393  0.00  0.00    +0.000 C 
BRANCH   7  10
ATOM      8  O   UNL     1      49.794   7.019  13.806  0.00  0.00    +0.000 OA
ATOM      9  C   UNL     1      49.039   7.137  14.766  0.00  0.00    +0.000 C 
ATOM     10  N   UNL     1      47.750   7.588  14.647  0.00  0.00    +0.000 N 
ATOM     11  H   UNL     1      47.224   7.839  15.478  0.00  0.00    +0.000 HD
BRANCH   9  12
ATOM     12  C   UNL     1      49.464   6.761  16.116  0.00  0.00    +0.000 A 
ATOM     13  C   UNL     1      50.352   7.561  16.823  0.00  0.00    +0.000 A 
ATOM     14  S   UNL     1      50.662   6.988  18.402  0.00  0.00    +0.000 S 
ATOM     15  C   UNL     1      49.610   5.667  18.187  0.00  0.00    +0.000 A 
ATOM     16  N   UNL     1      49.372   4.784  19.198  0.00  0.00    +0.000 NA
ATOM     17  C   UNL     1      48.522   3.857  18.896  0.00  0.00    +0.000 A 
ATOM     18  N   UNL     1      47.901   3.720  17.679  0.00  0.00    +0.000 N 
ATOM     19  C   UNL     1      48.182   4.526  16.607  0.00  0.00    +0.000 A 
ATOM     20  O   UNL     1      47.752   4.266  15.496  0.00  0.00    +0.000 OA
ATOM     21  C   UNL     1      49.071   5.636  16.916  0.00  0.00    +0.000 A 
ATOM     22  H   UNL     1      47.292   2.941  17.489  0.00  0.00    +0.000 HD
ENDBRANCH   9  12
ENDBRANCH   7  10
ENDBRANCH   1   7
BRANCH   4  23
ATOM     23  C   UNL     1      43.260   4.348  11.178  0.00  0.00    +0.000 C 
BRANCH  23  24
ATOM     24  C   UNL     1      43.556   2.884  11.527  0.00  0.00    +0.000 C 
BRANCH  24  25
ATOM     25  N   UNL     1      44.691   2.393  10.733  0.00  0.00    +0.000 NA
ATOM     26  H   UNL     1      44.891   1.430  11.009  0.00  0.00    +0.000 HD
BRANCH  25  27
ATOM     27  C   UNL     1      44.355   2.411   9.305  0.00  0.00    +0.000 C 
BRANCH  27  28
ATOM     28  C   UNL     1      45.556   2.218   8.416  0.00  0.00    +0.000 A 
ATOM     29  C   UNL     1      46.032   0.946   8.107  0.00  0.00    +0.000 A 
ATOM     30  N   UNL     1      47.117   0.697   7.334  0.00  0.00    +0.000 NA
ATOM     31  C   UNL     1      47.785   1.764   6.857  0.00  0.00    +0.000 A 
ATOM     32  C   UNL     1      47.426   3.069   7.124  0.00  0.00    +0.000 A 
ATOM     33  C   UNL     1      46.304   3.290   7.918  0.00  0.00    +0.000 A 
ATOM     34 CL   UNL     1      45.889   4.934   8.260  0.00  0.00    +0.000 Cl
ENDBRANCH  27  28
ENDBRANCH  25  27
ENDBRANCH  24  25
ENDBRANCH  23  24
ENDBRANCH   4  23
TORSDOF 8
ENDMDL
MODEL 3
REMARK VINA RESULT:    -7.346      4.512      9.258
REMARK INTER + INTRA:         -11.890
REMARK INTER:                  -9.545
REMARK INTRA:                  -2.345
REMARK UNBOUND:                -1.109
REMARK  Name = 
REMARK  8 active torsions:
REMARK  status: ('A' for Active; 'I' for Inactive)
REMARK    1  A    between atoms: C_2  and  C_22
REMARK    2  A    between atoms: N_3  and  C_4
REMARK    3  A    between atoms: C_4  and  C_5
REMARK    4  A    between atoms: C_8  and  C_9
REMARK    5  A    between atoms: C_9  and  C_10
REMARK    6  A    between atoms: C_10  and  N_11
REMARK    7  A    between atoms: N_11  and  C_12
REMARK    8  A    between atoms: C_12  and  C_13
REMARK                            x       y       z     vdW  Elec       q    Type
REMARK                         _______ _______ _______ _____ _____    ______ ____
ROOT
ATOM      1  C   UNL     1      47.752   4.195  17.772  0.00  0.00    +0.000 A 
ATOM      2  C   UNL     1      48.817   3.709  18.541  0.00  0.00    +0.000 A 
ATOM      3  C   UNL     1      49.143   4.299  19.764  0.00  0.00    +0.000 A 
ATOM      4  C   UNL     1      48.403   5.385  20.248  0.00  0.00    +0.000 A 
ATOM      5  C   UNL     1      47.323   5.856  19.491  0.00  0.00    +0.000 A 
ATOM      6  C   UNL     1      46.992   5.261  18.271  0.00  0.00    +0.000 A 
ENDROOT
BRANCH   1   7
ATOM      7  C   UNL     1      47.457   3.593  16.424  0.00  0.00    +0.000 C 
BRANCH   7  10
ATOM      8  O   UNL     1      46.988   3.162  13.691  0.00  0.00    +0.000 OA
ATOM      9  C   UNL     1      46.684   4.243  14.185  0.00  0.00    +0.000 C 
ATOM     10  N   UNL     1      46.912   4.549  15.502  0.00  0.00    +0.000 N 
ATOM     11  H   UNL     1      46.487   5.376  15.908  0.00  0.00    +0.000 HD
BRANCH   9  12
ATOM     12  C   UNL     1      46.081   5.303  13.376  0.00  0.00    +0.000 A 
ATOM     13  C   UNL     1      46.808   6.440  13.049  0.00  0.00    +0.000 A 
ATOM     14  S   UNL     1      45.952   7.519  12.039  0.00  0.00    +0.000 S 
ATOM     15  C   UNL     1      44.595   6.492  12.001  0.00  0.00    +0.000 A 
ATOM     16  N   UNL     1      43.495   6.804  11.258  0.00  0.00    +0.000 NA
ATOM     17  C   UNL     1      42.562   5.908  11.300  0.00  0.00    +0.000 A 
ATOM     18  N   UNL     1      42.618   4.743  12.024  0.00  0.00    +0.000 N 
ATOM     19  C   UNL     1      43.660   4.435  12.858  0.00  0.00    +0.000 A 
ATOM     20  O   UNL     1      43.594   3.486  13.621  0.00  0.00    +0.000 OA
ATOM     21  C   UNL     1      44.773   5.369  12.786  0.00  0.00    +0.000 A 
ATOM     22  H   UNL     1      41.832   4.114  12.060  0.00  0.00    +0.000 HD
ENDBRANCH   9  12
ENDBRANCH   7  10
ENDBRANCH   1   7
BRANCH   4  23
ATOM     23  C   UNL     1      48.729   6.025  21.577  0.00  0.00    +0.000 C 
BRANCH  23  24
ATOM     24  C   UNL     1      49.359   7.415  21.438  0.00  0.00    +0.000 C 
BRANCH  24  25
ATOM     25  N   UNL     1      50.511   7.362  20.526  0.00  0.00    +0.000 NA
ATOM     26  H   UNL     1      50.536   6.443  20.082  0.00  0.00    +0.000 HD
BRANCH  25  27
ATOM     27  C   UNL     1      50.377   8.384  19.481  0.00  0.00    +0.000 C 
BRANCH  27  28
ATOM     28  C   UNL     1      50.054   7.804  18.129  0.00  0.00    +0.000 A 
ATOM     29  C   UNL     1      50.839   6.802  17.564  0.00  0.00    +0.000 A 
ATOM     30  N   UNL     1      50.623   6.250  16.345  0.00  0.00    +0.000 NA
ATOM     31  C   UNL     1      49.587   6.730  15.632  0.00  0.00    +0.000 A 
ATOM     32  C   UNL     1      48.762   7.743  16.075  0.00  0.00    +0.000 A 
ATOM     33  C   UNL     1      49.009   8.286  17.334  0.00  0.00    +0.000 A 
ATOM     34 CL   UNL     1      47.978   9.572  17.856  0.00  0.00    +0.000 Cl
ENDBRANCH  27  28
ENDBRANCH  25  27
ENDBRANCH  24  25
ENDBRANCH  23  24
ENDBRANCH   4  23
TORSDOF 8
ENDMDL
MODEL 4
REMARK VINA RESULT:    -7.181      4.511      9.962
REMARK INTER + INTRA:         -11.648
REMARK INTER:                  -9.857
REMARK INTRA:                  -1.791
REMARK UNBOUND:                -1.109
REMARK  Name = 
REMARK  8 active torsions:
REMARK  status: ('A' for Active; 'I' for Inactive)
REMARK    1  A    between atoms: C_2  and  C_22
REMARK    2  A    between atoms: N_3  and  C_4
REMARK    3  A    between atoms: C_4  and  C_5
REMARK    4  A    between atoms: C_8  and  C_9
REMARK    5  A    between atoms: C_9  and  C_10
REMARK    6  A    between atoms: C_10  and  N_11
REMARK    7  A    between atoms: N_11  and  C_12
REMARK    8  A    between atoms: C_12  and  C_13
REMARK                            x       y       z     vdW  Elec       q    Type
REMARK                         _______ _______ _______ _____ _____    ______ ____
ROOT
ATOM      1  C   UNL     1      48.735   3.679  16.935  0.00  0.00    +0.000 A 
ATOM      2  C   UNL     1      49.269   4.973  16.973  0.00  0.00    +0.000 A 
ATOM      3  C   UNL     1      50.598   5.186  17.345  0.00  0.00    +0.000 A 
ATOM      4  C   UNL     1      51.424   4.106  17.680  0.00  0.00    +0.000 A 
ATOM      5  C   UNL     1      50.898   2.810  17.618  0.00  0.00    +0.000 A 
ATOM      6  C   UNL     1      49.570   2.596  17.238  0.00  0.00    +0.000 A 
ENDROOT
BRANCH   1   7
ATOM      7  C   UNL     1      47.282   3.471  16.599  0.00  0.00    +0.000 C 
BRANCH   7  10
ATOM      8  O   UNL     1      47.163   3.223  13.806  0.00  0.00    +0.000 OA
ATOM      9  C   UNL     1      46.728   4.243  14.333  0.00  0.00    +0.000 C 
ATOM     10  N   UNL     1      46.781   4.460  15.686  0.00  0.00    +0.000 N 
ATOM     11  H   UNL     1      46.255   5.225  16.095  0.00  0.00    +0.000 HD
BRANCH   9  12
ATOM     12  C   UNL     1      46.150   5.323  13.533  0.00  0.00    +0.000 A 
ATOM     13  C   UNL     1      46.870   6.486  13.293  0.00  0.00    +0.000 A 
ATOM     14  S   UNL     1      46.049   7.588  12.280  0.00  0.00    +0.000 S 
ATOM     15  C   UNL     1      44.718   6.538  12.124  0.00  0.00    +0.000 A 
ATOM     16  N   UNL     1      43.656   6.859  11.332  0.00  0.00    +0.000 NA
ATOM     17  C   UNL     1      42.742   5.945  11.285  0.00  0.00    +0.000 A 
ATOM     18  N   UNL     1      42.781   4.753  11.965  0.00  0.00    +0.000 N 
ATOM     19  C   UNL     1      43.781   4.432  12.844  0.00  0.00    +0.000 A 
ATOM     20  O   UNL     1      43.692   3.451  13.565  0.00  0.00    +0.000 OA
ATOM     21  C   UNL     1      44.876   5.388  12.873  0.00  0.00    +0.000 A 
ATOM     22  H   UNL     1      42.008   4.108  11.932  0.00  0.00    +0.000 HD
ENDBRANCH   9  12
ENDBRANCH   7  10
ENDBRANCH   1   7
BRANCH   4  23
ATOM     23  C   UNL     1      52.870   4.315  18.067  0.00  0.00    +0.000 C 
BRANCH  23  24
ATOM     24  C   UNL     1      53.036   4.938  19.458  0.00  0.00    +0.000 C 
BRANCH  24  25
ATOM     25  N   UNL     1      52.162   4.260  20.426  0.00  0.00    +0.000 NA
ATOM     26  H   UNL     1      52.702   3.538  20.904  0.00  0.00    +0.000 HD
BRANCH  25  27
ATOM     27  C   UNL     1      51.673   5.219  21.424  0.00  0.00    +0.000 C 
BRANCH  27  28
ATOM     28  C   UNL     1      50.676   6.197  20.862  0.00  0.00    +0.000 A 
ATOM     29  C   UNL     1      51.012   7.530  20.643  0.00  0.00    +0.000 A 
ATOM     30  N   UNL     1      50.161   8.470  20.162  0.00  0.00    +0.000 NA
ATOM     31  C   UNL     1      48.900   8.077  19.903  0.00  0.00    +0.000 A 
ATOM     32  C   UNL     1      48.445   6.791  20.111  0.00  0.00    +0.000 A 
ATOM     33  C   UNL     1      49.345   5.849  20.603  0.00  0.00    +0.000 A 
ATOM     34 CL   UNL     1      48.745   4.252  20.881  0.00  0.00    +0.000 Cl
ENDBRANCH  27  28
ENDBRANCH  25  27
ENDBRANCH  24  25
ENDBRANCH  23  24
ENDBRANCH   4  23
TORSDOF 8
ENDMDL
MODEL 5
REMARK VINA RESULT:    -7.028      3.861      8.954
REMARK INTER + INTRA:         -11.424
REMARK INTER:                  -9.661
REMARK INTRA:                  -1.762
REMARK UNBOUND:                -1.109
REMARK  Name = 
REMARK  8 active torsions:
REMARK  status: ('A' for Active; 'I' for Inactive)
REMARK    1  A    between atoms: C_2  and  C_22
REMARK    2  A    between atoms: N_3  and  C_4
REMARK    3  A    between atoms: C_4  and  C_5
REMARK    4  A    between atoms: C_8  and  C_9
REMARK    5  A    between atoms: C_9  and  C_10
REMARK    6  A    between atoms: C_10  and  N_11
REMARK    7  A    between atoms: N_11  and  C_12
REMARK    8  A    between atoms: C_12  and  C_13
REMARK                            x       y       z     vdW  Elec       q    Type
REMARK                         _______ _______ _______ _____ _____    ______ ____
ROOT
ATOM      1  C   UNL     1      48.878   7.637  13.458  0.00  0.00    +0.000 A 
ATOM      2  C   UNL     1      50.188   8.085  13.249  0.00  0.00    +0.000 A 
ATOM      3  C   UNL     1      51.141   8.004  14.268  0.00  0.00    +0.000 A 
ATOM      4  C   UNL     1      50.803   7.465  15.515  0.00  0.00    +0.000 A 
ATOM      5  C   UNL     1      49.499   6.995  15.716  0.00  0.00    +0.000 A 
ATOM      6  C   UNL     1      48.548   7.068  14.695  0.00  0.00    +0.000 A 
ENDROOT
BRANCH   1   7
ATOM      7  C   UNL     1      47.845   7.793  12.374  0.00  0.00    +0.000 C 
BRANCH   7  10
ATOM      8  O   UNL     1      45.056   7.497  12.486  0.00  0.00    +0.000 OA
ATOM      9  C   UNL     1      45.746   6.532  12.172  0.00  0.00    +0.000 C 
ATOM     10  N   UNL     1      47.116   6.581  12.129  0.00  0.00    +0.000 N 
ATOM     11  H   UNL     1      47.634   5.823  11.695  0.00  0.00    +0.000 HD
BRANCH   9  12
ATOM     12  C   UNL     1      45.141   5.238  11.855  0.00  0.00    +0.000 A 
ATOM     13  C   UNL     1      44.494   4.502  12.839  0.00  0.00    +0.000 A 
ATOM     14  S   UNL     1      43.793   3.060  12.249  0.00  0.00    +0.000 S 
ATOM     15  C   UNL     1      44.323   3.387  10.665  0.00  0.00    +0.000 A 
ATOM     16  N   UNL     1      44.013   2.554   9.632  0.00  0.00    +0.000 NA
ATOM     17  C   UNL     1      44.453   2.954   8.483  0.00  0.00    +0.000 A 
ATOM     18  N   UNL     1      45.186   4.096   8.273  0.00  0.00    +0.000 N 
ATOM     19  C   UNL     1      45.602   4.910   9.293  0.00  0.00    +0.000 A 
ATOM     20  O   UNL     1      46.401   5.810   9.093  0.00  0.00    +0.000 OA
ATOM     21  C   UNL     1      45.065   4.550  10.597  0.00  0.00    +0.000 A 
ATOM     22  H   UNL     1      45.550   4.322   7.361  0.00  0.00    +0.000 HD
ENDBRANCH   9  12
ENDBRANCH   7  10
ENDBRANCH   1   7
BRANCH   4  23
ATOM     23  C   UNL     1      51.824   7.353  16.623  0.00  0.00    +0.000 C 
BRANCH  23  24
ATOM     24  C   UNL     1      51.261   6.716  17.899  0.00  0.00    +0.000 C 
BRANCH  24  25
ATOM     25  N   UNL     1      51.782   5.351  18.057  0.00  0.00    +0.000 NA
ATOM     26  H   UNL     1      52.659   5.394  18.580  0.00  0.00    +0.000 HD
BRANCH  25  27
ATOM     27  C   UNL     1      50.828   4.528  18.810  0.00  0.00    +0.000 C 
BRANCH  27  28
ATOM     28  C   UNL     1      49.942   3.695  17.922  0.00  0.00    +0.000 A 
ATOM     29  C   UNL     1      50.450   2.628  17.186  0.00  0.00    +0.000 A 
ATOM     30  N   UNL     1      49.719   1.850  16.351  0.00  0.00    +0.000 NA
ATOM     31  C   UNL     1      48.415   2.156  16.216  0.00  0.00    +0.000 A 
ATOM     32  C   UNL     1      47.809   3.210  16.869  0.00  0.00    +0.000 A 
ATOM     33  C   UNL     1      48.588   3.987  17.722  0.00  0.00    +0.000 A 
ATOM     34 CL   UNL     1      47.812   5.318  18.508  0.00  0.00    +0.000 Cl
ENDBRANCH  27  28
ENDBRANCH  25  27
ENDBRANCH  24  25
ENDBRANCH  23  24
ENDBRANCH   4  23
TORSDOF 8
ENDMDL
MODEL 6
REMARK VINA RESULT:    -7.002      1.574      2.179
REMARK INTER + INTRA:         -11.386
REMARK INTER:                 -10.439
REMARK INTRA:                  -0.947
REMARK UNBOUND:                -1.109
REMARK  Name = 
REMARK  8 active torsions:
REMARK  status: ('A' for Active; 'I' for Inactive)
REMARK    1  A    between atoms: C_2  and  C_22
REMARK    2  A    between atoms: N_3  and  C_4
REMARK    3  A    between atoms: C_4  and  C_5
REMARK    4  A    between atoms: C_8  and  C_9
REMARK    5  A    between atoms: C_9  and  C_10
REMARK    6  A    between atoms: C_10  and  N_11
REMARK    7  A    between atoms: N_11  and  C_12
REMARK    8  A    between atoms: C_12  and  C_13
REMARK                            x       y       z     vdW  Elec       q    Type
REMARK                         _______ _______ _______ _____ _____    ______ ____
ROOT
ATOM      1  C   UNL     1      47.375   6.073  13.926  0.00  0.00    +0.000 A 
ATOM      2  C   UNL     1      46.879   6.845  12.868  0.00  0.00    +0.000 A 
ATOM      3  C   UNL     1      45.882   6.346  12.026  0.00  0.00    +0.000 A 
ATOM      4  C   UNL     1      45.355   5.065  12.231  0.00  0.00    +0.000 A 
ATOM      5  C   UNL     1      45.834   4.302  13.303  0.00  0.00    +0.000 A 
ATOM      6  C   UNL     1      46.825   4.804  14.150  0.00  0.00    +0.000 A 
ENDROOT
BRANCH   1   7
ATOM      7  C   UNL     1      48.496   6.597  14.782  0.00  0.00    +0.000 C 
BRANCH   7  10
ATOM      8  O   UNL     1      50.387   5.589  16.595  0.00  0.00    +0.000 OA
ATOM      9  C   UNL     1      49.272   5.894  17.005  0.00  0.00    +0.000 C 
ATOM     10  N   UNL     1      48.279   6.359  16.182  0.00  0.00    +0.000 N 
ATOM     11  H   UNL     1      47.440   6.765  16.583  0.00  0.00    +0.000 HD
BRANCH   9  12
ATOM     12  C   UNL     1      48.915   5.744  18.417  0.00  0.00    +0.000 A 
ATOM     13  C   UNL     1      49.140   4.544  19.077  0.00  0.00    +0.000 A 
ATOM     14  S   UNL     1      48.724   4.598  20.733  0.00  0.00    +0.000 S 
ATOM     15  C   UNL     1      48.246   6.228  20.615  0.00  0.00    +0.000 A 
ATOM     16  N   UNL     1      47.819   6.918  21.709  0.00  0.00    +0.000 NA
ATOM     17  C   UNL     1      47.528   8.155  21.469  0.00  0.00    +0.000 A 
ATOM     18  N   UNL     1      47.606   8.761  20.240  0.00  0.00    +0.000 N 
ATOM     19  C   UNL     1      47.938   8.082  19.097  0.00  0.00    +0.000 A 
ATOM     20  O   UNL     1      47.821   8.604  18.000  0.00  0.00    +0.000 OA
ATOM     21  C   UNL     1      48.355   6.707  19.323  0.00  0.00    +0.000 A 
ATOM     22  H   UNL     1      47.309   9.714  20.107  0.00  0.00    +0.000 HD
ENDBRANCH   9  12
ENDBRANCH   7  10
ENDBRANCH   1   7
BRANCH   4  23
ATOM     23  C   UNL     1      44.264   4.515  11.342  0.00  0.00    +0.000 C 
BRANCH  23  24
ATOM     24  C   UNL     1      44.519   3.069  10.900  0.00  0.00    +0.000 C 
BRANCH  24  25
ATOM     25  N   UNL     1      43.988   2.850   9.548  0.00  0.00    +0.000 NA
ATOM     26  H   UNL     1      44.139   3.695   8.995  0.00  0.00    +0.000 HD
BRANCH  25  27
ATOM     27  C   UNL     1      44.693   1.736   8.902  0.00  0.00    +0.000 C 
BRANCH  27  28
ATOM     28  C   UNL     1      45.854   2.186   8.055  0.00  0.00    +0.000 A 
ATOM     29  C   UNL     1      46.026   3.524   7.713  0.00  0.00    +0.000 A 
ATOM     30  N   UNL     1      47.031   3.998   6.937  0.00  0.00    +0.000 NA
ATOM     31  C   UNL     1      47.905   3.096   6.452  0.00  0.00    +0.000 A 
ATOM     32  C   UNL     1      47.817   1.742   6.698  0.00  0.00    +0.000 A 
ATOM     33  C   UNL     1      46.773   1.288   7.501  0.00  0.00    +0.000 A 
ATOM     34 CL   UNL     1      46.668  -0.416   7.773  0.00  0.00    +0.000 Cl
ENDBRANCH  27  28
ENDBRANCH  25  27
ENDBRANCH  24  25
ENDBRANCH  23  24
ENDBRANCH   4  23
TORSDOF 8
ENDMDL
MODEL 7
REMARK VINA RESULT:    -6.871      4.252      9.482
REMARK INTER + INTRA:         -11.193
REMARK INTER:                  -8.819
REMARK INTRA:                  -2.374
REMARK UNBOUND:                -1.109
REMARK  Name = 
REMARK  8 active torsions:
REMARK  status: ('A' for Active; 'I' for Inactive)
REMARK    1  A    between atoms: C_2  and  C_22
REMARK    2  A    between atoms: N_3  and  C_4
REMARK    3  A    between atoms: C_4  and  C_5
REMARK    4  A    between atoms: C_8  and  C_9
REMARK    5  A    between atoms: C_9  and  C_10
REMARK    6  A    between atoms: C_10  and  N_11
REMARK    7  A    between atoms: N_11  and  C_12
REMARK    8  A    between atoms: C_12  and  C_13
REMARK                            x       y       z     vdW  Elec       q    Type
REMARK                         _______ _______ _______ _____ _____    ______ ____
ROOT
ATOM      1  C   UNL     1      48.684   6.532  16.980  0.00  0.00    +0.000 A 
ATOM      2  C   UNL     1      48.623   5.181  17.346  0.00  0.00    +0.000 A 
ATOM      3  C   UNL     1      48.469   4.809  18.683  0.00  0.00    +0.000 A 
ATOM      4  C   UNL     1      48.364   5.784  19.684  0.00  0.00    +0.000 A 
ATOM      5  C   UNL     1      48.401   7.135  19.316  0.00  0.00    +0.000 A 
ATOM      6  C   UNL     1      48.547   7.506  17.977  0.00  0.00    +0.000 A 
ENDROOT
BRANCH   1   7
ATOM      7  C   UNL     1      48.919   6.915  15.544  0.00  0.00    +0.000 C 
BRANCH   7  10
ATOM      8  O   UNL     1      48.826   5.981  12.898  0.00  0.00    +0.000 OA
ATOM      9  C   UNL     1      47.778   6.284  13.461  0.00  0.00    +0.000 C 
ATOM     10  N   UNL     1      47.738   6.782  14.738  0.00  0.00    +0.000 N 
ATOM     11  H   UNL     1      46.850   6.849  15.225  0.00  0.00    +0.000 HD
BRANCH   9  12
ATOM     12  C   UNL     1      46.489   6.164  12.779  0.00  0.00    +0.000 A 
ATOM     13  C   UNL     1      45.881   7.279  12.220  0.00  0.00    +0.000 A 
ATOM     14  S   UNL     1      44.423   6.915  11.408  0.00  0.00    +0.000 S 
ATOM     15  C   UNL     1      44.572   5.258  11.770  0.00  0.00    +0.000 A 
ATOM     16  N   UNL     1      43.660   4.352  11.317  0.00  0.00    +0.000 NA
ATOM     17  C   UNL     1      43.929   3.129  11.642  0.00  0.00    +0.000 A 
ATOM     18  N   UNL     1      45.010   2.730  12.386  0.00  0.00    +0.000 N 
ATOM     19  C   UNL     1      45.898   3.613  12.941  0.00  0.00    +0.000 A 
ATOM     20  O   UNL     1      46.738   3.239  13.744  0.00  0.00    +0.000 OA
ATOM     21  C   UNL     1      45.689   4.996  12.540  0.00  0.00    +0.000 A 
ATOM     22  H   UNL     1      45.132   1.766  12.654  0.00  0.00    +0.000 HD
ENDBRANCH   9  12
ENDBRANCH   7  10
ENDBRANCH   1   7
BRANCH   4  23
ATOM     23  C   UNL     1      48.179   5.402  21.133  0.00  0.00    +0.000 C 
BRANCH  23  24
ATOM     24  C   UNL     1      49.449   5.588  21.972  0.00  0.00    +0.000 C 
BRANCH  24  25
ATOM     25  N   UNL     1      50.436   4.554  21.635  0.00  0.00    +0.000 NA
ATOM     26  H   UNL     1      50.103   4.034  20.822  0.00  0.00    +0.000 HD
BRANCH  25  27
ATOM     27  C   UNL     1      51.724   5.173  21.299  0.00  0.00    +0.000 C 
BRANCH  27  28
ATOM     28  C   UNL     1      51.928   5.339  19.816  0.00  0.00    +0.000 A 
ATOM     29  C   UNL     1      52.125   4.240  18.984  0.00  0.00    +0.000 A 
ATOM     30  N   UNL     1      52.337   4.314  17.647  0.00  0.00    +0.000 NA
ATOM     31  C   UNL     1      52.381   5.544  17.103  0.00  0.00    +0.000 A 
ATOM     32  C   UNL     1      52.233   6.706  17.833  0.00  0.00    +0.000 A 
ATOM     33  C   UNL     1      52.013   6.594  19.204  0.00  0.00    +0.000 A 
ATOM     34 CL   UNL     1      51.856   8.063  20.102  0.00  0.00    +0.000 Cl
ENDBRANCH  27  28
ENDBRANCH  25  27
ENDBRANCH  24  25
ENDBRANCH  23  24
ENDBRANCH   4  23
TORSDOF 8
ENDMDL
MODEL 8
REMARK VINA RESULT:    -6.784      4.198      8.737
REMARK INTER + INTRA:         -11.065
REMARK INTER:                  -9.275
REMARK INTRA:                  -1.790
REMARK UNBOUND:                -1.109
REMARK  Name = 
REMARK  8 active torsions:
REMARK  status: ('A' for Active; 'I' for Inactive)
REMARK    1  A    between atoms: C_2  and  C_22
REMARK    2  A    between atoms: N_3  and  C_4
REMARK    3  A    between atoms: C_4  and  C_5
REMARK    4  A    between atoms: C_8  and  C_9
REMARK    5  A    between atoms: C_9  and  C_10
REMARK    6  A    between atoms: C_10  and  N_11
REMARK    7  A    between atoms: N_11  and  C_12
REMARK    8  A    between atoms: C_12  and  C_13
REMARK                            x       y       z     vdW  Elec       q    Type
REMARK                         _______ _______ _______ _____ _____    ______ ____
ROOT
ATOM      1  C   UNL     1      49.047   8.155  15.582  0.00  0.00    +0.000 A 
ATOM      2  C   UNL     1      48.801   8.628  16.877  0.00  0.00    +0.000 A 
ATOM      3  C   UNL     1      49.550   8.162  17.961  0.00  0.00    +0.000 A 
ATOM      4  C   UNL     1      50.567   7.219  17.768  0.00  0.00    +0.000 A 
ATOM      5  C   UNL     1      50.829   6.765  16.469  0.00  0.00    +0.000 A 
ATOM      6  C   UNL     1      50.086   7.237  15.385  0.00  0.00    +0.000 A 
ENDROOT
BRANCH   1   7
ATOM      7  C   UNL     1      48.187   8.615  14.435  0.00  0.00    +0.000 C 
BRANCH   7  10
ATOM      8  O   UNL     1      48.537   6.849  12.281  0.00  0.00    +0.000 OA
ATOM      9  C   UNL     1      47.520   6.764  12.963  0.00  0.00    +0.000 C 
ATOM     10  N   UNL     1      47.254   7.610  14.009  0.00  0.00    +0.000 N 
ATOM     11  H   UNL     1      46.499   7.395  14.652  0.00  0.00    +0.000 HD
BRANCH   9  12
ATOM     12  C   UNL     1      46.495   5.760  12.674  0.00  0.00    +0.000 A 
ATOM     13  C   UNL     1      46.722   4.420  12.955  0.00  0.00    +0.000 A 
ATOM     14  S   UNL     1      45.377   3.424  12.613  0.00  0.00    +0.000 S 
ATOM     15  C   UNL     1      44.453   4.757  12.095  0.00  0.00    +0.000 A 
ATOM     16  N   UNL     1      43.156   4.606  11.703  0.00  0.00    +0.000 NA
ATOM     17  C   UNL     1      42.575   5.714  11.374  0.00  0.00    +0.000 A 
ATOM     18  N   UNL     1      43.170   6.951  11.384  0.00  0.00    +0.000 N 
ATOM     19  C   UNL     1      44.495   7.136  11.678  0.00  0.00    +0.000 A 
ATOM     20  O   UNL     1      45.033   8.217  11.501  0.00  0.00    +0.000 OA
ATOM     21  C   UNL     1      45.176   5.934  12.134  0.00  0.00    +0.000 A 
ATOM     22  H   UNL     1      42.679   7.768  11.060  0.00  0.00    +0.000 HD
ENDBRANCH   9  12
ENDBRANCH   7  10
ENDBRANCH   1   7
BRANCH   4  23
ATOM     23  C   UNL     1      51.400   6.718  18.925  0.00  0.00    +0.000 C 
BRANCH  23  24
ATOM     24  C   UNL     1      51.983   5.320  18.685  0.00  0.00    +0.000 C 
BRANCH  24  25
ATOM     25  N   UNL     1      51.299   4.332  19.532  0.00  0.00    +0.000 NA
ATOM     26  H   UNL     1      51.663   4.408  20.483  0.00  0.00    +0.000 HD
BRANCH  25  27
ATOM     27  C   UNL     1      49.857   4.601  19.560  0.00  0.00    +0.000 C 
BRANCH  27  28
ATOM     28  C   UNL     1      49.127   4.014  18.380  0.00  0.00    +0.000 A 
ATOM     29  C   UNL     1      49.707   3.030  17.585  0.00  0.00    +0.000 A 
ATOM     30  N   UNL     1      49.121   2.473  16.497  0.00  0.00    +0.000 NA
ATOM     31  C   UNL     1      47.900   2.930  16.161  0.00  0.00    +0.000 A 
ATOM     32  C   UNL     1      47.241   3.924  16.854  0.00  0.00    +0.000 A 
ATOM     33  C   UNL     1      47.870   4.472  17.969  0.00  0.00    +0.000 A 
ATOM     34 CL   UNL     1      47.037   5.735  18.807  0.00  0.00    +0.000 Cl
ENDBRANCH  27  28
ENDBRANCH  25  27
ENDBRANCH  24  25
ENDBRANCH  23  24
ENDBRANCH   4  23
TORSDOF 8
ENDMDL
MODEL 9
REMARK VINA RESULT:    -6.737      4.543      9.221
REMARK INTER + INTRA:         -10.998
REMARK INTER:                  -8.539
REMARK INTRA:                  -2.458
REMARK UNBOUND:                -1.109
REMARK  Name = 
REMARK  8 active torsions:
REMARK  status: ('A' for Active; 'I' for Inactive)
REMARK    1  A    between atoms: C_2  and  C_22
REMARK    2  A    between atoms: N_3  and  C_4
REMARK    3  A    between atoms: C_4  and  C_5
REMARK    4  A    between atoms: C_8  and  C_9
REMARK    5  A    between atoms: C_9  and  C_10
REMARK    6  A    between atoms: C_10  and  N_11
REMARK    7  A    between atoms: N_11  and  C_12
REMARK    8  A    between atoms: C_12  and  C_13
REMARK                            x       y       z     vdW  Elec       q    Type
REMARK                         _______ _______ _______ _____ _____    ______ ____
ROOT
ATOM      1  C   UNL     1      47.523   8.516  12.448  0.00  0.00    +0.000 A 
ATOM      2  C   UNL     1      47.883   9.836  12.149  0.00  0.00    +0.000 A 
ATOM      3  C   UNL     1      49.156  10.135  11.657  0.00  0.00    +0.000 A 
ATOM      4  C   UNL     1      50.093   9.115  11.446  0.00  0.00    +0.000 A 
ATOM      5  C   UNL     1      49.724   7.793  11.722  0.00  0.00    +0.000 A 
ATOM      6  C   UNL     1      48.448   7.493  12.206  0.00  0.00    +0.000 A 
ENDROOT
BRANCH   1   7
ATOM      7  C   UNL     1      46.172   8.219  13.042  0.00  0.00    +0.000 C 
BRANCH   7  10
ATOM      8  O   UNL     1      44.176   7.541  11.189  0.00  0.00    +0.000 OA
ATOM      9  C   UNL     1      44.757   6.646  11.793  0.00  0.00    +0.000 C 
ATOM     10  N   UNL     1      45.718   6.891  12.741  0.00  0.00    +0.000 N 
ATOM     11  H   UNL     1      46.295   6.129  13.083  0.00  0.00    +0.000 HD
BRANCH   9  12
ATOM     12  C   UNL     1      44.430   5.238  11.562  0.00  0.00    +0.000 A 
ATOM     13  C   UNL     1      43.716   4.516  12.508  0.00  0.00    +0.000 A 
ATOM     14  S   UNL     1      43.373   2.917  12.016  0.00  0.00    +0.000 S 
ATOM     15  C   UNL     1      44.157   3.151  10.523  0.00  0.00    +0.000 A 
ATOM     16  N   UNL     1      44.190   2.165   9.582  0.00  0.00    +0.000 NA
ATOM     17  C   UNL     1      44.788   2.505   8.486  0.00  0.00    +0.000 A 
ATOM     18  N   UNL     1      45.368   3.726   8.250  0.00  0.00    +0.000 N 
ATOM     19  C   UNL     1      45.443   4.710   9.200  0.00  0.00    +0.000 A 
ATOM     20  O   UNL     1      46.121   5.709   9.019  0.00  0.00    +0.000 OA
ATOM     21  C   UNL     1      44.714   4.411  10.423  0.00  0.00    +0.000 A 
ATOM     22  H   UNL     1      45.870   3.909   7.396  0.00  0.00    +0.000 HD
ENDBRANCH   9  12
ENDBRANCH   7  10
ENDBRANCH   1   7
BRANCH   4  23
ATOM     23  C   UNL     1      51.468   9.416  10.897  0.00  0.00    +0.000 C 
BRANCH  23  24
ATOM     24  C   UNL     1      52.440   9.939  11.962  0.00  0.00    +0.000 C 
BRANCH  24  25
ATOM     25  N   UNL     1      52.802   8.861  12.892  0.00  0.00    +0.000 NA
ATOM     26  H   UNL     1      53.779   8.607  12.737  0.00  0.00    +0.000 HD
BRANCH  25  27
ATOM     27  C   UNL     1      52.651   9.317  14.279  0.00  0.00    +0.000 C 
BRANCH  27  28
ATOM     28  C   UNL     1      51.341   8.903  14.896  0.00  0.00    +0.000 A 
ATOM     29  C   UNL     1      51.069   7.569  15.192  0.00  0.00    +0.000 A 
ATOM     30  N   UNL     1      49.906   7.121  15.725  0.00  0.00    +0.000 NA
ATOM     31  C   UNL     1      48.948   8.037  15.959  0.00  0.00    +0.000 A 
ATOM     32  C   UNL     1      49.092   9.380  15.676  0.00  0.00    +0.000 A 
ATOM     33  C   UNL     1      50.301   9.808  15.132  0.00  0.00    +0.000 A 
ATOM     34 CL   UNL     1      50.449  11.490  14.761  0.00  0.00    +0.000 Cl
ENDBRANCH  27  28
ENDBRANCH  25  27
ENDBRANCH  24  25
ENDBRANCH  23  24
ENDBRANCH   4  23
TORSDOF 8
ENDMDL
