MODEL 1
REMARK VINA RESULT:    -8.347      0.000      0.000
REMARK INTER + INTRA:         -12.266
REMARK INTER:                 -11.275
REMARK INTRA:                  -0.991
REMARK UNBOUND:                -0.991
REMARK  Name = 
REMARK  6 active torsions:
REMARK  status: ('A' for Active; 'I' for Inactive)
REMARK    1  A    between atoms: C_2  and  C_4
REMARK    2  A    between atoms: C_7  and  O_8
REMARK    3  A    between atoms: O_8  and  C_9
REMARK    4  A    between atoms: C_9  and  C_10
REMARK    5  A    between atoms: C_10  and  C_11
REMARK    6  A    between atoms: C_16  and  C_17
REMARK                            x       y       z     vdW  Elec       q    Type
REMARK                         _______ _______ _______ _____ _____    ______ ____
ROOT
ATOM      1  C   UNL     1      43.741   4.627  12.403  0.00  0.00    +0.000 C 
ENDROOT
BRANCH   1   2
ATOM      2  C   UNL     1      45.156   5.051  12.710  0.00  0.00    +0.000 A 
ATOM      3  C   UNL     1      45.837   5.928  11.862  0.00  0.00    +0.000 A 
ATOM      4  C   UNL     1      47.116   6.351  12.200  0.00  0.00    +0.000 A 
ATOM      5  F   UNL     1      47.762   7.197  11.387  0.00  0.00    +0.000 F 
ATOM      6  C   UNL     1      47.729   5.932  13.377  0.00  0.00    +0.000 A 
ATOM      7  C   UNL     1      47.066   5.076  14.271  0.00  0.00    +0.000 A 
ATOM      8  C   UNL     1      45.777   4.637  13.903  0.00  0.00    +0.000 A 
BRANCH   7   9
ATOM      9  C   UNL     1      47.671   4.684  15.562  0.00  0.00    +0.000 A 
ATOM     10  C   UNL     1      47.608   3.374  16.060  0.00  0.00    +0.000 A 
ATOM     11  C   UNL     1      48.165   3.053  17.298  0.00  0.00    +0.000 A 
ATOM     12  C   UNL     1      48.789   4.055  18.019  0.00  0.00    +0.000 A 
ATOM     13  N   UNL     1      48.883   5.328  17.591  0.00  0.00    +0.000 NA
ATOM     14  C   UNL     1      48.323   5.608  16.386  0.00  0.00    +0.000 A 
ENDBRANCH   7   9
ENDBRANCH   1   2
BRANCH   1  15
ATOM     15  C   UNL     1      43.738   3.383  11.517  0.00  0.00    +0.000 C 
BRANCH  15  16
ATOM     16  O   UNL     1      43.524   3.764  10.157  0.00  0.00    +0.000 OA
BRANCH  16  20
ATOM     17  C   UNL     1      46.481   2.388   7.548  0.00  0.00    +0.000 A 
ATOM     18  C   UNL     1      46.167   3.750   7.542  0.00  0.00    +0.000 A 
ATOM     19  C   UNL     1      45.184   4.247   8.402  0.00  0.00    +0.000 A 
ATOM     20  C   UNL     1      44.503   3.391   9.273  0.00  0.00    +0.000 A 
ATOM     21  C   UNL     1      44.811   2.029   9.268  0.00  0.00    +0.000 A 
ATOM     22  C   UNL     1      45.792   1.525   8.404  0.00  0.00    +0.000 A 
BRANCH  17  24
ATOM     23  N   UNL     1      48.640   2.575   6.436  0.00  0.00    +0.000 N 
ATOM     24  C   UNL     1      47.514   1.826   6.640  0.00  0.00    +0.000 C 
ATOM     25  O   UNL     1      47.381   0.728   6.116  0.00  0.00    +0.000 OA
ATOM     26  H   UNL     1      49.375   2.140   5.893  0.00  0.00    +0.000 HD
ATOM     27  H   UNL     1      48.894   3.348   7.033  0.00  0.00    +0.000 HD
ENDBRANCH  17  24
ENDBRANCH  16  20
ENDBRANCH  15  16
ENDBRANCH   1  15
TORSDOF 6
ENDMDL
MODEL 2
REMARK VINA RESULT:    -8.258      2.510      3.776
REMARK INTER + INTRA:         -12.145
REMARK INTER:                 -11.006
REMARK INTRA:                  -1.140
REMARK UNBOUND:                -0.991
REMARK  Name = 
REMARK  6 active torsions:
REMARK  status: ('A' for Active; 'I' for Inactive)
REMARK    1  A    between atoms: C_2  and  C_4
REMARK    2  A    between atoms: C_7  and  O_8
REMARK    3  A    between atoms: O_8  and  C_9
REMARK    4  A    between atoms: C_9  and  C_10
REMARK    5  A    between atoms: C_10  and  C_11
REMARK    6  A    between atoms: C_16  and  C_17
REMARK                            x       y       z     vdW  Elec       q    Type
REMARK                         _______ _______ _______ _____ _____    ______ ____
ROOT
ATOM      1  C   UNL     1      43.295   5.294  12.246  0.00  0.00    +0.000 C 
ENDROOT
BRANCH   1   2
ATOM      2  C   UNL     1      44.737   5.411  12.674  0.00  0.00    +0.000 A 
ATOM      3  C   UNL     1      45.371   4.357  13.337  0.00  0.00    +0.000 A 
ATOM      4  C   UNL     1      46.716   4.466  13.664  0.00  0.00    +0.000 A 
ATOM      5  F   UNL     1      47.322   3.451  14.294  0.00  0.00    +0.000 F 
ATOM      6  C   UNL     1      47.452   5.600  13.332  0.00  0.00    +0.000 A 
ATOM      7  C   UNL     1      46.859   6.667  12.638  0.00  0.00    +0.000 A 
ATOM      8  C   UNL     1      45.487   6.551  12.332  0.00  0.00    +0.000 A 
BRANCH   7   9
ATOM      9  C   UNL     1      47.645   7.844  12.208  0.00  0.00    +0.000 A 
ATOM     10  C   UNL     1      48.980   7.748  11.786  0.00  0.00    +0.000 A 
ATOM     11  C   UNL     1      49.696   8.888  11.419  0.00  0.00    +0.000 A 
ATOM     12  C   UNL     1      49.056  10.113  11.472  0.00  0.00    +0.000 A 
ATOM     13  N   UNL     1      47.778  10.265  11.865  0.00  0.00    +0.000 NA
ATOM     14  C   UNL     1      47.113   9.137  12.224  0.00  0.00    +0.000 A 
ENDBRANCH   7   9
ENDBRANCH   1   2
BRANCH   1  15
ATOM     15  C   UNL     1      43.205   5.013  10.747  0.00  0.00    +0.000 C 
BRANCH  15  16
ATOM     16  O   UNL     1      43.536   3.647  10.495  0.00  0.00    +0.000 OA
BRANCH  16  20
ATOM     17  C   UNL     1      46.460   2.747   7.651  0.00  0.00    +0.000 A 
ATOM     18  C   UNL     1      46.142   4.089   7.879  0.00  0.00    +0.000 A 
ATOM     19  C   UNL     1      45.169   4.428   8.824  0.00  0.00    +0.000 A 
ATOM     20  C   UNL     1      44.504   3.434   9.548  0.00  0.00    +0.000 A 
ATOM     21  C   UNL     1      44.816   2.094   9.309  0.00  0.00    +0.000 A 
ATOM     22  C   UNL     1      45.786   1.748   8.359  0.00  0.00    +0.000 A 
BRANCH  17  24
ATOM     23  N   UNL     1      47.406   2.938   5.415  0.00  0.00    +0.000 N 
ATOM     24  C   UNL     1      47.482   2.352   6.648  0.00  0.00    +0.000 C 
ATOM     25  O   UNL     1      48.373   1.557   6.917  0.00  0.00    +0.000 OA
ATOM     26  H   UNL     1      48.162   2.733   4.774  0.00  0.00    +0.000 HD
ATOM     27  H   UNL     1      46.855   3.766   5.240  0.00  0.00    +0.000 HD
ENDBRANCH  17  24
ENDBRANCH  16  20
ENDBRANCH  15  16
ENDBRANCH   1  15
TORSDOF 6
ENDMDL
MODEL 3
REMARK VINA RESULT:    -8.097      2.985      4.726
REMARK INTER + INTRA:         -11.928
REMARK INTER:                 -10.776
REMARK INTRA:                  -1.152
REMARK UNBOUND:                -0.991
REMARK  Name = 
REMARK  6 active torsions:
REMARK  status: ('A' for Active; 'I' for Inactive)
REMARK    1  A    between atoms: C_2  and  C_4
REMARK    2  A    between atoms: C_7  and  O_8
REMARK    3  A    between atoms: O_8  and  C_9
REMARK    4  A    between atoms: C_9  and  C_10
REMARK    5  A    between atoms: C_10  and  C_11
REMARK    6  A    between atoms: C_16  and  C_17
REMARK                            x       y       z     vdW  Elec       q    Type
REMARK                         _______ _______ _______ _____ _____    ______ ____
ROOT
ATOM      1  C   UNL     1      43.406   4.224  12.871  0.00  0.00    +0.000 C 
ENDROOT
BRANCH   1   2
ATOM      2  C   UNL     1      44.547   5.210  12.807  0.00  0.00    +0.000 A 
ATOM      3  C   UNL     1      45.857   4.800  13.062  0.00  0.00    +0.000 A 
ATOM      4  C   UNL     1      46.896   5.713  12.936  0.00  0.00    +0.000 A 
ATOM      5  F   UNL     1      48.152   5.314  13.175  0.00  0.00    +0.000 F 
ATOM      6  C   UNL     1      46.660   7.028  12.543  0.00  0.00    +0.000 A 
ATOM      7  C   UNL     1      45.360   7.470  12.248  0.00  0.00    +0.000 A 
ATOM      8  C   UNL     1      44.314   6.537  12.402  0.00  0.00    +0.000 A 
BRANCH   7   9
ATOM      9  C   UNL     1      45.101   8.840  11.754  0.00  0.00    +0.000 A 
ATOM     10  C   UNL     1      45.965   9.914  12.018  0.00  0.00    +0.000 A 
ATOM     11  C   UNL     1      45.668  11.198  11.561  0.00  0.00    +0.000 A 
ATOM     12  C   UNL     1      44.506  11.385  10.834  0.00  0.00    +0.000 A 
ATOM     13  N   UNL     1      43.642  10.393  10.547  0.00  0.00    +0.000 NA
ATOM     14  C   UNL     1      43.958   9.158  11.015  0.00  0.00    +0.000 A 
ENDBRANCH   7   9
ENDBRANCH   1   2
BRANCH   1  15
ATOM     15  C   UNL     1      43.580   3.138  11.811  0.00  0.00    +0.000 C 
BRANCH  15  16
ATOM     16  O   UNL     1      43.456   3.713  10.510  0.00  0.00    +0.000 OA
BRANCH  16  20
ATOM     17  C   UNL     1      46.376   2.797   7.668  0.00  0.00    +0.000 A 
ATOM     18  C   UNL     1      45.795   1.750   8.389  0.00  0.00    +0.000 A 
ATOM     19  C   UNL     1      44.814   2.018   9.347  0.00  0.00    +0.000 A 
ATOM     20  C   UNL     1      44.405   3.331   9.597  0.00  0.00    +0.000 A 
ATOM     21  C   UNL     1      44.997   4.376   8.884  0.00  0.00    +0.000 A 
ATOM     22  C   UNL     1      45.985   4.113   7.927  0.00  0.00    +0.000 A 
BRANCH  17  24
ATOM     23  N   UNL     1      47.299   3.187   5.447  0.00  0.00    +0.000 N 
ATOM     24  C   UNL     1      47.428   2.547   6.650  0.00  0.00    +0.000 C 
ATOM     25  O   UNL     1      48.388   1.823   6.880  0.00  0.00    +0.000 OA
ATOM     26  H   UNL     1      48.068   3.083   4.800  0.00  0.00    +0.000 HD
ATOM     27  H   UNL     1      46.675   3.969   5.314  0.00  0.00    +0.000 HD
ENDBRANCH  17  24
ENDBRANCH  16  20
ENDBRANCH  15  16
ENDBRANCH   1  15
TORSDOF 6
ENDMDL
MODEL 4
REMARK VINA RESULT:    -7.704      2.801      7.961
REMARK INTER + INTRA:         -11.397
REMARK INTER:                 -10.349
REMARK INTRA:                  -1.049
REMARK UNBOUND:                -0.991
REMARK  Name = 
REMARK  6 active torsions:
REMARK  status: ('A' for Active; 'I' for Inactive)
REMARK    1  A    between atoms: C_2  and  C_4
REMARK    2  A    between atoms: C_7  and  O_8
REMARK    3  A    between atoms: O_8  and  C_9
REMARK    4  A    between atoms: C_9  and  C_10
REMARK    5  A    between atoms: C_10  and  C_11
REMARK    6  A    between atoms: C_16  and  C_17
REMARK                            x       y       z     vdW  Elec       q    Type
REMARK                         _______ _______ _______ _____ _____    ______ ____
ROOT
ATOM      1  C   UNL     1      45.051   6.722  10.939  0.00  0.00    +0.000 C 
ENDROOT
BRANCH   1   2
ATOM      2  C   UNL     1      44.862   5.256  10.638  0.00  0.00    +0.000 A 
ATOM      3  C   UNL     1      43.937   4.495  11.356  0.00  0.00    +0.000 A 
ATOM      4  C   UNL     1      43.737   3.163  11.017  0.00  0.00    +0.000 A 
ATOM      5  F   UNL     1      42.844   2.439  11.705  0.00  0.00    +0.000 F 
ATOM      6  C   UNL     1      44.429   2.573   9.963  0.00  0.00    +0.000 A 
ATOM      7  C   UNL     1      45.344   3.313   9.197  0.00  0.00    +0.000 A 
ATOM      8  C   UNL     1      45.553   4.658   9.568  0.00  0.00    +0.000 A 
BRANCH   7   9
ATOM      9  C   UNL     1      46.029   2.724   8.026  0.00  0.00    +0.000 A 
ATOM     10  C   UNL     1      46.232   3.434   6.833  0.00  0.00    +0.000 A 
ATOM     11  C   UNL     1      46.855   2.830   5.740  0.00  0.00    +0.000 A 
ATOM     12  C   UNL     1      47.275   1.519   5.864  0.00  0.00    +0.000 A 
ATOM     13  N   UNL     1      47.111   0.790   6.984  0.00  0.00    +0.000 NA
ATOM     14  C   UNL     1      46.494   1.405   8.025  0.00  0.00    +0.000 A 
ENDBRANCH   7   9
ENDBRANCH   1   2
BRANCH   1  15
ATOM     15  C   UNL     1      45.484   6.917  12.391  0.00  0.00    +0.000 C 
BRANCH  15  16
ATOM     16  O   UNL     1      46.863   6.572  12.531  0.00  0.00    +0.000 OA
BRANCH  16  20
ATOM     17  C   UNL     1      47.734   4.334  15.948  0.00  0.00    +0.000 A 
ATOM     18  C   UNL     1      48.288   5.611  15.828  0.00  0.00    +0.000 A 
ATOM     19  C   UNL     1      48.018   6.390  14.699  0.00  0.00    +0.000 A 
ATOM     20  C   UNL     1      47.196   5.901  13.679  0.00  0.00    +0.000 A 
ATOM     21  C   UNL     1      46.654   4.619  13.796  0.00  0.00    +0.000 A 
ATOM     22  C   UNL     1      46.925   3.833  14.923  0.00  0.00    +0.000 A 
BRANCH  17  24
ATOM     23  N   UNL     1      46.952   2.787  17.661  0.00  0.00    +0.000 N 
ATOM     24  C   UNL     1      48.008   3.477  17.130  0.00  0.00    +0.000 C 
ATOM     25  O   UNL     1      49.134   3.367  17.598  0.00  0.00    +0.000 OA
ATOM     26  H   UNL     1      47.170   2.137  18.403  0.00  0.00    +0.000 HD
ATOM     27  H   UNL     1      46.084   2.656  17.162  0.00  0.00    +0.000 HD
ENDBRANCH  17  24
ENDBRANCH  16  20
ENDBRANCH  15  16
ENDBRANCH   1  15
TORSDOF 6
ENDMDL
MODEL 5
REMARK VINA RESULT:    -6.846      3.367      8.427
REMARK INTER + INTRA:         -10.239
REMARK INTER:                  -9.654
REMARK INTRA:                  -0.585
REMARK UNBOUND:                -0.991
REMARK  Name = 
REMARK  6 active torsions:
REMARK  status: ('A' for Active; 'I' for Inactive)
REMARK    1  A    between atoms: C_2  and  C_4
REMARK    2  A    between atoms: C_7  and  O_8
REMARK    3  A    between atoms: O_8  and  C_9
REMARK    4  A    between atoms: C_9  and  C_10
REMARK    5  A    between atoms: C_10  and  C_11
REMARK    6  A    between atoms: C_16  and  C_17
REMARK                            x       y       z     vdW  Elec       q    Type
REMARK                         _______ _______ _______ _____ _____    ______ ____
ROOT
ATOM      1  C   UNL     1      46.040   5.309  14.025  0.00  0.00    +0.000 C 
ENDROOT
BRANCH   1   2
ATOM      2  C   UNL     1      45.119   5.057  12.856  0.00  0.00    +0.000 A 
ATOM      3  C   UNL     1      43.791   5.488  12.890  0.00  0.00    +0.000 A 
ATOM      4  C   UNL     1      42.982   5.300  11.777  0.00  0.00    +0.000 A 
ATOM      5  F   UNL     1      41.711   5.720  11.812  0.00  0.00    +0.000 F 
ATOM      6  C   UNL     1      43.473   4.703  10.619  0.00  0.00    +0.000 A 
ATOM      7  C   UNL     1      44.811   4.284  10.534  0.00  0.00    +0.000 A 
ATOM      8  C   UNL     1      45.613   4.462  11.680  0.00  0.00    +0.000 A 
BRANCH   7   9
ATOM      9  C   UNL     1      45.369   3.721   9.286  0.00  0.00    +0.000 A 
ATOM     10  C   UNL     1      45.509   2.340   9.077  0.00  0.00    +0.000 A 
ATOM     11  C   UNL     1      46.070   1.851   7.897  0.00  0.00    +0.000 A 
ATOM     12  C   UNL     1      46.476   2.758   6.935  0.00  0.00    +0.000 A 
ATOM     13  N   UNL     1      46.363   4.092   7.079  0.00  0.00    +0.000 NA
ATOM     14  C   UNL     1      45.821   4.534   8.242  0.00  0.00    +0.000 A 
ENDBRANCH   7   9
ENDBRANCH   1   2
BRANCH   1  15
ATOM     15  C   UNL     1      46.782   4.029  14.404  0.00  0.00    +0.000 C 
BRANCH  15  16
ATOM     16  O   UNL     1      46.777   3.874  15.824  0.00  0.00    +0.000 OA
BRANCH  16  20
ATOM     17  C   UNL     1      50.504   3.966  17.707  0.00  0.00    +0.000 A 
ATOM     18  C   UNL     1      49.890   5.179  17.384  0.00  0.00    +0.000 A 
ATOM     19  C   UNL     1      48.642   5.188  16.754  0.00  0.00    +0.000 A 
ATOM     20  C   UNL     1      47.997   3.988  16.439  0.00  0.00    +0.000 A 
ATOM     21  C   UNL     1      48.619   2.778  16.753  0.00  0.00    +0.000 A 
ATOM     22  C   UNL     1      49.871   2.764  17.379  0.00  0.00    +0.000 A 
BRANCH  17  24
ATOM     23  N   UNL     1      51.851   3.915  19.736  0.00  0.00    +0.000 N 
ATOM     24  C   UNL     1      51.833   3.921  18.369  0.00  0.00    +0.000 C 
ATOM     25  O   UNL     1      52.871   3.864  17.723  0.00  0.00    +0.000 OA
ATOM     26  H   UNL     1      52.755   3.788  20.172  0.00  0.00    +0.000 HD
ATOM     27  H   UNL     1      51.032   3.709  20.289  0.00  0.00    +0.000 HD
ENDBRANCH  17  24
ENDBRANCH  16  20
ENDBRANCH  15  16
ENDBRANCH   1  15
TORSDOF 6
ENDMDL
MODEL 6
REMARK VINA RESULT:    -6.645      3.661      7.456
REMARK INTER + INTRA:          -9.968
REMARK INTER:                  -8.877
REMARK INTRA:                  -1.090
REMARK UNBOUND:                -0.991
REMARK  Name = 
REMARK  6 active torsions:
REMARK  status: ('A' for Active; 'I' for Inactive)
REMARK    1  A    between atoms: C_2  and  C_4
REMARK    2  A    between atoms: C_7  and  O_8
REMARK    3  A    between atoms: O_8  and  C_9
REMARK    4  A    between atoms: C_9  and  C_10
REMARK    5  A    between atoms: C_10  and  C_11
REMARK    6  A    between atoms: C_16  and  C_17
REMARK                            x       y       z     vdW  Elec       q    Type
REMARK                         _______ _______ _______ _____ _____    ______ ____
ROOT
ATOM      1  C   UNL     1      45.828   4.714  14.156  0.00  0.00    +0.000 C 
ENDROOT
BRANCH   1   2
ATOM      2  C   UNL     1      44.973   4.655  12.914  0.00  0.00    +0.000 A 
ATOM      3  C   UNL     1      43.692   5.211  12.905  0.00  0.00    +0.000 A 
ATOM      4  C   UNL     1      42.949   5.199  11.731  0.00  0.00    +0.000 A 
ATOM      5  F   UNL     1      41.723   5.738  11.725  0.00  0.00    +0.000 F 
ATOM      6  C   UNL     1      43.464   4.658  10.555  0.00  0.00    +0.000 A 
ATOM      7  C   UNL     1      44.760   4.119  10.516  0.00  0.00    +0.000 A 
ATOM      8  C   UNL     1      45.492   4.118  11.721  0.00  0.00    +0.000 A 
BRANCH   7   9
ATOM      9  C   UNL     1      45.350   3.612   9.258  0.00  0.00    +0.000 A 
ATOM     10  C   UNL     1      45.511   2.243   8.997  0.00  0.00    +0.000 A 
ATOM     11  C   UNL     1      46.102   1.808   7.810  0.00  0.00    +0.000 A 
ATOM     12  C   UNL     1      46.517   2.758   6.894  0.00  0.00    +0.000 A 
ATOM     13  N   UNL     1      46.385   4.083   7.090  0.00  0.00    +0.000 NA
ATOM     14  C   UNL     1      45.814   4.472   8.258  0.00  0.00    +0.000 A 
ENDBRANCH   7   9
ENDBRANCH   1   2
BRANCH   1  15
ATOM     15  C   UNL     1      47.309   4.744  13.782  0.00  0.00    +0.000 C 
BRANCH  15  16
ATOM     16  O   UNL     1      47.967   5.781  14.512  0.00  0.00    +0.000 OA
BRANCH  16  20
ATOM     17  C   UNL     1      48.587   9.227  12.235  0.00  0.00    +0.000 A 
ATOM     18  C   UNL     1      48.309   9.369  13.598  0.00  0.00    +0.000 A 
ATOM     19  C   UNL     1      48.097   8.238  14.391  0.00  0.00    +0.000 A 
ATOM     20  C   UNL     1      48.157   6.957  13.834  0.00  0.00    +0.000 A 
ATOM     21  C   UNL     1      48.423   6.820  12.470  0.00  0.00    +0.000 A 
ATOM     22  C   UNL     1      48.631   7.950  11.669  0.00  0.00    +0.000 A 
BRANCH  17  24
ATOM     23  N   UNL     1      47.766  11.282  11.217  0.00  0.00    +0.000 N 
ATOM     24  C   UNL     1      48.808  10.408  11.362  0.00  0.00    +0.000 C 
ATOM     25  O   UNL     1      49.884  10.611  10.815  0.00  0.00    +0.000 OA
ATOM     26  H   UNL     1      47.960  12.129  10.698  0.00  0.00    +0.000 HD
ATOM     27  H   UNL     1      46.970  11.285  11.837  0.00  0.00    +0.000 HD
ENDBRANCH  17  24
ENDBRANCH  16  20
ENDBRANCH  15  16
ENDBRANCH   1  15
TORSDOF 6
ENDMDL
MODEL 7
REMARK VINA RESULT:    -6.582      3.484      5.701
REMARK INTER + INTRA:          -9.882
REMARK INTER:                  -9.057
REMARK INTRA:                  -0.825
REMARK UNBOUND:                -0.991
REMARK  Name = 
REMARK  6 active torsions:
REMARK  status: ('A' for Active; 'I' for Inactive)
REMARK    1  A    between atoms: C_2  and  C_4
REMARK    2  A    between atoms: C_7  and  O_8
REMARK    3  A    between atoms: O_8  and  C_9
REMARK    4  A    between atoms: C_9  and  C_10
REMARK    5  A    between atoms: C_10  and  C_11
REMARK    6  A    between atoms: C_16  and  C_17
REMARK                            x       y       z     vdW  Elec       q    Type
REMARK                         _______ _______ _______ _____ _____    ______ ____
ROOT
ATOM      1  C   UNL     1      49.152   6.804  16.094  0.00  0.00    +0.000 C 
ENDROOT
BRANCH   1   2
ATOM      2  C   UNL     1      49.091   5.427  16.709  0.00  0.00    +0.000 A 
ATOM      3  C   UNL     1      47.865   4.781  16.886  0.00  0.00    +0.000 A 
ATOM      4  C   UNL     1      47.841   3.489  17.396  0.00  0.00    +0.000 A 
ATOM      5  F   UNL     1      46.665   2.870  17.559  0.00  0.00    +0.000 F 
ATOM      6  C   UNL     1      49.017   2.818  17.722  0.00  0.00    +0.000 A 
ATOM      7  C   UNL     1      50.270   3.423  17.529  0.00  0.00    +0.000 A 
ATOM      8  C   UNL     1      50.277   4.742  17.031  0.00  0.00    +0.000 A 
BRANCH   7   9
ATOM      9  C   UNL     1      51.530   2.696  17.796  0.00  0.00    +0.000 A 
ATOM     10  C   UNL     1      51.714   1.350  17.444  0.00  0.00    +0.000 A 
ATOM     11  C   UNL     1      52.908   0.692  17.742  0.00  0.00    +0.000 A 
ATOM     12  C   UNL     1      53.908   1.400  18.384  0.00  0.00    +0.000 A 
ATOM     13  N   UNL     1      53.788   2.692  18.742  0.00  0.00    +0.000 NA
ATOM     14  C   UNL     1      52.611   3.299  18.445  0.00  0.00    +0.000 A 
ENDBRANCH   7   9
ENDBRANCH   1   2
BRANCH   1  15
ATOM     15  C   UNL     1      48.105   6.942  14.991  0.00  0.00    +0.000 C 
BRANCH  15  16
ATOM     16  O   UNL     1      48.401   6.033  13.931  0.00  0.00    +0.000 OA
BRANCH  16  20
ATOM     17  C   UNL     1      45.171   4.885  11.545  0.00  0.00    +0.000 A 
ATOM     18  C   UNL     1      45.864   6.054  11.214  0.00  0.00    +0.000 A 
ATOM     19  C   UNL     1      46.951   6.468  11.989  0.00  0.00    +0.000 A 
ATOM     20  C   UNL     1      47.355   5.724  13.101  0.00  0.00    +0.000 A 
ATOM     21  C   UNL     1      46.653   4.564  13.436  0.00  0.00    +0.000 A 
ATOM     22  C   UNL     1      45.560   4.147  12.666  0.00  0.00    +0.000 A 
BRANCH  17  24
ATOM     23  N   UNL     1      44.044   4.643   9.399  0.00  0.00    +0.000 N 
ATOM     24  C   UNL     1      44.006   4.422  10.748  0.00  0.00    +0.000 C 
ATOM     25  O   UNL     1      43.063   3.840  11.267  0.00  0.00    +0.000 OA
ATOM     26  H   UNL     1      43.291   4.239   8.857  0.00  0.00    +0.000 HD
ATOM     27  H   UNL     1      44.895   4.885   8.912  0.00  0.00    +0.000 HD
ENDBRANCH  17  24
ENDBRANCH  16  20
ENDBRANCH  15  16
ENDBRANCH   1  15
TORSDOF 6
ENDMDL
MODEL 8
REMARK VINA RESULT:    -6.506      3.598      7.703
REMARK INTER + INTRA:          -9.779
REMARK INTER:                  -8.628
REMARK INTRA:                  -1.151
REMARK UNBOUND:                -0.991
REMARK  Name = 
REMARK  6 active torsions:
REMARK  status: ('A' for Active; 'I' for Inactive)
REMARK    1  A    between atoms: C_2  and  C_4
REMARK    2  A    between atoms: C_7  and  O_8
REMARK    3  A    between atoms: O_8  and  C_9
REMARK    4  A    between atoms: C_9  and  C_10
REMARK    5  A    between atoms: C_10  and  C_11
REMARK    6  A    between atoms: C_16  and  C_17
REMARK                            x       y       z     vdW  Elec       q    Type
REMARK                         _______ _______ _______ _____ _____    ______ ____
ROOT
ATOM      1  C   UNL     1      48.982   8.362  12.234  0.00  0.00    +0.000 C 
ENDROOT
BRANCH   1   2
ATOM      2  C   UNL     1      47.490   8.179  12.096  0.00  0.00    +0.000 A 
ATOM      3  C   UNL     1      46.629   9.277  12.155  0.00  0.00    +0.000 A 
ATOM      4  C   UNL     1      45.267   9.089  11.962  0.00  0.00    +0.000 A 
ATOM      5  F   UNL     1      44.445  10.145  12.014  0.00  0.00    +0.000 F 
ATOM      6  C   UNL     1      44.741   7.828  11.695  0.00  0.00    +0.000 A 
ATOM      7  C   UNL     1      45.578   6.704  11.597  0.00  0.00    +0.000 A 
ATOM      8  C   UNL     1      46.956   6.907  11.817  0.00  0.00    +0.000 A 
BRANCH   7   9
ATOM      9  C   UNL     1      45.046   5.372  11.236  0.00  0.00    +0.000 A 
ATOM     10  C   UNL     1      44.577   4.461  12.195  0.00  0.00    +0.000 A 
ATOM     11  C   UNL     1      44.113   3.201  11.815  0.00  0.00    +0.000 A 
ATOM     12  C   UNL     1      44.118   2.875  10.471  0.00  0.00    +0.000 A 
ATOM     13  N   UNL     1      44.553   3.709   9.507  0.00  0.00    +0.000 NA
ATOM     14  C   UNL     1      45.005   4.923   9.912  0.00  0.00    +0.000 A 
ENDBRANCH   7   9
ENDBRANCH   1   2
BRANCH   1  15
ATOM     15  C   UNL     1      49.578   7.249  13.093  0.00  0.00    +0.000 C 
BRANCH  15  16
ATOM     16  O   UNL     1      49.516   7.621  14.471  0.00  0.00    +0.000 OA
BRANCH  16  20
ATOM     17  C   UNL     1      48.144   4.552  16.950  0.00  0.00    +0.000 A 
ATOM     18  C   UNL     1      49.263   5.286  17.354  0.00  0.00    +0.000 A 
ATOM     19  C   UNL     1      49.750   6.321  16.550  0.00  0.00    +0.000 A 
ATOM     20  C   UNL     1      49.128   6.632  15.338  0.00  0.00    +0.000 A 
ATOM     21  C   UNL     1      48.018   5.889  14.931  0.00  0.00    +0.000 A 
ATOM     22  C   UNL     1      47.529   4.847  15.730  0.00  0.00    +0.000 A 
BRANCH  17  24
ATOM     23  N   UNL     1      48.268   3.148  18.937  0.00  0.00    +0.000 N 
ATOM     24  C   UNL     1      47.607   3.440  17.775  0.00  0.00    +0.000 C 
ATOM     25  O   UNL     1      46.599   2.826  17.450  0.00  0.00    +0.000 OA
ATOM     26  H   UNL     1      47.838   2.454  19.534  0.00  0.00    +0.000 HD
ATOM     27  H   UNL     1      48.935   3.780  19.356  0.00  0.00    +0.000 HD
ENDBRANCH  17  24
ENDBRANCH  16  20
ENDBRANCH  15  16
ENDBRANCH   1  15
TORSDOF 6
ENDMDL
MODEL 9
REMARK VINA RESULT:    -6.384      4.364      6.316
REMARK INTER + INTRA:          -9.614
REMARK INTER:                  -8.330
REMARK INTRA:                  -1.284
REMARK UNBOUND:                -0.991
REMARK  Name = 
REMARK  6 active torsions:
REMARK  status: ('A' for Active; 'I' for Inactive)
REMARK    1  A    between atoms: C_2  and  C_4
REMARK    2  A    between atoms: C_7  and  O_8
REMARK    3  A    between atoms: O_8  and  C_9
REMARK    4  A    between atoms: C_9  and  C_10
REMARK    5  A    between atoms: C_10  and  C_11
REMARK    6  A    between atoms: C_16  and  C_17
REMARK                            x       y       z     vdW  Elec       q    Type
REMARK                         _______ _______ _______ _____ _____    ______ ____
ROOT
ATOM      1  C   UNL     1      49.944   7.918  15.931  0.00  0.00    +0.000 C 
ENDROOT
BRANCH   1   2
ATOM      2  C   UNL     1      49.594   6.757  16.830  0.00  0.00    +0.000 A 
ATOM      3  C   UNL     1      48.382   6.734  17.524  0.00  0.00    +0.000 A 
ATOM      4  C   UNL     1      48.056   5.626  18.295  0.00  0.00    +0.000 A 
ATOM      5  F   UNL     1      46.890   5.606  18.955  0.00  0.00    +0.000 F 
ATOM      6  C   UNL     1      48.907   4.527  18.379  0.00  0.00    +0.000 A 
ATOM      7  C   UNL     1      50.120   4.499  17.671  0.00  0.00    +0.000 A 
ATOM      8  C   UNL     1      50.447   5.641  16.910  0.00  0.00    +0.000 A 
BRANCH   7   9
ATOM      9  C   UNL     1      50.998   3.309  17.686  0.00  0.00    +0.000 A 
ATOM     10  C   UNL     1      52.330   3.358  18.123  0.00  0.00    +0.000 A 
ATOM     11  C   UNL     1      53.134   2.219  18.091  0.00  0.00    +0.000 A 
ATOM     12  C   UNL     1      52.585   1.037  17.627  0.00  0.00    +0.000 A 
ATOM     13  N   UNL     1      51.313   0.930  17.198  0.00  0.00    +0.000 NA
ATOM     14  C   UNL     1      50.561   2.059  17.234  0.00  0.00    +0.000 A 
ENDBRANCH   7   9
ENDBRANCH   1   2
BRANCH   1  15
ATOM     15  C   UNL     1      48.940   8.026  14.786  0.00  0.00    +0.000 C 
BRANCH  15  16
ATOM     16  O   UNL     1      48.980   6.836  13.998  0.00  0.00    +0.000 OA
BRANCH  16  20
ATOM     17  C   UNL     1      45.326   4.970  13.217  0.00  0.00    +0.000 A 
ATOM     18  C   UNL     1      45.620   6.164  12.553  0.00  0.00    +0.000 A 
ATOM     19  C   UNL     1      46.834   6.816  12.788  0.00  0.00    +0.000 A 
ATOM     20  C   UNL     1      47.763   6.286  13.688  0.00  0.00    +0.000 A 
ATOM     21  C   UNL     1      47.460   5.099  14.359  0.00  0.00    +0.000 A 
ATOM     22  C   UNL     1      46.243   4.444  14.131  0.00  0.00    +0.000 A 
BRANCH  17  24
ATOM     23  N   UNL     1      44.111   2.929  12.673  0.00  0.00    +0.000 N 
ATOM     24  C   UNL     1      44.041   4.256  12.997  0.00  0.00    +0.000 C 
ATOM     25  O   UNL     1      42.962   4.819  13.125  0.00  0.00    +0.000 OA
ATOM     26  H   UNL     1      43.231   2.434  12.619  0.00  0.00    +0.000 HD
ATOM     27  H   UNL     1      44.950   2.382  12.803  0.00  0.00    +0.000 HD
ENDBRANCH  17  24
ENDBRANCH  16  20
ENDBRANCH  15  16
ENDBRANCH   1  15
TORSDOF 6
ENDMDL
