MODEL 1
REMARK VINA RESULT:    -7.955      0.000      0.000
REMARK INTER + INTRA:         -11.817
REMARK INTER:                 -10.745
REMARK INTRA:                  -1.072
REMARK UNBOUND:                -1.072
REMARK  Name = 
REMARK  6 active torsions:
REMARK  status: ('A' for Active; 'I' for Inactive)
REMARK    1  A    between atoms: C_2  and  C_25
REMARK    2  A    between atoms: N_3  and  C_4
REMARK    3  A    between atoms: C_4  and  C_5
REMARK    4  A    between atoms: C_8  and  C_9
REMARK    5  A    between atoms: C_9  and  N_10
REMARK    6  A    between atoms: C_11  and  C_13
REMARK                            x       y       z     vdW  Elec       q    Type
REMARK                         _______ _______ _______ _____ _____    ______ ____
ROOT
ATOM      1  C   UNL     1      44.911   6.122  11.081  0.00  0.00    +0.000 A 
ATOM      2  C   UNL     1      44.375   7.260  11.683  0.00  0.00    +0.000 A 
ATOM      3  C   UNL     1      45.173   8.021  12.539  0.00  0.00    +0.000 A 
ATOM      4  C   UNL     1      46.498   7.648  12.769  0.00  0.00    +0.000 A 
ATOM      5  C   UNL     1      46.949   6.502  12.122  0.00  0.00    +0.000 A 
ATOM      6  N   UNL     1      46.201   5.743  11.282  0.00  0.00    +0.000 NA
ENDROOT
BRANCH   1   7
ATOM      7  C   UNL     1      44.051   5.244  10.196  0.00  0.00    +0.000 C 
BRANCH   7  10
ATOM      8  O   UNL     1      45.034   2.620  10.267  0.00  0.00    +0.000 OA
ATOM      9  C   UNL     1      45.212   3.289   9.258  0.00  0.00    +0.000 C 
ATOM     10  N   UNL     1      44.790   4.593   9.129  0.00  0.00    +0.000 N 
ATOM     11  H   UNL     1      44.777   5.039   8.223  0.00  0.00    +0.000 HD
BRANCH   9  12
ATOM     12  C   UNL     1      45.891   2.682   8.081  0.00  0.00    +0.000 A 
ATOM     13  C   UNL     1      46.037   3.470   6.930  0.00  0.00    +0.000 A 
ATOM     14  C   UNL     1      46.649   2.944   5.789  0.00  0.00    +0.000 A 
ATOM     15  C   UNL     1      47.101   1.626   5.793  0.00  0.00    +0.000 A 
ATOM     16 CL   UNL     1      47.852   0.977   4.388  0.00  0.00    +0.000 Cl
ATOM     17  C   UNL     1      46.942   0.828   6.928  0.00  0.00    +0.000 A 
ATOM     18  C   UNL     1      46.336   1.354   8.075  0.00  0.00    +0.000 A 
ENDBRANCH   9  12
ENDBRANCH   7  10
ENDBRANCH   1   7
BRANCH   4  19
ATOM     19  C   UNL     1      47.397   8.417  13.695  0.00  0.00    +0.000 C 
BRANCH  19  20
ATOM     20  N   UNL     1      47.744   7.649  14.866  0.00  0.00    +0.000 N 
ATOM     21  C   UNL     1      49.003   7.125  15.032  0.00  0.00    +0.000 C 
ATOM     22  O   UNL     1      49.899   7.315  14.213  0.00  0.00    +0.000 OA
ATOM     23  H   UNL     1      46.981   7.278  15.424  0.00  0.00    +0.000 HD
BRANCH  21  24
ATOM     24  C   UNL     1      49.243   6.372  16.270  0.00  0.00    +0.000 A 
ATOM     25  C   UNL     1      50.228   6.789  17.156  0.00  0.00    +0.000 A 
ATOM     26  S   UNL     1      50.336   5.830  18.563  0.00  0.00    +0.000 S 
ATOM     27  C   UNL     1      49.108   4.788  18.015  0.00  0.00    +0.000 A 
ATOM     28  N   UNL     1      48.722   3.709  18.747  0.00  0.00    +0.000 NA
ATOM     29  C   UNL     1      47.805   2.988  18.193  0.00  0.00    +0.000 A 
ATOM     30  N   UNL     1      47.233   3.252  16.975  0.00  0.00    +0.000 N 
ATOM     31  C   UNL     1      47.564   4.351  16.219  0.00  0.00    +0.000 A 
ATOM     32  O   UNL     1      46.990   4.597  15.164  0.00  0.00    +0.000 OA
ATOM     33  C   UNL     1      48.606   5.183  16.785  0.00  0.00    +0.000 A 
ATOM     34  H   UNL     1      46.508   2.656  16.602  0.00  0.00    +0.000 HD
ENDBRANCH  21  24
ENDBRANCH  19  20
ENDBRANCH   4  19
TORSDOF 6
ENDMDL
MODEL 2
REMARK VINA RESULT:    -7.872      2.587      3.217
REMARK INTER + INTRA:         -11.705
REMARK INTER:                 -10.783
REMARK INTRA:                  -0.922
REMARK UNBOUND:                -1.072
REMARK  Name = 
REMARK  6 active torsions:
REMARK  status: ('A' for Active; 'I' for Inactive)
REMARK    1  A    between atoms: C_2  and  C_25
REMARK    2  A    between atoms: N_3  and  C_4
REMARK    3  A    between atoms: C_4  and  C_5
REMARK    4  A    between atoms: C_8  and  C_9
REMARK    5  A    between atoms: C_9  and  N_10
REMARK    6  A    between atoms: C_11  and  C_13
REMARK                            x       y       z     vdW  Elec       q    Type
REMARK                         _______ _______ _______ _____ _____    ______ ____
ROOT
ATOM      1  C   UNL     1      46.189   4.724  13.419  0.00  0.00    +0.000 A 
ATOM      2  C   UNL     1      46.743   5.923  12.973  0.00  0.00    +0.000 A 
ATOM      3  C   UNL     1      47.630   6.615  13.800  0.00  0.00    +0.000 A 
ATOM      4  C   UNL     1      47.964   6.093  15.051  0.00  0.00    +0.000 A 
ATOM      5  C   UNL     1      47.367   4.889  15.409  0.00  0.00    +0.000 A 
ATOM      6  N   UNL     1      46.505   4.191  14.628  0.00  0.00    +0.000 NA
ENDROOT
BRANCH   1   7
ATOM      7  C   UNL     1      45.177   3.982  12.568  0.00  0.00    +0.000 C 
BRANCH   7  10
ATOM      8  O   UNL     1      43.618   3.139  10.397  0.00  0.00    +0.000 OA
ATOM      9  C   UNL     1      44.832   3.210  10.258  0.00  0.00    +0.000 C 
ATOM     10  N   UNL     1      45.688   3.592  11.266  0.00  0.00    +0.000 N 
ATOM     11  H   UNL     1      46.648   3.829  11.059  0.00  0.00    +0.000 HD
BRANCH   9  12
ATOM     12  C   UNL     1      45.443   2.906   8.936  0.00  0.00    +0.000 A 
ATOM     13  C   UNL     1      45.843   1.585   8.686  0.00  0.00    +0.000 A 
ATOM     14  C   UNL     1      46.439   1.247   7.469  0.00  0.00    +0.000 A 
ATOM     15  C   UNL     1      46.650   2.232   6.506  0.00  0.00    +0.000 A 
ATOM     16 CL   UNL     1      47.388   1.817   5.008  0.00  0.00    +0.000 Cl
ATOM     17  C   UNL     1      46.274   3.554   6.753  0.00  0.00    +0.000 A 
ATOM     18  C   UNL     1      45.669   3.894   7.969  0.00  0.00    +0.000 A 
ENDBRANCH   9  12
ENDBRANCH   7  10
ENDBRANCH   1   7
BRANCH   4  19
ATOM     19  C   UNL     1      48.896   6.804  15.990  0.00  0.00    +0.000 C 
BRANCH  19  20
ATOM     20  N   UNL     1      49.954   5.939  16.454  0.00  0.00    +0.000 N 
ATOM     21  C   UNL     1      50.163   5.717  17.793  0.00  0.00    +0.000 C 
ATOM     22  O   UNL     1      49.441   6.212  18.654  0.00  0.00    +0.000 OA
ATOM     23  H   UNL     1      50.697   5.719  15.798  0.00  0.00    +0.000 HD
BRANCH  21  24
ATOM     24  C   UNL     1      51.262   4.807  18.144  0.00  0.00    +0.000 A 
ATOM     25  C   UNL     1      52.380   5.292  18.810  0.00  0.00    +0.000 A 
ATOM     26  S   UNL     1      53.532   4.090  19.182  0.00  0.00    +0.000 S 
ATOM     27  C   UNL     1      52.606   2.885  18.416  0.00  0.00    +0.000 A 
ATOM     28  N   UNL     1      53.044   1.601  18.344  0.00  0.00    +0.000 NA
ATOM     29  C   UNL     1      52.257   0.802  17.704  0.00  0.00    +0.000 A 
ATOM     30  N   UNL     1      51.065   1.171  17.135  0.00  0.00    +0.000 N 
ATOM     31  C   UNL     1      50.564   2.449  17.217  0.00  0.00    +0.000 A 
ATOM     32  O   UNL     1      49.465   2.735  16.754  0.00  0.00    +0.000 OA
ATOM     33  C   UNL     1      51.421   3.392  17.906  0.00  0.00    +0.000 A 
ATOM     34  H   UNL     1      50.485   0.495  16.659  0.00  0.00    +0.000 HD
ENDBRANCH  21  24
ENDBRANCH  19  20
ENDBRANCH   4  19
TORSDOF 6
ENDMDL
MODEL 3
REMARK VINA RESULT:    -7.732      1.736      2.086
REMARK INTER + INTRA:         -11.516
REMARK INTER:                 -10.594
REMARK INTRA:                  -0.922
REMARK UNBOUND:                -1.072
REMARK  Name = 
REMARK  6 active torsions:
REMARK  status: ('A' for Active; 'I' for Inactive)
REMARK    1  A    between atoms: C_2  and  C_25
REMARK    2  A    between atoms: N_3  and  C_4
REMARK    3  A    between atoms: C_4  and  C_5
REMARK    4  A    between atoms: C_8  and  C_9
REMARK    5  A    between atoms: C_9  and  N_10
REMARK    6  A    between atoms: C_11  and  C_13
REMARK                            x       y       z     vdW  Elec       q    Type
REMARK                         _______ _______ _______ _____ _____    ______ ____
ROOT
ATOM      1  C   UNL     1      45.532   4.435  12.575  0.00  0.00    +0.000 A 
ATOM      2  C   UNL     1      46.457   4.064  13.550  0.00  0.00    +0.000 A 
ATOM      3  C   UNL     1      47.300   5.033  14.096  0.00  0.00    +0.000 A 
ATOM      4  C   UNL     1      47.197   6.360  13.676  0.00  0.00    +0.000 A 
ATOM      5  C   UNL     1      46.242   6.639  12.703  0.00  0.00    +0.000 A 
ATOM      6  N   UNL     1      45.406   5.721  12.155  0.00  0.00    +0.000 NA
ENDROOT
BRANCH   1   7
ATOM      7  C   UNL     1      44.646   3.394  11.921  0.00  0.00    +0.000 C 
BRANCH   7  10
ATOM      8  O   UNL     1      44.255   4.312   9.302  0.00  0.00    +0.000 OA
ATOM      9  C   UNL     1      44.985   3.346   9.485  0.00  0.00    +0.000 C 
ATOM     10  N   UNL     1      45.226   2.805  10.727  0.00  0.00    +0.000 N 
ATOM     11  H   UNL     1      45.979   2.145  10.860  0.00  0.00    +0.000 HD
BRANCH   9  12
ATOM     12  C   UNL     1      45.687   2.722   8.331  0.00  0.00    +0.000 A 
ATOM     13  C   UNL     1      45.855   3.492   7.171  0.00  0.00    +0.000 A 
ATOM     14  C   UNL     1      46.489   2.950   6.051  0.00  0.00    +0.000 A 
ATOM     15  C   UNL     1      46.943   1.633   6.084  0.00  0.00    +0.000 A 
ATOM     16 CL   UNL     1      47.721   0.963   4.704  0.00  0.00    +0.000 Cl
ATOM     17  C   UNL     1      46.762   0.851   7.227  0.00  0.00    +0.000 A 
ATOM     18  C   UNL     1      46.134   1.395   8.354  0.00  0.00    +0.000 A 
ENDBRANCH   9  12
ENDBRANCH   7  10
ENDBRANCH   1   7
BRANCH   4  19
ATOM     19  C   UNL     1      48.091   7.441  14.214  0.00  0.00    +0.000 C 
BRANCH  19  20
ATOM     20  N   UNL     1      48.195   7.385  15.652  0.00  0.00    +0.000 N 
ATOM     21  C   UNL     1      49.341   6.948  16.271  0.00  0.00    +0.000 C 
ATOM     22  O   UNL     1      50.340   6.621  15.634  0.00  0.00    +0.000 OA
ATOM     23  H   UNL     1      47.331   7.413  16.183  0.00  0.00    +0.000 HD
BRANCH  21  24
ATOM     24  C   UNL     1      49.334   6.947  17.740  0.00  0.00    +0.000 A 
ATOM     25  C   UNL     1      49.652   8.107  18.436  0.00  0.00    +0.000 A 
ATOM     26  S   UNL     1      49.544   7.940  20.131  0.00  0.00    +0.000 S 
ATOM     27  C   UNL     1      49.124   6.297  19.999  0.00  0.00    +0.000 A 
ATOM     28  N   UNL     1      48.916   5.533  21.105  0.00  0.00    +0.000 NA
ATOM     29  C   UNL     1      48.639   4.297  20.856  0.00  0.00    +0.000 A 
ATOM     30  N   UNL     1      48.544   3.755  19.600  0.00  0.00    +0.000 N 
ATOM     31  C   UNL     1      48.707   4.497  18.455  0.00  0.00    +0.000 A 
ATOM     32  O   UNL     1      48.552   4.001  17.344  0.00  0.00    +0.000 OA
ATOM     33  C   UNL     1      49.043   5.889  18.678  0.00  0.00    +0.000 A 
ATOM     34  H   UNL     1      48.308   2.782  19.471  0.00  0.00    +0.000 HD
ENDBRANCH  21  24
ENDBRANCH  19  20
ENDBRANCH   4  19
TORSDOF 6
ENDMDL
MODEL 4
REMARK VINA RESULT:    -7.192      4.978      7.467
REMARK INTER + INTRA:         -10.787
REMARK INTER:                  -9.799
REMARK INTRA:                  -0.989
REMARK UNBOUND:                -1.072
REMARK  Name = 
REMARK  6 active torsions:
REMARK  status: ('A' for Active; 'I' for Inactive)
REMARK    1  A    between atoms: C_2  and  C_25
REMARK    2  A    between atoms: N_3  and  C_4
REMARK    3  A    between atoms: C_4  and  C_5
REMARK    4  A    between atoms: C_8  and  C_9
REMARK    5  A    between atoms: C_9  and  N_10
REMARK    6  A    between atoms: C_11  and  C_13
REMARK                            x       y       z     vdW  Elec       q    Type
REMARK                         _______ _______ _______ _____ _____    ______ ____
ROOT
ATOM      1  C   UNL     1      44.976   9.175  11.898  0.00  0.00    +0.000 A 
ATOM      2  C   UNL     1      46.003   9.049  12.833  0.00  0.00    +0.000 A 
ATOM      3  C   UNL     1      46.381   7.777  13.265  0.00  0.00    +0.000 A 
ATOM      4  C   UNL     1      45.742   6.649  12.748  0.00  0.00    +0.000 A 
ATOM      5  C   UNL     1      44.733   6.871  11.816  0.00  0.00    +0.000 A 
ATOM      6  N   UNL     1      44.345   8.093  11.372  0.00  0.00    +0.000 NA
ENDROOT
BRANCH   1   7
ATOM      7  C   UNL     1      44.504  10.546  11.455  0.00  0.00    +0.000 C 
BRANCH   7  10
ATOM      8  O   UNL     1      42.165  10.357   9.924  0.00  0.00    +0.000 OA
ATOM      9  C   UNL     1      42.079  10.730  11.087  0.00  0.00    +0.000 C 
ATOM     10  N   UNL     1      43.168  10.877  11.915  0.00  0.00    +0.000 N 
ATOM     11  H   UNL     1      43.040  10.991  12.911  0.00  0.00    +0.000 HD
BRANCH   9  12
ATOM     12  C   UNL     1      40.743  11.018  11.673  0.00  0.00    +0.000 A 
ATOM     13  C   UNL     1      39.640  10.313  11.169  0.00  0.00    +0.000 A 
ATOM     14  C   UNL     1      38.359  10.557  11.670  0.00  0.00    +0.000 A 
ATOM     15  C   UNL     1      38.177  11.517  12.663  0.00  0.00    +0.000 A 
ATOM     16 CL   UNL     1      36.599  11.821  13.278  0.00  0.00    +0.000 Cl
ATOM     17  C   UNL     1      39.266  12.238  13.157  0.00  0.00    +0.000 A 
ATOM     18  C   UNL     1      40.551  11.990  12.663  0.00  0.00    +0.000 A 
ENDBRANCH   9  12
ENDBRANCH   7  10
ENDBRANCH   1   7
BRANCH   4  19
ATOM     19  C   UNL     1      46.093   5.257  13.192  0.00  0.00    +0.000 C 
BRANCH  19  20
ATOM     20  N   UNL     1      46.692   5.248  14.505  0.00  0.00    +0.000 N 
ATOM     21  C   UNL     1      47.288   4.119  15.012  0.00  0.00    +0.000 C 
ATOM     22  O   UNL     1      47.372   3.080  14.361  0.00  0.00    +0.000 OA
ATOM     23  H   UNL     1      46.428   5.992  15.142  0.00  0.00    +0.000 HD
BRANCH  21  24
ATOM     24  C   UNL     1      47.875   4.233  16.354  0.00  0.00    +0.000 A 
ATOM     25  C   UNL     1      47.496   3.348  17.355  0.00  0.00    +0.000 A 
ATOM     26  S   UNL     1      48.313   3.594  18.833  0.00  0.00    +0.000 S 
ATOM     27  C   UNL     1      49.161   4.929  18.206  0.00  0.00    +0.000 A 
ATOM     28  N   UNL     1      50.028   5.637  18.979  0.00  0.00    +0.000 NA
ATOM     29  C   UNL     1      50.573   6.645  18.383  0.00  0.00    +0.000 A 
ATOM     30  N   UNL     1      50.337   7.004  17.082  0.00  0.00    +0.000 N 
ATOM     31  C   UNL     1      49.500   6.296  16.253  0.00  0.00    +0.000 A 
ATOM     32  O   UNL     1      49.358   6.603  15.075  0.00  0.00    +0.000 OA
ATOM     33  C   UNL     1      48.842   5.166  16.879  0.00  0.00    +0.000 A 
ATOM     34  H   UNL     1      50.808   7.796  16.668  0.00  0.00    +0.000 HD
ENDBRANCH  21  24
ENDBRANCH  19  20
ENDBRANCH   4  19
TORSDOF 6
ENDMDL
MODEL 5
REMARK VINA RESULT:    -7.159      2.359      2.740
REMARK INTER + INTRA:         -10.742
REMARK INTER:                  -9.918
REMARK INTRA:                  -0.824
REMARK UNBOUND:                -1.072
REMARK  Name = 
REMARK  6 active torsions:
REMARK  status: ('A' for Active; 'I' for Inactive)
REMARK    1  A    between atoms: C_2  and  C_25
REMARK    2  A    between atoms: N_3  and  C_4
REMARK    3  A    between atoms: C_4  and  C_5
REMARK    4  A    between atoms: C_8  and  C_9
REMARK    5  A    between atoms: C_9  and  N_10
REMARK    6  A    between atoms: C_11  and  C_13
REMARK                            x       y       z     vdW  Elec       q    Type
REMARK                         _______ _______ _______ _____ _____    ______ ____
ROOT
ATOM      1  C   UNL     1      45.688   6.355  12.626  0.00  0.00    +0.000 A 
ATOM      2  C   UNL     1      45.427   7.723  12.556  0.00  0.00    +0.000 A 
ATOM      3  C   UNL     1      46.285   8.616  13.199  0.00  0.00    +0.000 A 
ATOM      4  C   UNL     1      47.399   8.135  13.889  0.00  0.00    +0.000 A 
ATOM      5  C   UNL     1      47.582   6.756  13.901  0.00  0.00    +0.000 A 
ATOM      6  N   UNL     1      46.770   5.862  13.283  0.00  0.00    +0.000 NA
ENDROOT
BRANCH   1   7
ATOM      7  C   UNL     1      44.741   5.359  11.988  0.00  0.00    +0.000 C 
BRANCH   7  10
ATOM      8  O   UNL     1      43.497   4.555   9.608  0.00  0.00    +0.000 OA
ATOM      9  C   UNL     1      44.662   4.233   9.803  0.00  0.00    +0.000 C 
ATOM     10  N   UNL     1      45.356   4.558  10.945  0.00  0.00    +0.000 N 
ATOM     11  H   UNL     1      46.360   4.449  10.982  0.00  0.00    +0.000 HD
BRANCH   9  12
ATOM     12  C   UNL     1      45.402   3.477   8.757  0.00  0.00    +0.000 A 
ATOM     13  C   UNL     1      45.537   2.091   8.920  0.00  0.00    +0.000 A 
ATOM     14  C   UNL     1      46.239   1.335   7.979  0.00  0.00    +0.000 A 
ATOM     15  C   UNL     1      46.820   1.965   6.881  0.00  0.00    +0.000 A 
ATOM     16 CL   UNL     1      47.688   1.036   5.722  0.00  0.00    +0.000 Cl
ATOM     17  C   UNL     1      46.708   3.348   6.719  0.00  0.00    +0.000 A 
ATOM     18  C   UNL     1      45.998   4.107   7.657  0.00  0.00    +0.000 A 
ENDBRANCH   9  12
ENDBRANCH   7  10
ENDBRANCH   1   7
BRANCH   4  19
ATOM     19  C   UNL     1      48.344   9.048  14.617  0.00  0.00    +0.000 C 
BRANCH  19  20
ATOM     20  N   UNL     1      48.108   9.041  16.041  0.00  0.00    +0.000 N 
ATOM     21  C   UNL     1      48.978   8.427  16.909  0.00  0.00    +0.000 C 
ATOM     22  O   UNL     1      50.013   7.891  16.520  0.00  0.00    +0.000 OA
ATOM     23  H   UNL     1      47.167   9.254  16.358  0.00  0.00    +0.000 HD
BRANCH  21  24
ATOM     24  C   UNL     1      48.639   8.497  18.336  0.00  0.00    +0.000 A 
ATOM     25  C   UNL     1      48.814   9.685  19.034  0.00  0.00    +0.000 A 
ATOM     26  S   UNL     1      48.323   9.601  20.666  0.00  0.00    +0.000 S 
ATOM     27  C   UNL     1      47.911   7.956  20.516  0.00  0.00    +0.000 A 
ATOM     28  N   UNL     1      47.444   7.249  21.578  0.00  0.00    +0.000 NA
ATOM     29  C   UNL     1      47.206   6.004  21.328  0.00  0.00    +0.000 A 
ATOM     30  N   UNL     1      47.387   5.405  20.108  0.00  0.00    +0.000 N 
ATOM     31  C   UNL     1      47.819   6.090  18.998  0.00  0.00    +0.000 A 
ATOM     32  O   UNL     1      47.909   5.542  17.904  0.00  0.00    +0.000 OA
ATOM     33  C   UNL     1      48.123   7.487  19.229  0.00  0.00    +0.000 A 
ATOM     34  H   UNL     1      47.167   4.428  19.972  0.00  0.00    +0.000 HD
ENDBRANCH  21  24
ENDBRANCH  19  20
ENDBRANCH   4  19
TORSDOF 6
ENDMDL
MODEL 6
REMARK VINA RESULT:    -7.021      4.050      8.939
REMARK INTER + INTRA:         -10.555
REMARK INTER:                  -9.671
REMARK INTRA:                  -0.884
REMARK UNBOUND:                -1.072
REMARK  Name = 
REMARK  6 active torsions:
REMARK  status: ('A' for Active; 'I' for Inactive)
REMARK    1  A    between atoms: C_2  and  C_25
REMARK    2  A    between atoms: N_3  and  C_4
REMARK    3  A    between atoms: C_4  and  C_5
REMARK    4  A    between atoms: C_8  and  C_9
REMARK    5  A    between atoms: C_9  and  N_10
REMARK    6  A    between atoms: C_11  and  C_13
REMARK                            x       y       z     vdW  Elec       q    Type
REMARK                         _______ _______ _______ _____ _____    ______ ____
ROOT
ATOM      1  C   UNL     1      49.147   7.350  15.943  0.00  0.00    +0.000 A 
ATOM      2  C   UNL     1      48.813   8.629  15.500  0.00  0.00    +0.000 A 
ATOM      3  C   UNL     1      48.160   8.779  14.275  0.00  0.00    +0.000 A 
ATOM      4  C   UNL     1      47.834   7.652  13.519  0.00  0.00    +0.000 A 
ATOM      5  C   UNL     1      48.201   6.416  14.043  0.00  0.00    +0.000 A 
ATOM      6  N   UNL     1      48.832   6.237  15.231  0.00  0.00    +0.000 NA
ENDROOT
BRANCH   1   7
ATOM      7  C   UNL     1      49.909   7.161  17.239  0.00  0.00    +0.000 C 
BRANCH   7  10
ATOM      8  O   UNL     1      49.327   4.925  18.826  0.00  0.00    +0.000 OA
ATOM      9  C   UNL     1      50.302   4.885  18.086  0.00  0.00    +0.000 C 
ATOM     10  N   UNL     1      50.686   5.936  17.284  0.00  0.00    +0.000 N 
ATOM     11  H   UNL     1      51.366   5.796  16.550  0.00  0.00    +0.000 HD
BRANCH   9  12
ATOM     12  C   UNL     1      51.116   3.642  18.003  0.00  0.00    +0.000 A 
ATOM     13  C   UNL     1      52.431   3.686  18.487  0.00  0.00    +0.000 A 
ATOM     14  C   UNL     1      53.246   2.553  18.416  0.00  0.00    +0.000 A 
ATOM     15  C   UNL     1      52.752   1.381  17.848  0.00  0.00    +0.000 A 
ATOM     16 CL   UNL     1      53.756  -0.013  17.758  0.00  0.00    +0.000 Cl
ATOM     17  C   UNL     1      51.450   1.334  17.346  0.00  0.00    +0.000 A 
ATOM     18  C   UNL     1      50.628   2.465  17.422  0.00  0.00    +0.000 A 
ENDBRANCH   9  12
ENDBRANCH   7  10
ENDBRANCH   1   7
BRANCH   4  19
ATOM     19  C   UNL     1      47.150   7.754  12.185  0.00  0.00    +0.000 C 
BRANCH  19  20
ATOM     20  N   UNL     1      46.545   6.503  11.795  0.00  0.00    +0.000 N 
ATOM     21  C   UNL     1      45.226   6.231  12.064  0.00  0.00    +0.000 C 
ATOM     22  O   UNL     1      44.492   7.050  12.613  0.00  0.00    +0.000 OA
ATOM     23  H   UNL     1      47.168   5.734  11.569  0.00  0.00    +0.000 HD
BRANCH  21  24
ATOM     24  C   UNL     1      44.718   4.930  11.607  0.00  0.00    +0.000 A 
ATOM     25  C   UNL     1      43.977   4.133  12.470  0.00  0.00    +0.000 A 
ATOM     26  S   UNL     1      43.425   2.683  11.760  0.00  0.00    +0.000 S 
ATOM     27  C   UNL     1      44.204   3.040  10.290  0.00  0.00    +0.000 A 
ATOM     28  N   UNL     1      44.157   2.177   9.241  0.00  0.00    +0.000 NA
ATOM     29  C   UNL     1      44.821   2.561   8.202  0.00  0.00    +0.000 A 
ATOM     30  N   UNL     1      45.524   3.736   8.115  0.00  0.00    +0.000 N 
ATOM     31  C   UNL     1      45.566   4.656   9.135  0.00  0.00    +0.000 A 
ATOM     32  O   UNL     1      46.148   5.727   9.006  0.00  0.00    +0.000 OA
ATOM     33  C   UNL     1      44.855   4.263  10.335  0.00  0.00    +0.000 A 
ATOM     34  H   UNL     1      46.012   3.987   7.267  0.00  0.00    +0.000 HD
ENDBRANCH  21  24
ENDBRANCH  19  20
ENDBRANCH   4  19
TORSDOF 6
ENDMDL
MODEL 7
REMARK VINA RESULT:    -6.943      4.453      8.743
REMARK INTER + INTRA:         -10.451
REMARK INTER:                  -9.577
REMARK INTRA:                  -0.873
REMARK UNBOUND:                -1.072
REMARK  Name = 
REMARK  6 active torsions:
REMARK  status: ('A' for Active; 'I' for Inactive)
REMARK    1  A    between atoms: C_2  and  C_25
REMARK    2  A    between atoms: N_3  and  C_4
REMARK    3  A    between atoms: C_4  and  C_5
REMARK    4  A    between atoms: C_8  and  C_9
REMARK    5  A    between atoms: C_9  and  N_10
REMARK    6  A    between atoms: C_11  and  C_13
REMARK                            x       y       z     vdW  Elec       q    Type
REMARK                         _______ _______ _______ _____ _____    ______ ____
ROOT
ATOM      1  C   UNL     1      50.067   7.142  15.863  0.00  0.00    +0.000 A 
ATOM      2  C   UNL     1      48.804   6.653  15.534  0.00  0.00    +0.000 A 
ATOM      3  C   UNL     1      48.278   6.914  14.268  0.00  0.00    +0.000 A 
ATOM      4  C   UNL     1      49.025   7.645  13.342  0.00  0.00    +0.000 A 
ATOM      5  C   UNL     1      50.277   8.088  13.756  0.00  0.00    +0.000 A 
ATOM      6  N   UNL     1      50.818   7.848  14.977  0.00  0.00    +0.000 NA
ENDROOT
BRANCH   1   7
ATOM      7  C   UNL     1      50.638   6.925  17.250  0.00  0.00    +0.000 C 
BRANCH   7  10
ATOM      8  O   UNL     1      49.655   4.435  18.081  0.00  0.00    +0.000 OA
ATOM      9  C   UNL     1      50.836   4.529  17.772  0.00  0.00    +0.000 C 
ATOM     10  N   UNL     1      51.421   5.709  17.372  0.00  0.00    +0.000 N 
ATOM     11  H   UNL     1      52.334   5.706  16.940  0.00  0.00    +0.000 HD
BRANCH   9  12
ATOM     12  C   UNL     1      51.702   3.320  17.790  0.00  0.00    +0.000 A 
ATOM     13  C   UNL     1      51.124   2.093  17.432  0.00  0.00    +0.000 A 
ATOM     14  C   UNL     1      51.886   0.923  17.450  0.00  0.00    +0.000 A 
ATOM     15  C   UNL     1      53.222   0.975  17.839  0.00  0.00    +0.000 A 
ATOM     16 CL   UNL     1      54.161  -0.467  17.865  0.00  0.00    +0.000 Cl
ATOM     17  C   UNL     1      53.802   2.188  18.217  0.00  0.00    +0.000 A 
ATOM     18  C   UNL     1      53.043   3.364  18.192  0.00  0.00    +0.000 A 
ENDBRANCH   9  12
ENDBRANCH   7  10
ENDBRANCH   1   7
BRANCH   4  19
ATOM     19  C   UNL     1      48.501   7.974  11.973  0.00  0.00    +0.000 C 
BRANCH  19  20
ATOM     20  N   UNL     1      47.744   6.881  11.411  0.00  0.00    +0.000 N 
ATOM     21  C   UNL     1      46.371   6.888  11.409  0.00  0.00    +0.000 C 
ATOM     22  O   UNL     1      45.725   7.836  11.849  0.00  0.00    +0.000 OA
ATOM     23  H   UNL     1      48.231   6.002  11.269  0.00  0.00    +0.000 HD
BRANCH  21  24
ATOM     24  C   UNL     1      45.710   5.727  10.798  0.00  0.00    +0.000 A 
ATOM     25  C   UNL     1      45.812   5.512   9.429  0.00  0.00    +0.000 A 
ATOM     26  S   UNL     1      45.028   4.092   8.899  0.00  0.00    +0.000 S 
ATOM     27  C   UNL     1      44.474   3.743  10.469  0.00  0.00    +0.000 A 
ATOM     28  N   UNL     1      43.698   2.655  10.715  0.00  0.00    +0.000 NA
ATOM     29  C   UNL     1      43.322   2.534  11.945  0.00  0.00    +0.000 A 
ATOM     30  N   UNL     1      43.659   3.400  12.953  0.00  0.00    +0.000 N 
ATOM     31  C   UNL     1      44.473   4.490  12.759  0.00  0.00    +0.000 A 
ATOM     32  O   UNL     1      44.810   5.210  13.692  0.00  0.00    +0.000 OA
ATOM     33  C   UNL     1      44.905   4.686  11.389  0.00  0.00    +0.000 A 
ATOM     34  H   UNL     1      43.345   3.241  13.900  0.00  0.00    +0.000 HD
ENDBRANCH  21  24
ENDBRANCH  19  20
ENDBRANCH   4  19
TORSDOF 6
ENDMDL
MODEL 8
REMARK VINA RESULT:    -6.903      3.978      5.456
REMARK INTER + INTRA:         -10.396
REMARK INTER:                  -9.219
REMARK INTRA:                  -1.177
REMARK UNBOUND:                -1.072
REMARK  Name = 
REMARK  6 active torsions:
REMARK  status: ('A' for Active; 'I' for Inactive)
REMARK    1  A    between atoms: C_2  and  C_25
REMARK    2  A    between atoms: N_3  and  C_4
REMARK    3  A    between atoms: C_4  and  C_5
REMARK    4  A    between atoms: C_8  and  C_9
REMARK    5  A    between atoms: C_9  and  N_10
REMARK    6  A    between atoms: C_11  and  C_13
REMARK                            x       y       z     vdW  Elec       q    Type
REMARK                         _______ _______ _______ _____ _____    ______ ____
ROOT
ATOM      1  C   UNL     1      45.348   6.483  12.329  0.00  0.00    +0.000 A 
ATOM      2  C   UNL     1      46.558   6.528  13.021  0.00  0.00    +0.000 A 
ATOM      3  C   UNL     1      47.228   7.746  13.147  0.00  0.00    +0.000 A 
ATOM      4  C   UNL     1      46.675   8.904  12.597  0.00  0.00    +0.000 A 
ATOM      5  C   UNL     1      45.462   8.764  11.930  0.00  0.00    +0.000 A 
ATOM      6  N   UNL     1      44.785   7.597  11.793  0.00  0.00    +0.000 NA
ENDROOT
BRANCH   1   7
ATOM      7  C   UNL     1      44.629   5.165  12.125  0.00  0.00    +0.000 C 
BRANCH   7  10
ATOM      8  O   UNL     1      43.558   4.766   9.566  0.00  0.00    +0.000 OA
ATOM      9  C   UNL     1      44.618   4.223   9.852  0.00  0.00    +0.000 C 
ATOM     10  N   UNL     1      45.216   4.337  11.086  0.00  0.00    +0.000 N 
ATOM     11  H   UNL     1      46.174   4.046  11.218  0.00  0.00    +0.000 HD
BRANCH   9  12
ATOM     12  C   UNL     1      45.335   3.418   8.827  0.00  0.00    +0.000 A 
ATOM     13  C   UNL     1      45.406   2.030   9.014  0.00  0.00    +0.000 A 
ATOM     14  C   UNL     1      46.084   1.229   8.093  0.00  0.00    +0.000 A 
ATOM     15  C   UNL     1      46.705   1.815   6.993  0.00  0.00    +0.000 A 
ATOM     16 CL   UNL     1      47.543   0.829   5.859  0.00  0.00    +0.000 Cl
ATOM     17  C   UNL     1      46.657   3.198   6.808  0.00  0.00    +0.000 A 
ATOM     18  C   UNL     1      45.972   4.003   7.725  0.00  0.00    +0.000 A 
ENDBRANCH   9  12
ENDBRANCH   7  10
ENDBRANCH   1   7
BRANCH   4  19
ATOM     19  C   UNL     1      47.361  10.237  12.685  0.00  0.00    +0.000 C 
BRANCH  19  20
ATOM     20  N   UNL     1      48.757  10.147  12.330  0.00  0.00    +0.000 N 
ATOM     21  C   UNL     1      49.231  10.665  11.149  0.00  0.00    +0.000 C 
ATOM     22  O   UNL     1      48.500  11.260  10.361  0.00  0.00    +0.000 OA
ATOM     23  H   UNL     1      49.322   9.466  12.829  0.00  0.00    +0.000 HD
BRANCH  21  24
ATOM     24  C   UNL     1      50.672  10.524  10.902  0.00  0.00    +0.000 A 
ATOM     25  C   UNL     1      51.447  11.650  10.655  0.00  0.00    +0.000 A 
ATOM     26  S   UNL     1      53.105  11.308  10.441  0.00  0.00    +0.000 S 
ATOM     27  C   UNL     1      52.840   9.636  10.615  0.00  0.00    +0.000 A 
ATOM     28  N   UNL     1      53.863   8.748  10.507  0.00  0.00    +0.000 NA
ATOM     29  C   UNL     1      53.511   7.511  10.626  0.00  0.00    +0.000 A 
ATOM     30  N   UNL     1      52.228   7.082  10.851  0.00  0.00    +0.000 N 
ATOM     31  C   UNL     1      51.171   7.946  11.006  0.00  0.00    +0.000 A 
ATOM     32  O   UNL     1      50.045   7.537  11.270  0.00  0.00    +0.000 OA
ATOM     33  C   UNL     1      51.507   9.348  10.858  0.00  0.00    +0.000 A 
ATOM     34  H   UNL     1      52.019   6.099  10.950  0.00  0.00    +0.000 HD
ENDBRANCH  21  24
ENDBRANCH  19  20
ENDBRANCH   4  19
TORSDOF 6
ENDMDL
MODEL 9
REMARK VINA RESULT:    -6.794      4.936      6.748
REMARK INTER + INTRA:         -10.248
REMARK INTER:                  -9.516
REMARK INTRA:                  -0.732
REMARK UNBOUND:                -1.072
REMARK  Name = 
REMARK  6 active torsions:
REMARK  status: ('A' for Active; 'I' for Inactive)
REMARK    1  A    between atoms: C_2  and  C_25
REMARK    2  A    between atoms: N_3  and  C_4
REMARK    3  A    between atoms: C_4  and  C_5
REMARK    4  A    between atoms: C_8  and  C_9
REMARK    5  A    between atoms: C_9  and  N_10
REMARK    6  A    between atoms: C_11  and  C_13
REMARK                            x       y       z     vdW  Elec       q    Type
REMARK                         _______ _______ _______ _____ _____    ______ ____
ROOT
ATOM      1  C   UNL     1      45.178   7.501  11.910  0.00  0.00    +0.000 A 
ATOM      2  C   UNL     1      44.239   6.484  12.068  0.00  0.00    +0.000 A 
ATOM      3  C   UNL     1      44.553   5.380  12.863  0.00  0.00    +0.000 A 
ATOM      4  C   UNL     1      45.792   5.315  13.503  0.00  0.00    +0.000 A 
ATOM      5  C   UNL     1      46.664   6.378  13.293  0.00  0.00    +0.000 A 
ATOM      6  N   UNL     1      46.387   7.466  12.530  0.00  0.00    +0.000 NA
ENDROOT
BRANCH   1   7
ATOM      7  C   UNL     1      44.888   8.681  11.005  0.00  0.00    +0.000 C 
BRANCH   7  10
ATOM      8  O   UNL     1      43.887  11.244  10.470  0.00  0.00    +0.000 OA
ATOM      9  C   UNL     1      43.095  10.330  10.663  0.00  0.00    +0.000 C 
ATOM     10  N   UNL     1      43.482   9.042  10.954  0.00  0.00    +0.000 N 
ATOM     11  H   UNL     1      42.815   8.285  10.909  0.00  0.00    +0.000 HD
BRANCH   9  12
ATOM     12  C   UNL     1      41.633  10.585  10.553  0.00  0.00    +0.000 A 
ATOM     13  C   UNL     1      41.208  11.605   9.690  0.00  0.00    +0.000 A 
ATOM     14  C   UNL     1      39.848  11.900   9.563  0.00  0.00    +0.000 A 
ATOM     15  C   UNL     1      38.914  11.187  10.310  0.00  0.00    +0.000 A 
ATOM     16 CL   UNL     1      37.240  11.552  10.158  0.00  0.00    +0.000 Cl
ATOM     17  C   UNL     1      39.329  10.183  11.188  0.00  0.00    +0.000 A 
ATOM     18  C   UNL     1      40.690   9.880  11.311  0.00  0.00    +0.000 A 
ENDBRANCH   9  12
ENDBRANCH   7  10
ENDBRANCH   1   7
BRANCH   4  19
ATOM     19  C   UNL     1      46.192   4.143  14.354  0.00  0.00    +0.000 C 
BRANCH  19  20
ATOM     20  N   UNL     1      47.314   4.457  15.206  0.00  0.00    +0.000 N 
ATOM     21  C   UNL     1      47.399   3.968  16.487  0.00  0.00    +0.000 C 
ATOM     22  O   UNL     1      46.548   3.213  16.952  0.00  0.00    +0.000 OA
ATOM     23  H   UNL     1      47.890   5.251  14.944  0.00  0.00    +0.000 HD
BRANCH  21  24
ATOM     24  C   UNL     1      48.593   4.344  17.255  0.00  0.00    +0.000 A 
ATOM     25  C   UNL     1      48.637   5.565  17.915  0.00  0.00    +0.000 A 
ATOM     26  S   UNL     1      50.076   5.816  18.797  0.00  0.00    +0.000 S 
ATOM     27  C   UNL     1      50.718   4.327  18.282  0.00  0.00    +0.000 A 
ATOM     28  N   UNL     1      51.963   3.930  18.659  0.00  0.00    +0.000 NA
ATOM     29  C   UNL     1      52.334   2.796  18.165  0.00  0.00    +0.000 A 
ATOM     30  N   UNL     1      51.569   2.018  17.335  0.00  0.00    +0.000 N 
ATOM     31  C   UNL     1      50.291   2.360  16.961  0.00  0.00    +0.000 A 
ATOM     32  O   UNL     1      49.606   1.614  16.269  0.00  0.00    +0.000 OA
ATOM     33  C   UNL     1      49.834   3.638  17.469  0.00  0.00    +0.000 A 
ATOM     34  H   UNL     1      51.911   1.131  16.994  0.00  0.00    +0.000 HD
ENDBRANCH  21  24
ENDBRANCH  19  20
ENDBRANCH   4  19
TORSDOF 6
ENDMDL
