MODEL 1
REMARK VINA RESULT:    -7.805      0.000      0.000
REMARK INTER + INTRA:         -11.866
REMARK INTER:                 -10.543
REMARK INTRA:                  -1.323
REMARK UNBOUND:                -1.323
REMARK  Name = 
REMARK  7 active torsions:
REMARK  status: ('A' for Active; 'I' for Inactive)
REMARK    1  A    between atoms: C_1  and  N_2
REMARK    2  A    between atoms: C_4  and  C_5
REMARK    3  A    between atoms: N_7  and  C_8
REMARK    4  A    between atoms: C_8  and  C_9
REMARK    5  A    between atoms: C_12  and  C_13
REMARK    6  A    between atoms: C_13  and  C_14
REMARK    7  A    between atoms: C_14  and  N_15
REMARK                            x       y       z     vdW  Elec       q    Type
REMARK                         _______ _______ _______ _____ _____    ______ ____
ROOT
ATOM      1  C   UNL     1      46.930   7.749  12.699  0.00  0.00    +0.000 C 
ENDROOT
BRANCH   1   2
ATOM      2  C   UNL     1      46.050   6.617  12.266  0.00  0.00    +0.000 A 
ATOM      3  C   UNL     1      45.242   5.943  13.179  0.00  0.00    +0.000 A 
ATOM      4  C   UNL     1      44.461   4.869  12.757  0.00  0.00    +0.000 A 
ATOM      5  C   UNL     1      44.485   4.487  11.417  0.00  0.00    +0.000 A 
ATOM      6  N   UNL     1      45.258   5.142  10.513  0.00  0.00    +0.000 NA
ATOM      7  C   UNL     1      46.015   6.178  10.950  0.00  0.00    +0.000 A 
BRANCH   5   8
ATOM      8  C   UNL     1      43.672   3.337  10.864  0.00  0.00    +0.000 C 
BRANCH   8   9
ATOM      9  C   UNL     1      44.413   2.420   9.888  0.00  0.00    +0.000 C 
BRANCH   9  10
ATOM     10  N   UNL     1      44.432   2.981   8.546  0.00  0.00    +0.000 N 
ATOM     11  C   UNL     1      45.585   2.669   7.832  0.00  0.00    +0.000 A 
ATOM     12  N   UNL     1      46.237   1.518   8.066  0.00  0.00    +0.000 NA
ATOM     13  C   UNL     1      47.340   1.276   7.334  0.00  0.00    +0.000 A 
ATOM     14  C   UNL     1      47.817   2.140   6.381  0.00  0.00    +0.000 A 
ATOM     15  C   UNL     1      47.090   3.292   6.225  0.00  0.00    +0.000 A 
ATOM     16  N   UNL     1      45.984   3.581   6.938  0.00  0.00    +0.000 NA
ATOM     17  H   UNL     1      44.324   3.986   8.475  0.00  0.00    +0.000 HD
ENDBRANCH   9  10
ENDBRANCH   8   9
ENDBRANCH   5   8
ENDBRANCH   1   2
BRANCH   1  20
ATOM     18  C   UNL     1      48.506   6.971  14.388  0.00  0.00    +0.000 C 
ATOM     19  O   UNL     1      49.229   6.500  13.518  0.00  0.00    +0.000 OA
ATOM     20  N   UNL     1      47.342   7.647  14.078  0.00  0.00    +0.000 N 
ATOM     21  H   UNL     1      46.717   7.941  14.815  0.00  0.00    +0.000 HD
BRANCH  18  25
ATOM     22  C   UNL     1      50.279   8.115  18.907  0.00  0.00    +0.000 C 
ATOM     23  N   UNL     1      49.633   7.397  17.831  0.00  0.00    +0.000 N 
ATOM     24  C   UNL     1      49.453   7.859  16.556  0.00  0.00    +0.000 A 
ATOM     25  C   UNL     1      48.817   6.870  15.811  0.00  0.00    +0.000 A 
ATOM     26  C   UNL     1      48.599   5.758  16.708  0.00  0.00    +0.000 A 
ATOM     27  C   UNL     1      48.037   4.484  16.705  0.00  0.00    +0.000 A 
ATOM     28 CL   UNL     1      47.276   3.852  15.330  0.00  0.00    +0.000 Cl
ATOM     29  N   UNL     1      48.005   3.708  17.803  0.00  0.00    +0.000 NA
ATOM     30  C   UNL     1      48.550   4.210  18.918  0.00  0.00    +0.000 A 
ATOM     31  N   UNL     1      49.125   5.409  19.077  0.00  0.00    +0.000 NA
ATOM     32  C   UNL     1      49.118   6.139  17.945  0.00  0.00    +0.000 A 
ENDBRANCH  18  25
ENDBRANCH   1  20
TORSDOF 6
ENDMDL
MODEL 2
REMARK VINA RESULT:    -7.569      1.986      2.747
REMARK INTER + INTRA:         -11.548
REMARK INTER:                 -10.763
REMARK INTRA:                  -0.784
REMARK UNBOUND:                -1.323
REMARK  Name = 
REMARK  7 active torsions:
REMARK  status: ('A' for Active; 'I' for Inactive)
REMARK    1  A    between atoms: C_1  and  N_2
REMARK    2  A    between atoms: C_4  and  C_5
REMARK    3  A    between atoms: N_7  and  C_8
REMARK    4  A    between atoms: C_8  and  C_9
REMARK    5  A    between atoms: C_12  and  C_13
REMARK    6  A    between atoms: C_13  and  C_14
REMARK    7  A    between atoms: C_14  and  N_15
REMARK                            x       y       z     vdW  Elec       q    Type
REMARK                         _______ _______ _______ _____ _____    ______ ____
ROOT
ATOM      1  C   UNL     1      48.175   6.468  13.985  0.00  0.00    +0.000 C 
ENDROOT
BRANCH   1   2
ATOM      2  C   UNL     1      47.058   5.794  13.249  0.00  0.00    +0.000 A 
ATOM      3  C   UNL     1      46.552   6.326  12.064  0.00  0.00    +0.000 A 
ATOM      4  C   UNL     1      45.487   5.700  11.420  0.00  0.00    +0.000 A 
ATOM      5  C   UNL     1      44.946   4.535  11.961  0.00  0.00    +0.000 A 
ATOM      6  N   UNL     1      45.436   3.999  13.107  0.00  0.00    +0.000 NA
ATOM      7  C   UNL     1      46.466   4.631  13.720  0.00  0.00    +0.000 A 
BRANCH   5   8
ATOM      8  C   UNL     1      43.792   3.784  11.332  0.00  0.00    +0.000 C 
BRANCH   8   9
ATOM      9  C   UNL     1      44.181   2.763  10.260  0.00  0.00    +0.000 C 
BRANCH   9  10
ATOM     10  N   UNL     1      44.258   3.380   8.946  0.00  0.00    +0.000 N 
ATOM     11  C   UNL     1      45.369   2.977   8.209  0.00  0.00    +0.000 A 
ATOM     12  N   UNL     1      45.891   1.752   8.386  0.00  0.00    +0.000 NA
ATOM     13  C   UNL     1      46.959   1.425   7.634  0.00  0.00    +0.000 A 
ATOM     14  C   UNL     1      47.525   2.275   6.719  0.00  0.00    +0.000 A 
ATOM     15  C   UNL     1      46.929   3.506   6.621  0.00  0.00    +0.000 A 
ATOM     16  N   UNL     1      45.863   3.881   7.355  0.00  0.00    +0.000 NA
ATOM     17  H   UNL     1      44.262   4.393   8.921  0.00  0.00    +0.000 HD
ENDBRANCH   9  10
ENDBRANCH   8   9
ENDBRANCH   5   8
ENDBRANCH   1   2
BRANCH   1  20
ATOM     18  C   UNL     1      49.106   6.368  16.236  0.00  0.00    +0.000 C 
ATOM     19  O   UNL     1      50.243   6.358  15.781  0.00  0.00    +0.000 OA
ATOM     20  N   UNL     1      47.996   6.453  15.417  0.00  0.00    +0.000 N 
ATOM     21  H   UNL     1      47.070   6.362  15.809  0.00  0.00    +0.000 HD
BRANCH  18  25
ATOM     22  C   UNL     1      48.627   4.552  20.856  0.00  0.00    +0.000 C 
ATOM     23  N   UNL     1      48.606   5.463  19.734  0.00  0.00    +0.000 N 
ATOM     24  C   UNL     1      49.034   5.181  18.466  0.00  0.00    +0.000 A 
ATOM     25  C   UNL     1      48.827   6.303  17.668  0.00  0.00    +0.000 A 
ATOM     26  C   UNL     1      48.250   7.313  18.524  0.00  0.00    +0.000 A 
ATOM     27  C   UNL     1      47.805   8.632  18.462  0.00  0.00    +0.000 A 
ATOM     28 CL   UNL     1      47.922   9.543  17.039  0.00  0.00    +0.000 Cl
ATOM     29  N   UNL     1      47.319   9.280  19.536  0.00  0.00    +0.000 NA
ATOM     30  C   UNL     1      47.270   8.597  20.686  0.00  0.00    +0.000 A 
ATOM     31  N   UNL     1      47.657   7.333  20.903  0.00  0.00    +0.000 NA
ATOM     32  C   UNL     1      48.140   6.744  19.792  0.00  0.00    +0.000 A 
ENDBRANCH  18  25
ENDBRANCH   1  20
TORSDOF 6
ENDMDL
MODEL 3
REMARK VINA RESULT:    -7.492      1.763      2.248
REMARK INTER + INTRA:         -11.443
REMARK INTER:                 -10.612
REMARK INTRA:                  -0.831
REMARK UNBOUND:                -1.323
REMARK  Name = 
REMARK  7 active torsions:
REMARK  status: ('A' for Active; 'I' for Inactive)
REMARK    1  A    between atoms: C_1  and  N_2
REMARK    2  A    between atoms: C_4  and  C_5
REMARK    3  A    between atoms: N_7  and  C_8
REMARK    4  A    between atoms: C_8  and  C_9
REMARK    5  A    between atoms: C_12  and  C_13
REMARK    6  A    between atoms: C_13  and  C_14
REMARK    7  A    between atoms: C_14  and  N_15
REMARK                            x       y       z     vdW  Elec       q    Type
REMARK                         _______ _______ _______ _____ _____    ______ ____
ROOT
ATOM      1  C   UNL     1      48.338   6.553  13.917  0.00  0.00    +0.000 C 
ENDROOT
BRANCH   1   2
ATOM      2  C   UNL     1      47.176   5.880  13.252  0.00  0.00    +0.000 A 
ATOM      3  C   UNL     1      46.655   6.362  12.054  0.00  0.00    +0.000 A 
ATOM      4  C   UNL     1      45.550   5.739  11.476  0.00  0.00    +0.000 A 
ATOM      5  C   UNL     1      44.986   4.627  12.097  0.00  0.00    +0.000 A 
ATOM      6  N   UNL     1      45.491   4.138  13.258  0.00  0.00    +0.000 NA
ATOM      7  C   UNL     1      46.560   4.767  13.805  0.00  0.00    +0.000 A 
BRANCH   5   8
ATOM      8  C   UNL     1      43.789   3.883  11.545  0.00  0.00    +0.000 C 
BRANCH   8   9
ATOM      9  C   UNL     1      43.942   3.365  10.113  0.00  0.00    +0.000 C 
BRANCH   9  10
ATOM     10  N   UNL     1      44.981   2.350  10.026  0.00  0.00    +0.000 N 
ATOM     11  C   UNL     1      45.696   2.391   8.833  0.00  0.00    +0.000 A 
ATOM     12  N   UNL     1      45.867   3.555   8.185  0.00  0.00    +0.000 NA
ATOM     13  C   UNL     1      46.577   3.523   7.042  0.00  0.00    +0.000 A 
ATOM     14  C   UNL     1      47.118   2.376   6.521  0.00  0.00    +0.000 A 
ATOM     15  C   UNL     1      46.879   1.239   7.249  0.00  0.00    +0.000 A 
ATOM     16  N   UNL     1      46.170   1.219   8.395  0.00  0.00    +0.000 NA
ATOM     17  H   UNL     1      44.683   1.388  10.139  0.00  0.00    +0.000 HD
ENDBRANCH   9  10
ENDBRANCH   8   9
ENDBRANCH   5   8
ENDBRANCH   1   2
BRANCH   1  20
ATOM     18  C   UNL     1      48.928   6.517  16.282  0.00  0.00    +0.000 C 
ATOM     19  O   UNL     1      49.949   5.890  16.033  0.00  0.00    +0.000 OA
ATOM     20  N   UNL     1      48.065   6.927  15.284  0.00  0.00    +0.000 N 
ATOM     21  H   UNL     1      47.183   7.358  15.523  0.00  0.00    +0.000 HD
BRANCH  18  25
ATOM     22  C   UNL     1      47.573   9.318  20.180  0.00  0.00    +0.000 C 
ATOM     23  N   UNL     1      47.948   8.173  19.382  0.00  0.00    +0.000 N 
ATOM     24  C   UNL     1      48.182   8.179  18.034  0.00  0.00    +0.000 A 
ATOM     25  C   UNL     1      48.544   6.894  17.640  0.00  0.00    +0.000 A 
ATOM     26  C   UNL     1      48.513   6.077  18.831  0.00  0.00    +0.000 A 
ATOM     27  C   UNL     1      48.726   4.756  19.221  0.00  0.00    +0.000 A 
ATOM     28 CL   UNL     1      49.115   3.550  18.096  0.00  0.00    +0.000 Cl
ATOM     29  N   UNL     1      48.573   4.347  20.493  0.00  0.00    +0.000 NA
ATOM     30  C   UNL     1      48.210   5.272  21.389  0.00  0.00    +0.000 A 
ATOM     31  N   UNL     1      47.971   6.571  21.170  0.00  0.00    +0.000 NA
ATOM     32  C   UNL     1      48.133   6.915  19.878  0.00  0.00    +0.000 A 
ENDBRANCH  18  25
ENDBRANCH   1  20
TORSDOF 6
ENDMDL
MODEL 4
REMARK VINA RESULT:    -7.095      3.774      5.602
REMARK INTER + INTRA:         -10.907
REMARK INTER:                 -10.117
REMARK INTRA:                  -0.790
REMARK UNBOUND:                -1.323
REMARK  Name = 
REMARK  7 active torsions:
REMARK  status: ('A' for Active; 'I' for Inactive)
REMARK    1  A    between atoms: C_1  and  N_2
REMARK    2  A    between atoms: C_4  and  C_5
REMARK    3  A    between atoms: N_7  and  C_8
REMARK    4  A    between atoms: C_8  and  C_9
REMARK    5  A    between atoms: C_12  and  C_13
REMARK    6  A    between atoms: C_13  and  C_14
REMARK    7  A    between atoms: C_14  and  N_15
REMARK                            x       y       z     vdW  Elec       q    Type
REMARK                         _______ _______ _______ _____ _____    ______ ____
ROOT
ATOM      1  C   UNL     1      43.721   5.223  10.757  0.00  0.00    +0.000 C 
ENDROOT
BRANCH   1   2
ATOM      2  C   UNL     1      44.443   4.232   9.897  0.00  0.00    +0.000 A 
ATOM      3  C   UNL     1      44.196   2.866  10.009  0.00  0.00    +0.000 A 
ATOM      4  C   UNL     1      44.909   1.963   9.223  0.00  0.00    +0.000 A 
ATOM      5  C   UNL     1      45.855   2.439   8.318  0.00  0.00    +0.000 A 
ATOM      6  N   UNL     1      46.098   3.768   8.188  0.00  0.00    +0.000 NA
ATOM      7  C   UNL     1      45.398   4.625   8.970  0.00  0.00    +0.000 A 
BRANCH   5   8
ATOM      8  C   UNL     1      46.676   1.537   7.421  0.00  0.00    +0.000 C 
BRANCH   8   9
ATOM      9  C   UNL     1      47.128   2.163   6.099  0.00  0.00    +0.000 C 
BRANCH   9  10
ATOM     10  N   UNL     1      47.873   1.211   5.291  0.00  0.00    +0.000 N 
ATOM     11  C   UNL     1      47.131   0.674   4.244  0.00  0.00    +0.000 A 
ATOM     12  N   UNL     1      46.153   1.391   3.668  0.00  0.00    +0.000 NA
ATOM     13  C   UNL     1      45.481   0.813   2.655  0.00  0.00    +0.000 A 
ATOM     14  C   UNL     1      45.747  -0.453   2.198  0.00  0.00    +0.000 A 
ATOM     15  C   UNL     1      46.754  -1.109   2.858  0.00  0.00    +0.000 A 
ATOM     16  N   UNL     1      47.451  -0.574   3.881  0.00  0.00    +0.000 NA
ATOM     17  H   UNL     1      48.276   0.421   5.780  0.00  0.00    +0.000 HD
ENDBRANCH   9  10
ENDBRANCH   8   9
ENDBRANCH   5   8
ENDBRANCH   1   2
BRANCH   1  20
ATOM     18  C   UNL     1      44.871   6.919  12.079  0.00  0.00    +0.000 C 
ATOM     19  O   UNL     1      44.770   6.226  13.083  0.00  0.00    +0.000 OA
ATOM     20  N   UNL     1      44.404   6.491  10.851  0.00  0.00    +0.000 N 
ATOM     21  H   UNL     1      44.412   7.120  10.060  0.00  0.00    +0.000 HD
BRANCH  18  25
ATOM     22  C   UNL     1      45.447  11.857  11.684  0.00  0.00    +0.000 C 
ATOM     23  N   UNL     1      45.739  10.457  11.894  0.00  0.00    +0.000 N 
ATOM     24  C   UNL     1      44.828   9.437  11.873  0.00  0.00    +0.000 A 
ATOM     25  C   UNL     1      45.499   8.237  12.089  0.00  0.00    +0.000 A 
ATOM     26  C   UNL     1      46.894   8.573  12.258  0.00  0.00    +0.000 A 
ATOM     27  C   UNL     1      48.115   7.951  12.512  0.00  0.00    +0.000 A 
ATOM     28 CL   UNL     1      48.223   6.282  12.780  0.00  0.00    +0.000 Cl
ATOM     29  N   UNL     1      49.265   8.640  12.625  0.00  0.00    +0.000 NA
ATOM     30  C   UNL     1      49.194   9.968  12.474  0.00  0.00    +0.000 A 
ATOM     31  N   UNL     1      48.104  10.705  12.227  0.00  0.00    +0.000 NA
ATOM     32  C   UNL     1      46.987   9.959  12.134  0.00  0.00    +0.000 A 
ENDBRANCH  18  25
ENDBRANCH   1  20
TORSDOF 6
ENDMDL
MODEL 5
REMARK VINA RESULT:    -7.090      2.308      3.326
REMARK INTER + INTRA:         -10.900
REMARK INTER:                  -9.986
REMARK INTRA:                  -0.914
REMARK UNBOUND:                -1.323
REMARK  Name = 
REMARK  7 active torsions:
REMARK  status: ('A' for Active; 'I' for Inactive)
REMARK    1  A    between atoms: C_1  and  N_2
REMARK    2  A    between atoms: C_4  and  C_5
REMARK    3  A    between atoms: N_7  and  C_8
REMARK    4  A    between atoms: C_8  and  C_9
REMARK    5  A    between atoms: C_12  and  C_13
REMARK    6  A    between atoms: C_13  and  C_14
REMARK    7  A    between atoms: C_14  and  N_15
REMARK                            x       y       z     vdW  Elec       q    Type
REMARK                         _______ _______ _______ _____ _____    ______ ____
ROOT
ATOM      1  C   UNL     1      47.509   3.979  15.645  0.00  0.00    +0.000 C 
ENDROOT
BRANCH   1   2
ATOM      2  C   UNL     1      46.813   4.301  14.359  0.00  0.00    +0.000 A 
ATOM      3  C   UNL     1      46.382   3.291  13.501  0.00  0.00    +0.000 A 
ATOM      4  C   UNL     1      45.771   3.619  12.292  0.00  0.00    +0.000 A 
ATOM      5  C   UNL     1      45.582   4.959  11.959  0.00  0.00    +0.000 A 
ATOM      6  N   UNL     1      45.985   5.953  12.791  0.00  0.00    +0.000 NA
ATOM      7  C   UNL     1      46.585   5.609  13.956  0.00  0.00    +0.000 A 
BRANCH   5   8
ATOM      8  C   UNL     1      44.927   5.412  10.673  0.00  0.00    +0.000 C 
BRANCH   8   9
ATOM      9  C   UNL     1      44.094   4.350   9.951  0.00  0.00    +0.000 C 
BRANCH   9  10
ATOM     10  N   UNL     1      44.309   4.397   8.513  0.00  0.00    +0.000 N 
ATOM     11  C   UNL     1      45.241   3.467   8.062  0.00  0.00    +0.000 A 
ATOM     12  N   UNL     1      45.401   2.300   8.706  0.00  0.00    +0.000 NA
ATOM     13  C   UNL     1      46.314   1.444   8.211  0.00  0.00    +0.000 A 
ATOM     14  C   UNL     1      47.073   1.711   7.100  0.00  0.00    +0.000 A 
ATOM     15  C   UNL     1      46.846   2.932   6.520  0.00  0.00    +0.000 A 
ATOM     16  N   UNL     1      45.948   3.824   6.983  0.00  0.00    +0.000 NA
ATOM     17  H   UNL     1      44.597   5.288   8.128  0.00  0.00    +0.000 HD
ENDBRANCH   9  10
ENDBRANCH   8   9
ENDBRANCH   5   8
ENDBRANCH   1   2
BRANCH   1  20
ATOM     18  C   UNL     1      48.478   5.628  17.157  0.00  0.00    +0.000 C 
ATOM     19  O   UNL     1      49.603   5.361  16.750  0.00  0.00    +0.000 OA
ATOM     20  N   UNL     1      47.355   5.010  16.643  0.00  0.00    +0.000 N 
ATOM     21  H   UNL     1      46.450   5.176  17.062  0.00  0.00    +0.000 HD
BRANCH  18  25
ATOM     22  C   UNL     1      47.458   7.600  21.623  0.00  0.00    +0.000 C 
ATOM     23  N   UNL     1      47.757   7.484  20.213  0.00  0.00    +0.000 N 
ATOM     24  C   UNL     1      48.016   6.320  19.543  0.00  0.00    +0.000 A 
ATOM     25  C   UNL     1      48.231   6.619  18.201  0.00  0.00    +0.000 A 
ATOM     26  C   UNL     1      48.100   8.052  18.075  0.00  0.00    +0.000 A 
ATOM     27  C   UNL     1      48.187   9.046  17.102  0.00  0.00    +0.000 A 
ATOM     28 CL   UNL     1      48.607   8.688  15.501  0.00  0.00    +0.000 Cl
ATOM     29  N   UNL     1      48.010  10.349  17.387  0.00  0.00    +0.000 NA
ATOM     30  C   UNL     1      47.733  10.661  18.658  0.00  0.00    +0.000 A 
ATOM     31  N   UNL     1      47.616   9.824  19.698  0.00  0.00    +0.000 NA
ATOM     32  C   UNL     1      47.813   8.538  19.349  0.00  0.00    +0.000 A 
ENDBRANCH  18  25
ENDBRANCH   1  20
TORSDOF 6
ENDMDL
MODEL 6
REMARK VINA RESULT:    -7.016      3.397      6.042
REMARK INTER + INTRA:         -10.800
REMARK INTER:                 -10.110
REMARK INTRA:                  -0.690
REMARK UNBOUND:                -1.323
REMARK  Name = 
REMARK  7 active torsions:
REMARK  status: ('A' for Active; 'I' for Inactive)
REMARK    1  A    between atoms: C_1  and  N_2
REMARK    2  A    between atoms: C_4  and  C_5
REMARK    3  A    between atoms: N_7  and  C_8
REMARK    4  A    between atoms: C_8  and  C_9
REMARK    5  A    between atoms: C_12  and  C_13
REMARK    6  A    between atoms: C_13  and  C_14
REMARK    7  A    between atoms: C_14  and  N_15
REMARK                            x       y       z     vdW  Elec       q    Type
REMARK                         _______ _______ _______ _____ _____    ______ ____
ROOT
ATOM      1  C   UNL     1      44.623   3.048   9.914  0.00  0.00    +0.000 C 
ENDROOT
BRANCH   1   2
ATOM      2  C   UNL     1      45.333   2.614   8.668  0.00  0.00    +0.000 A 
ATOM      3  C   UNL     1      45.915   1.352   8.573  0.00  0.00    +0.000 A 
ATOM      4  C   UNL     1      46.601   0.988   7.416  0.00  0.00    +0.000 A 
ATOM      5  C   UNL     1      46.687   1.888   6.357  0.00  0.00    +0.000 A 
ATOM      6  N   UNL     1      46.114   3.117   6.429  0.00  0.00    +0.000 NA
ATOM      7  C   UNL     1      45.460   3.450   7.568  0.00  0.00    +0.000 A 
BRANCH   5   8
ATOM      8  C   UNL     1      47.408   1.583   5.061  0.00  0.00    +0.000 C 
BRANCH   8   9
ATOM      9  C   UNL     1      46.538   0.988   3.951  0.00  0.00    +0.000 C 
BRANCH   9  10
ATOM     10  N   UNL     1      47.352   0.435   2.880  0.00  0.00    +0.000 N 
ATOM     11  C   UNL     1      47.326  -0.956   2.827  0.00  0.00    +0.000 A 
ATOM     12  N   UNL     1      46.237  -1.629   3.232  0.00  0.00    +0.000 NA
ATOM     13  C   UNL     1      46.277  -2.972   3.145  0.00  0.00    +0.000 A 
ATOM     14  C   UNL     1      47.362  -3.665   2.674  0.00  0.00    +0.000 A 
ATOM     15  C   UNL     1      48.429  -2.890   2.298  0.00  0.00    +0.000 A 
ATOM     16  N   UNL     1      48.438  -1.544   2.372  0.00  0.00    +0.000 NA
ATOM     17  H   UNL     1      48.331   0.695   2.877  0.00  0.00    +0.000 HD
ENDBRANCH   9  10
ENDBRANCH   8   9
ENDBRANCH   5   8
ENDBRANCH   1   2
BRANCH   1  20
ATOM     18  C   UNL     1      44.445   5.018  11.338  0.00  0.00    +0.000 C 
ATOM     19  O   UNL     1      43.280   4.743  11.598  0.00  0.00    +0.000 OA
ATOM     20  N   UNL     1      45.218   4.212  10.525  0.00  0.00    +0.000 N 
ATOM     21  H   UNL     1      46.143   4.510  10.249  0.00  0.00    +0.000 HD
BRANCH  18  25
ATOM     22  C   UNL     1      45.677   9.797  12.058  0.00  0.00    +0.000 C 
ATOM     23  N   UNL     1      45.661   8.356  12.168  0.00  0.00    +0.000 N 
ATOM     24  C   UNL     1      44.791   7.514  11.531  0.00  0.00    +0.000 A 
ATOM     25  C   UNL     1      45.114   6.203  11.869  0.00  0.00    +0.000 A 
ATOM     26  C   UNL     1      46.241   6.278  12.771  0.00  0.00    +0.000 A 
ATOM     27  C   UNL     1      47.071   5.436  13.507  0.00  0.00    +0.000 A 
ATOM     28 CL   UNL     1      46.839   3.758  13.531  0.00  0.00    +0.000 Cl
ATOM     29  N   UNL     1      48.058   5.905  14.292  0.00  0.00    +0.000 NA
ATOM     30  C   UNL     1      48.223   7.232  14.333  0.00  0.00    +0.000 A 
ATOM     31  N   UNL     1      47.511   8.164  13.686  0.00  0.00    +0.000 NA
ATOM     32  C   UNL     1      46.535   7.632  12.926  0.00  0.00    +0.000 A 
ENDBRANCH  18  25
ENDBRANCH   1  20
TORSDOF 6
ENDMDL
MODEL 7
REMARK VINA RESULT:    -6.867      2.195      2.517
REMARK INTER + INTRA:         -10.599
REMARK INTER:                  -9.831
REMARK INTRA:                  -0.768
REMARK UNBOUND:                -1.323
REMARK  Name = 
REMARK  7 active torsions:
REMARK  status: ('A' for Active; 'I' for Inactive)
REMARK    1  A    between atoms: C_1  and  N_2
REMARK    2  A    between atoms: C_4  and  C_5
REMARK    3  A    between atoms: N_7  and  C_8
REMARK    4  A    between atoms: C_8  and  C_9
REMARK    5  A    between atoms: C_12  and  C_13
REMARK    6  A    between atoms: C_13  and  C_14
REMARK    7  A    between atoms: C_14  and  N_15
REMARK                            x       y       z     vdW  Elec       q    Type
REMARK                         _______ _______ _______ _____ _____    ______ ____
ROOT
ATOM      1  C   UNL     1      47.709   8.270  13.574  0.00  0.00    +0.000 C 
ENDROOT
BRANCH   1   2
ATOM      2  C   UNL     1      46.644   7.478  12.880  0.00  0.00    +0.000 A 
ATOM      3  C   UNL     1      46.899   6.196  12.398  0.00  0.00    +0.000 A 
ATOM      4  C   UNL     1      45.901   5.496  11.722  0.00  0.00    +0.000 A 
ATOM      5  C   UNL     1      44.649   6.082  11.549  0.00  0.00    +0.000 A 
ATOM      6  N   UNL     1      44.382   7.325  12.024  0.00  0.00    +0.000 NA
ATOM      7  C   UNL     1      45.371   7.988  12.670  0.00  0.00    +0.000 A 
BRANCH   5   8
ATOM      8  C   UNL     1      43.503   5.400  10.832  0.00  0.00    +0.000 C 
BRANCH   8   9
ATOM      9  C   UNL     1      43.866   4.108  10.096  0.00  0.00    +0.000 C 
BRANCH   9  10
ATOM     10  N   UNL     1      44.214   4.370   8.708  0.00  0.00    +0.000 N 
ATOM     11  C   UNL     1      45.209   3.529   8.219  0.00  0.00    +0.000 A 
ATOM     12  N   UNL     1      45.338   2.281   8.698  0.00  0.00    +0.000 NA
ATOM     13  C   UNL     1      46.316   1.519   8.173  0.00  0.00    +0.000 A 
ATOM     14  C   UNL     1      47.169   1.957   7.193  0.00  0.00    +0.000 A 
ATOM     15  C   UNL     1      46.966   3.248   6.779  0.00  0.00    +0.000 A 
ATOM     16  N   UNL     1      46.005   4.051   7.278  0.00  0.00    +0.000 NA
ATOM     17  H   UNL     1      44.514   5.313   8.488  0.00  0.00    +0.000 HD
ENDBRANCH   9  10
ENDBRANCH   8   9
ENDBRANCH   5   8
ENDBRANCH   1   2
BRANCH   1  20
ATOM     18  C   UNL     1      48.388   9.053  15.781  0.00  0.00    +0.000 C 
ATOM     19  O   UNL     1      49.491   9.362  15.349  0.00  0.00    +0.000 OA
ATOM     20  N   UNL     1      47.408   8.525  14.962  0.00  0.00    +0.000 N 
ATOM     21  H   UNL     1      46.543   8.190  15.361  0.00  0.00    +0.000 HD
BRANCH  18  25
ATOM     22  C   UNL     1      47.177  11.259  20.087  0.00  0.00    +0.000 C 
ATOM     23  N   UNL     1      47.483  10.238  19.110  0.00  0.00    +0.000 N 
ATOM     24  C   UNL     1      47.735  10.451  17.782  0.00  0.00    +0.000 A 
ATOM     25  C   UNL     1      48.012   9.226  17.182  0.00  0.00    +0.000 A 
ATOM     26  C   UNL     1      47.906   8.227  18.220  0.00  0.00    +0.000 A 
ATOM     27  C   UNL     1      48.020   6.849  18.385  0.00  0.00    +0.000 A 
ATOM     28 CL   UNL     1      48.339   5.821  17.077  0.00  0.00    +0.000 Cl
ATOM     29  N   UNL     1      47.820   6.246  19.571  0.00  0.00    +0.000 NA
ATOM     30  C   UNL     1      47.510   7.033  20.608  0.00  0.00    +0.000 A 
ATOM     31  N   UNL     1      47.366   8.365  20.607  0.00  0.00    +0.000 NA
ATOM     32  C   UNL     1      47.571   8.906  19.391  0.00  0.00    +0.000 A 
ENDBRANCH  18  25
ENDBRANCH   1  20
TORSDOF 6
ENDMDL
MODEL 8
REMARK VINA RESULT:    -6.864      3.458      5.078
REMARK INTER + INTRA:         -10.594
REMARK INTER:                 -10.056
REMARK INTRA:                  -0.538
REMARK UNBOUND:                -1.323
REMARK  Name = 
REMARK  7 active torsions:
REMARK  status: ('A' for Active; 'I' for Inactive)
REMARK    1  A    between atoms: C_1  and  N_2
REMARK    2  A    between atoms: C_4  and  C_5
REMARK    3  A    between atoms: N_7  and  C_8
REMARK    4  A    between atoms: C_8  and  C_9
REMARK    5  A    between atoms: C_12  and  C_13
REMARK    6  A    between atoms: C_13  and  C_14
REMARK    7  A    between atoms: C_14  and  N_15
REMARK                            x       y       z     vdW  Elec       q    Type
REMARK                         _______ _______ _______ _____ _____    ______ ____
ROOT
ATOM      1  C   UNL     1      47.768   3.394  17.121  0.00  0.00    +0.000 C 
ENDROOT
BRANCH   1   2
ATOM      2  C   UNL     1      47.610   4.186  15.860  0.00  0.00    +0.000 A 
ATOM      3  C   UNL     1      48.109   5.482  15.757  0.00  0.00    +0.000 A 
ATOM      4  C   UNL     1      47.916   6.212  14.585  0.00  0.00    +0.000 A 
ATOM      5  C   UNL     1      47.235   5.628  13.518  0.00  0.00    +0.000 A 
ATOM      6  N   UNL     1      46.753   4.362  13.599  0.00  0.00    +0.000 NA
ATOM      7  C   UNL     1      46.947   3.677  14.752  0.00  0.00    +0.000 A 
BRANCH   5   8
ATOM      8  C   UNL     1      46.978   6.339  12.207  0.00  0.00    +0.000 C 
BRANCH   8   9
ATOM      9  C   UNL     1      45.513   6.395  11.767  0.00  0.00    +0.000 C 
BRANCH   9  10
ATOM     10  N   UNL     1      45.389   6.286  10.322  0.00  0.00    +0.000 N 
ATOM     11  C   UNL     1      45.177   4.983   9.882  0.00  0.00    +0.000 A 
ATOM     12  N   UNL     1      44.527   4.102  10.660  0.00  0.00    +0.000 NA
ATOM     13  C   UNL     1      44.349   2.862  10.168  0.00  0.00    +0.000 A 
ATOM     14  C   UNL     1      44.798   2.468   8.933  0.00  0.00    +0.000 A 
ATOM     15  C   UNL     1      45.460   3.435   8.220  0.00  0.00    +0.000 A 
ATOM     16  N   UNL     1      45.668   4.687   8.673  0.00  0.00    +0.000 NA
ATOM     17  H   UNL     1      46.163   6.642   9.775  0.00  0.00    +0.000 HD
ENDBRANCH   9  10
ENDBRANCH   8   9
ENDBRANCH   5   8
ENDBRANCH   1   2
BRANCH   1  20
ATOM     18  C   UNL     1      49.918   2.273  16.867  0.00  0.00    +0.000 C 
ATOM     19  O   UNL     1      49.478   1.609  15.936  0.00  0.00    +0.000 OA
ATOM     20  N   UNL     1      49.147   3.221  17.510  0.00  0.00    +0.000 N 
ATOM     21  H   UNL     1      49.500   3.686  18.335  0.00  0.00    +0.000 HD
BRANCH  18  25
ATOM     22  C   UNL     1      54.114   0.166  18.548  0.00  0.00    +0.000 C 
ATOM     23  N   UNL     1      53.155   1.164  18.129  0.00  0.00    +0.000 N 
ATOM     24  C   UNL     1      51.910   0.914  17.620  0.00  0.00    +0.000 A 
ATOM     25  C   UNL     1      51.284   2.129  17.363  0.00  0.00    +0.000 A 
ATOM     26  C   UNL     1      52.224   3.161  17.736  0.00  0.00    +0.000 A 
ATOM     27  C   UNL     1      52.325   4.551  17.755  0.00  0.00    +0.000 A 
ATOM     28 CL   UNL     1      51.085   5.541  17.161  0.00  0.00    +0.000 Cl
ATOM     29  N   UNL     1      53.432   5.186  18.182  0.00  0.00    +0.000 NA
ATOM     30  C   UNL     1      54.447   4.423  18.602  0.00  0.00    +0.000 A 
ATOM     31  N   UNL     1      54.499   3.085  18.645  0.00  0.00    +0.000 NA
ATOM     32  C   UNL     1      53.366   2.510  18.198  0.00  0.00    +0.000 A 
ENDBRANCH  18  25
ENDBRANCH   1  20
TORSDOF 6
ENDMDL
MODEL 9
REMARK VINA RESULT:    -6.658      2.775      3.594
REMARK INTER + INTRA:         -10.317
REMARK INTER:                  -9.235
REMARK INTRA:                  -1.082
REMARK UNBOUND:                -1.323
REMARK  Name = 
REMARK  7 active torsions:
REMARK  status: ('A' for Active; 'I' for Inactive)
REMARK    1  A    between atoms: C_1  and  N_2
REMARK    2  A    between atoms: C_4  and  C_5
REMARK    3  A    between atoms: N_7  and  C_8
REMARK    4  A    between atoms: C_8  and  C_9
REMARK    5  A    between atoms: C_12  and  C_13
REMARK    6  A    between atoms: C_13  and  C_14
REMARK    7  A    between atoms: C_14  and  N_15
REMARK                            x       y       z     vdW  Elec       q    Type
REMARK                         _______ _______ _______ _____ _____    ______ ____
ROOT
ATOM      1  C   UNL     1      47.887   7.484  13.569  0.00  0.00    +0.000 C 
ENDROOT
BRANCH   1   2
ATOM      2  C   UNL     1      46.725   6.569  13.332  0.00  0.00    +0.000 A 
ATOM      3  C   UNL     1      45.535   7.043  12.786  0.00  0.00    +0.000 A 
ATOM      4  C   UNL     1      44.456   6.179  12.611  0.00  0.00    +0.000 A 
ATOM      5  C   UNL     1      44.585   4.839  12.972  0.00  0.00    +0.000 A 
ATOM      6  N   UNL     1      45.742   4.360  13.494  0.00  0.00    +0.000 NA
ATOM      7  C   UNL     1      46.774   5.222  13.663  0.00  0.00    +0.000 A 
BRANCH   5   8
ATOM      8  C   UNL     1      43.472   3.825  12.818  0.00  0.00    +0.000 C 
BRANCH   8   9
ATOM      9  C   UNL     1      43.292   3.258  11.408  0.00  0.00    +0.000 C 
BRANCH   9  10
ATOM     10  N   UNL     1      44.424   2.430  11.023  0.00  0.00    +0.000 N 
ATOM     11  C   UNL     1      44.999   2.806   9.813  0.00  0.00    +0.000 A 
ATOM     12  N   UNL     1      44.966   4.088   9.416  0.00  0.00    +0.000 NA
ATOM     13  C   UNL     1      45.549   4.383   8.239  0.00  0.00    +0.000 A 
ATOM     14  C   UNL     1      46.159   3.447   7.444  0.00  0.00    +0.000 A 
ATOM     15  C   UNL     1      46.130   2.165   7.929  0.00  0.00    +0.000 A 
ATOM     16  N   UNL     1      45.553   1.820   9.098  0.00  0.00    +0.000 NA
ATOM     17  H   UNL     1      44.252   1.434  10.951  0.00  0.00    +0.000 HD
ENDBRANCH   9  10
ENDBRANCH   8   9
ENDBRANCH   5   8
ENDBRANCH   1   2
BRANCH   1  20
ATOM     18  C   UNL     1      49.314   7.269  15.534  0.00  0.00    +0.000 C 
ATOM     19  O   UNL     1      48.677   8.142  16.110  0.00  0.00    +0.000 OA
ATOM     20  N   UNL     1      48.977   6.843  14.264  0.00  0.00    +0.000 N 
ATOM     21  H   UNL     1      49.575   6.192  13.774  0.00  0.00    +0.000 HD
BRANCH  18  25
ATOM     22  C   UNL     1      51.993   4.169  18.378  0.00  0.00    +0.000 C 
ATOM     23  N   UNL     1      51.649   5.208  17.434  0.00  0.00    +0.000 N 
ATOM     24  C   UNL     1      50.383   5.535  17.029  0.00  0.00    +0.000 A 
ATOM     25  C   UNL     1      50.464   6.601  16.138  0.00  0.00    +0.000 A 
ATOM     26  C   UNL     1      51.867   6.917  16.003  0.00  0.00    +0.000 A 
ATOM     27  C   UNL     1      52.697   7.801  15.318  0.00  0.00    +0.000 A 
ATOM     28 CL   UNL     1      52.078   8.920  14.206  0.00  0.00    +0.000 Cl
ATOM     29  N   UNL     1      54.036   7.777  15.444  0.00  0.00    +0.000 NA
ATOM     30  C   UNL     1      54.552   6.863  16.273  0.00  0.00    +0.000 A 
ATOM     31  N   UNL     1      53.889   5.952  16.998  0.00  0.00    +0.000 NA
ATOM     32  C   UNL     1      52.556   6.023  16.821  0.00  0.00    +0.000 A 
ENDBRANCH  18  25
ENDBRANCH   1  20
TORSDOF 6
ENDMDL
