MODEL 1
REMARK VINA RESULT:    -8.128      0.000      0.000
REMARK INTER + INTRA:         -12.541
REMARK INTER:                 -11.455
REMARK INTRA:                  -1.086
REMARK UNBOUND:                -1.086
REMARK  Name = 
REMARK  8 active torsions:
REMARK  status: ('A' for Active; 'I' for Inactive)
REMARK    1  A    between atoms: C_1  and  C_2
REMARK    2  A    between atoms: C_2  and  N_3
REMARK    3  A    between atoms: C_2  and  C_25
REMARK    4  A    between atoms: N_3  and  C_4
REMARK    5  A    between atoms: C_4  and  C_5
REMARK    6  A    between atoms: C_8  and  C_9
REMARK    7  A    between atoms: C_9  and  N_10
REMARK    8  A    between atoms: C_11  and  C_13
REMARK                            x       y       z     vdW  Elec       q    Type
REMARK                         _______ _______ _______ _____ _____    ______ ____
ROOT
ATOM      1  C   UNL     1      44.757   6.293  11.407  0.00  0.00    +0.000 A 
ATOM      2  C   UNL     1      46.046   5.798  11.642  0.00  0.00    +0.000 A 
ATOM      3  C   UNL     1      46.986   6.560  12.340  0.00  0.00    +0.000 A 
ATOM      4  C   UNL     1      46.656   7.837  12.809  0.00  0.00    +0.000 A 
ATOM      5  C   UNL     1      45.394   8.363  12.507  0.00  0.00    +0.000 A 
ATOM      6  C   UNL     1      44.448   7.595  11.825  0.00  0.00    +0.000 A 
ENDROOT
BRANCH   1   7
ATOM      7  C   UNL     1      43.716   5.432  10.731  0.00  0.00    +0.000 C 
BRANCH   7   8
ATOM      8  N   UNL     1      44.245   4.850   9.495  0.00  0.00    +0.000 NA
ATOM      9  H   UNL     1      43.711   5.209   8.706  0.00  0.00    +0.000 HD
BRANCH   8  11
ATOM     10  C   UNL     1      44.433   2.760  10.843  0.00  0.00    +0.000 C 
ATOM     11  C   UNL     1      44.181   3.388   9.464  0.00  0.00    +0.000 C 
BRANCH  11  12
ATOM     12  C   UNL     1      45.224   2.823   8.505  0.00  0.00    +0.000 A 
ATOM     13  C   UNL     1      46.061   3.683   7.770  0.00  0.00    +0.000 A 
ATOM     14  C   UNL     1      47.149   3.184   7.054  0.00  0.00    +0.000 A 
ATOM     15  C   UNL     1      47.409   1.816   7.052  0.00  0.00    +0.000 A 
ATOM     16  C   UNL     1      46.557   0.950   7.737  0.00  0.00    +0.000 A 
ATOM     17 CL   UNL     1      46.903  -0.736   7.765  0.00  0.00    +0.000 Cl
ATOM     18  C   UNL     1      45.459   1.442   8.444  0.00  0.00    +0.000 A 
ENDBRANCH  11  12
ENDBRANCH   8  11
ENDBRANCH   7   8
ENDBRANCH   1   7
BRANCH   4  19
ATOM     19  C   UNL     1      47.638   8.634  13.627  0.00  0.00    +0.000 C 
BRANCH  19  20
ATOM     20  N   UNL     1      47.849   8.047  14.923  0.00  0.00    +0.000 N 
ATOM     21  C   UNL     1      48.893   7.189  15.151  0.00  0.00    +0.000 C 
ATOM     22  O   UNL     1      49.715   6.908  14.289  0.00  0.00    +0.000 OA
ATOM     23  H   UNL     1      47.062   8.060  15.564  0.00  0.00    +0.000 HD
BRANCH  21  24
ATOM     24  C   UNL     1      49.008   6.672  16.524  0.00  0.00    +0.000 A 
ATOM     25  C   UNL     1      49.538   7.478  17.522  0.00  0.00    +0.000 A 
ATOM     26  S   UNL     1      49.558   6.730  19.057  0.00  0.00    +0.000 S 
ATOM     27  C   UNL     1      48.902   5.293  18.425  0.00  0.00    +0.000 A 
ATOM     28  N   UNL     1      48.684   4.211  19.226  0.00  0.00    +0.000 NA
ATOM     29  C   UNL     1      48.203   3.183  18.612  0.00  0.00    +0.000 A 
ATOM     30  N   UNL     1      47.916   3.137  17.272  0.00  0.00    +0.000 N 
ATOM     31  C   UNL     1      48.091   4.211  16.434  0.00  0.00    +0.000 A 
ATOM     32  O   UNL     1      47.773   4.154  15.252  0.00  0.00    +0.000 OA
ATOM     33  C   UNL     1      48.648   5.389  17.072  0.00  0.00    +0.000 A 
ATOM     34  H   UNL     1      47.524   2.308  16.853  0.00  0.00    +0.000 HD
ENDBRANCH  21  24
ENDBRANCH  19  20
ENDBRANCH   4  19
TORSDOF 7
ENDMDL
MODEL 2
REMARK VINA RESULT:    -8.005      2.695      3.246
REMARK INTER + INTRA:         -12.367
REMARK INTER:                 -11.238
REMARK INTRA:                  -1.129
REMARK UNBOUND:                -1.086
REMARK  Name = 
REMARK  8 active torsions:
REMARK  status: ('A' for Active; 'I' for Inactive)
REMARK    1  A    between atoms: C_1  and  C_2
REMARK    2  A    between atoms: C_2  and  N_3
REMARK    3  A    between atoms: C_2  and  C_25
REMARK    4  A    between atoms: N_3  and  C_4
REMARK    5  A    between atoms: C_4  and  C_5
REMARK    6  A    between atoms: C_8  and  C_9
REMARK    7  A    between atoms: C_9  and  N_10
REMARK    8  A    between atoms: C_11  and  C_13
REMARK                            x       y       z     vdW  Elec       q    Type
REMARK                         _______ _______ _______ _____ _____    ______ ____
ROOT
ATOM      1  C   UNL     1      46.567   4.624  13.344  0.00  0.00    +0.000 A 
ATOM      2  C   UNL     1      47.227   5.758  12.857  0.00  0.00    +0.000 A 
ATOM      3  C   UNL     1      48.066   6.508  13.685  0.00  0.00    +0.000 A 
ATOM      4  C   UNL     1      48.252   6.140  15.023  0.00  0.00    +0.000 A 
ATOM      5  C   UNL     1      47.532   5.051  15.532  0.00  0.00    +0.000 A 
ATOM      6  C   UNL     1      46.708   4.292  14.698  0.00  0.00    +0.000 A 
ENDROOT
BRANCH   1   7
ATOM      7  C   UNL     1      45.732   3.766  12.422  0.00  0.00    +0.000 C 
BRANCH   7   8
ATOM      8  N   UNL     1      44.862   4.596  11.585  0.00  0.00    +0.000 NA
ATOM      9  H   UNL     1      44.229   5.120  12.186  0.00  0.00    +0.000 HD
BRANCH   8  11
ATOM     10  C   UNL     1      43.532   2.514  11.240  0.00  0.00    +0.000 C 
ATOM     11  C   UNL     1      44.058   3.824  10.636  0.00  0.00    +0.000 C 
BRANCH  11  12
ATOM     12  C   UNL     1      44.880   3.464   9.402  0.00  0.00    +0.000 A 
ATOM     13  C   UNL     1      45.466   4.471   8.613  0.00  0.00    +0.000 A 
ATOM     14  C   UNL     1      46.384   4.153   7.613  0.00  0.00    +0.000 A 
ATOM     15  C   UNL     1      46.721   2.823   7.378  0.00  0.00    +0.000 A 
ATOM     16  C   UNL     1      46.110   1.814   8.121  0.00  0.00    +0.000 A 
ATOM     17 CL   UNL     1      46.557   0.172   7.857  0.00  0.00    +0.000 Cl
ATOM     18  C   UNL     1      45.180   2.124   9.115  0.00  0.00    +0.000 A 
ENDBRANCH  11  12
ENDBRANCH   8  11
ENDBRANCH   7   8
ENDBRANCH   1   7
BRANCH   4  19
ATOM     19  C   UNL     1      49.212   6.897  15.903  0.00  0.00    +0.000 C 
BRANCH  19  20
ATOM     20  N   UNL     1      50.260   6.047  16.399  0.00  0.00    +0.000 N 
ATOM     21  C   UNL     1      50.233   5.565  17.682  0.00  0.00    +0.000 C 
ATOM     22  O   UNL     1      49.310   5.795  18.453  0.00  0.00    +0.000 OA
ATOM     23  H   UNL     1      51.134   6.050  15.884  0.00  0.00    +0.000 HD
BRANCH  21  24
ATOM     24  C   UNL     1      51.355   4.690  18.061  0.00  0.00    +0.000 A 
ATOM     25  C   UNL     1      52.457   5.224  18.713  0.00  0.00    +0.000 A 
ATOM     26  S   UNL     1      53.640   4.060  19.109  0.00  0.00    +0.000 S 
ATOM     27  C   UNL     1      52.737   2.816  18.382  0.00  0.00    +0.000 A 
ATOM     28  N   UNL     1      53.207   1.536  18.347  0.00  0.00    +0.000 NA
ATOM     29  C   UNL     1      52.430   0.699  17.746  0.00  0.00    +0.000 A 
ATOM     30  N   UNL     1      51.222   1.021  17.181  0.00  0.00    +0.000 N 
ATOM     31  C   UNL     1      50.697   2.289  17.218  0.00  0.00    +0.000 A 
ATOM     32  O   UNL     1      49.589   2.533  16.751  0.00  0.00    +0.000 OA
ATOM     33  C   UNL     1      51.541   3.274  17.867  0.00  0.00    +0.000 A 
ATOM     34  H   UNL     1      50.651   0.318  16.740  0.00  0.00    +0.000 HD
ENDBRANCH  21  24
ENDBRANCH  19  20
ENDBRANCH   4  19
TORSDOF 7
ENDMDL
MODEL 3
REMARK VINA RESULT:    -7.909      1.587      2.060
REMARK INTER + INTRA:         -12.231
REMARK INTER:                 -11.134
REMARK INTRA:                  -1.097
REMARK UNBOUND:                -1.086
REMARK  Name = 
REMARK  8 active torsions:
REMARK  status: ('A' for Active; 'I' for Inactive)
REMARK    1  A    between atoms: C_1  and  C_2
REMARK    2  A    between atoms: C_2  and  N_3
REMARK    3  A    between atoms: C_2  and  C_25
REMARK    4  A    between atoms: N_3  and  C_4
REMARK    5  A    between atoms: C_4  and  C_5
REMARK    6  A    between atoms: C_8  and  C_9
REMARK    7  A    between atoms: C_9  and  N_10
REMARK    8  A    between atoms: C_11  and  C_13
REMARK                            x       y       z     vdW  Elec       q    Type
REMARK                         _______ _______ _______ _____ _____    ______ ____
ROOT
ATOM      1  C   UNL     1      45.245   5.843  12.611  0.00  0.00    +0.000 A 
ATOM      2  C   UNL     1      45.768   7.128  12.421  0.00  0.00    +0.000 A 
ATOM      3  C   UNL     1      46.976   7.502  13.016  0.00  0.00    +0.000 A 
ATOM      4  C   UNL     1      47.678   6.597  13.821  0.00  0.00    +0.000 A 
ATOM      5  C   UNL     1      47.117   5.339  14.074  0.00  0.00    +0.000 A 
ATOM      6  C   UNL     1      45.919   4.959  13.464  0.00  0.00    +0.000 A 
ENDROOT
BRANCH   1   7
ATOM      7  C   UNL     1      43.986   5.415  11.894  0.00  0.00    +0.000 C 
BRANCH   7   8
ATOM      8  N   UNL     1      44.240   5.224  10.464  0.00  0.00    +0.000 NA
ATOM      9  H   UNL     1      43.677   5.888   9.938  0.00  0.00    +0.000 HD
BRANCH   8  11
ATOM     10  C   UNL     1      43.958   2.833  11.116  0.00  0.00    +0.000 C 
ATOM     11  C   UNL     1      43.922   3.876   9.990  0.00  0.00    +0.000 C 
BRANCH  11  12
ATOM     12  C   UNL     1      44.916   3.432   8.922  0.00  0.00    +0.000 A 
ATOM     13  C   UNL     1      45.665   4.382   8.202  0.00  0.00    +0.000 A 
ATOM     14  C   UNL     1      46.719   3.988   7.377  0.00  0.00    +0.000 A 
ATOM     15  C   UNL     1      47.032   2.637   7.251  0.00  0.00    +0.000 A 
ATOM     16  C   UNL     1      46.265   1.684   7.921  0.00  0.00    +0.000 A 
ATOM     17 CL   UNL     1      46.678   0.018   7.794  0.00  0.00    +0.000 Cl
ATOM     18  C   UNL     1      45.201   2.072   8.736  0.00  0.00    +0.000 A 
ENDBRANCH  11  12
ENDBRANCH   8  11
ENDBRANCH   7   8
ENDBRANCH   1   7
BRANCH   4  19
ATOM     19  C   UNL     1      49.018   6.965  14.404  0.00  0.00    +0.000 C 
BRANCH  19  20
ATOM     20  N   UNL     1      48.942   7.158  15.827  0.00  0.00    +0.000 N 
ATOM     21  C   UNL     1      49.716   6.420  16.684  0.00  0.00    +0.000 C 
ATOM     22  O   UNL     1      50.532   5.597  16.292  0.00  0.00    +0.000 OA
ATOM     23  H   UNL     1      48.118   7.635  16.181  0.00  0.00    +0.000 HD
BRANCH  21  24
ATOM     24  C   UNL     1      49.557   6.728  18.115  0.00  0.00    +0.000 A 
ATOM     25  C   UNL     1      49.820   8.009  18.579  0.00  0.00    +0.000 A 
ATOM     26  S   UNL     1      49.545   8.193  20.254  0.00  0.00    +0.000 S 
ATOM     27  C   UNL     1      49.109   6.556  20.416  0.00  0.00    +0.000 A 
ATOM     28  N   UNL     1      48.776   6.037  21.633  0.00  0.00    +0.000 NA
ATOM     29  C   UNL     1      48.488   4.779  21.614  0.00  0.00    +0.000 A 
ATOM     30  N   UNL     1      48.499   3.992  20.491  0.00  0.00    +0.000 N 
ATOM     31  C   UNL     1      48.799   4.478  19.243  0.00  0.00    +0.000 A 
ATOM     32  O   UNL     1      48.746   3.759  18.250  0.00  0.00    +0.000 OA
ATOM     33  C   UNL     1      49.149   5.886  19.211  0.00  0.00    +0.000 A 
ATOM     34  H   UNL     1      48.247   3.017  20.538  0.00  0.00    +0.000 HD
ENDBRANCH  21  24
ENDBRANCH  19  20
ENDBRANCH   4  19
TORSDOF 7
ENDMDL
MODEL 4
REMARK VINA RESULT:    -7.867      1.965      2.660
REMARK INTER + INTRA:         -12.173
REMARK INTER:                 -10.996
REMARK INTRA:                  -1.176
REMARK UNBOUND:                -1.086
REMARK  Name = 
REMARK  8 active torsions:
REMARK  status: ('A' for Active; 'I' for Inactive)
REMARK    1  A    between atoms: C_1  and  C_2
REMARK    2  A    between atoms: C_2  and  N_3
REMARK    3  A    between atoms: C_2  and  C_25
REMARK    4  A    between atoms: N_3  and  C_4
REMARK    5  A    between atoms: C_4  and  C_5
REMARK    6  A    between atoms: C_8  and  C_9
REMARK    7  A    between atoms: C_9  and  N_10
REMARK    8  A    between atoms: C_11  and  C_13
REMARK                            x       y       z     vdW  Elec       q    Type
REMARK                         _______ _______ _______ _____ _____    ______ ____
ROOT
ATOM      1  C   UNL     1      45.221   5.792  12.011  0.00  0.00    +0.000 A 
ATOM      2  C   UNL     1      45.877   7.024  11.902  0.00  0.00    +0.000 A 
ATOM      3  C   UNL     1      46.964   7.329  12.724  0.00  0.00    +0.000 A 
ATOM      4  C   UNL     1      47.410   6.408  13.679  0.00  0.00    +0.000 A 
ATOM      5  C   UNL     1      46.707   5.207  13.841  0.00  0.00    +0.000 A 
ATOM      6  C   UNL     1      45.631   4.895  13.007  0.00  0.00    +0.000 A 
ENDROOT
BRANCH   1   7
ATOM      7  C   UNL     1      44.103   5.431  11.061  0.00  0.00    +0.000 C 
BRANCH   7   8
ATOM      8  N   UNL     1      44.639   5.022   9.760  0.00  0.00    +0.000 NA
ATOM      9  H   UNL     1      44.311   5.672   9.049  0.00  0.00    +0.000 HD
BRANCH   8  11
ATOM     10  C   UNL     1      44.071   2.731  10.567  0.00  0.00    +0.000 C 
ATOM     11  C   UNL     1      44.238   3.670   9.363  0.00  0.00    +0.000 C 
BRANCH  11  12
ATOM     12  C   UNL     1      45.280   3.050   8.438  0.00  0.00    +0.000 A 
ATOM     13  C   UNL     1      46.166   3.865   7.708  0.00  0.00    +0.000 A 
ATOM     14  C   UNL     1      47.249   3.313   7.025  0.00  0.00    +0.000 A 
ATOM     15  C   UNL     1      47.456   1.936   7.051  0.00  0.00    +0.000 A 
ATOM     16  C   UNL     1      46.556   1.115   7.729  0.00  0.00    +0.000 A 
ATOM     17 CL   UNL     1      46.835  -0.583   7.792  0.00  0.00    +0.000 Cl
ATOM     18  C   UNL     1      45.462   1.660   8.403  0.00  0.00    +0.000 A 
ENDBRANCH  11  12
ENDBRANCH   8  11
ENDBRANCH   7   8
ENDBRANCH   1   7
BRANCH   4  19
ATOM     19  C   UNL     1      48.628   6.697  14.517  0.00  0.00    +0.000 C 
BRANCH  19  20
ATOM     20  N   UNL     1      48.373   6.483  15.915  0.00  0.00    +0.000 N 
ATOM     21  C   UNL     1      49.371   6.083  16.765  0.00  0.00    +0.000 C 
ATOM     22  O   UNL     1      50.527   5.926  16.396  0.00  0.00    +0.000 OA
ATOM     23  H   UNL     1      47.402   6.362  16.190  0.00  0.00    +0.000 HD
BRANCH  21  24
ATOM     24  C   UNL     1      48.983   5.918  18.176  0.00  0.00    +0.000 A 
ATOM     25  C   UNL     1      49.171   4.696  18.805  0.00  0.00    +0.000 A 
ATOM     26  S   UNL     1      48.702   4.698  20.446  0.00  0.00    +0.000 S 
ATOM     27  C   UNL     1      48.192   6.319  20.353  0.00  0.00    +0.000 A 
ATOM     28  N   UNL     1      47.647   6.946  21.435  0.00  0.00    +0.000 NA
ATOM     29  C   UNL     1      47.285   8.165  21.217  0.00  0.00    +0.000 A 
ATOM     30  N   UNL     1      47.421   8.819  20.019  0.00  0.00    +0.000 N 
ATOM     31  C   UNL     1      47.990   8.237  18.913  0.00  0.00    +0.000 A 
ATOM     32  O   UNL     1      48.147   8.867  17.873  0.00  0.00    +0.000 OA
ATOM     33  C   UNL     1      48.398   6.857  19.100  0.00  0.00    +0.000 A 
ATOM     34  H   UNL     1      47.134   9.780  19.917  0.00  0.00    +0.000 HD
ENDBRANCH  21  24
ENDBRANCH  19  20
ENDBRANCH   4  19
TORSDOF 7
ENDMDL
MODEL 5
REMARK VINA RESULT:    -7.811      3.469      8.389
REMARK INTER + INTRA:         -12.093
REMARK INTER:                 -10.012
REMARK INTRA:                  -2.081
REMARK UNBOUND:                -1.086
REMARK  Name = 
REMARK  8 active torsions:
REMARK  status: ('A' for Active; 'I' for Inactive)
REMARK    1  A    between atoms: C_1  and  C_2
REMARK    2  A    between atoms: C_2  and  N_3
REMARK    3  A    between atoms: C_2  and  C_25
REMARK    4  A    between atoms: N_3  and  C_4
REMARK    5  A    between atoms: C_4  and  C_5
REMARK    6  A    between atoms: C_8  and  C_9
REMARK    7  A    between atoms: C_9  and  N_10
REMARK    8  A    between atoms: C_11  and  C_13
REMARK                            x       y       z     vdW  Elec       q    Type
REMARK                         _______ _______ _______ _____ _____    ______ ____
ROOT
ATOM      1  C   UNL     1      48.931   7.848  16.256  0.00  0.00    +0.000 A 
ATOM      2  C   UNL     1      48.283   8.956  15.698  0.00  0.00    +0.000 A 
ATOM      3  C   UNL     1      47.852   8.936  14.370  0.00  0.00    +0.000 A 
ATOM      4  C   UNL     1      48.071   7.808  13.571  0.00  0.00    +0.000 A 
ATOM      5  C   UNL     1      48.787   6.729  14.105  0.00  0.00    +0.000 A 
ATOM      6  C   UNL     1      49.202   6.742  15.439  0.00  0.00    +0.000 A 
ENDROOT
BRANCH   1   7
ATOM      7  C   UNL     1      49.315   7.839  17.717  0.00  0.00    +0.000 C 
BRANCH   7   8
ATOM      8  N   UNL     1      48.180   7.438  18.551  0.00  0.00    +0.000 NA
ATOM      9  H   UNL     1      47.930   8.212  19.164  0.00  0.00    +0.000 HD
BRANCH   8  11
ATOM     10  C   UNL     1      49.854   6.305  20.013  0.00  0.00    +0.000 C 
ATOM     11  C   UNL     1      48.453   6.265  19.384  0.00  0.00    +0.000 C 
BRANCH  11  12
ATOM     12  C   UNL     1      48.356   4.985  18.561  0.00  0.00    +0.000 A 
ATOM     13  C   UNL     1      47.197   4.700  17.814  0.00  0.00    +0.000 A 
ATOM     14  C   UNL     1      47.174   3.647  16.900  0.00  0.00    +0.000 A 
ATOM     15  C   UNL     1      48.307   2.856  16.727  0.00  0.00    +0.000 A 
ATOM     16  C   UNL     1      49.444   3.098  17.496  0.00  0.00    +0.000 A 
ATOM     17 CL   UNL     1      50.855   2.144  17.253  0.00  0.00    +0.000 Cl
ATOM     18  C   UNL     1      49.468   4.142  18.423  0.00  0.00    +0.000 A 
ENDBRANCH  11  12
ENDBRANCH   8  11
ENDBRANCH   7   8
ENDBRANCH   1   7
BRANCH   4  19
ATOM     19  C   UNL     1      47.543   7.748  12.161  0.00  0.00    +0.000 C 
BRANCH  19  20
ATOM     20  N   UNL     1      46.853   6.514  11.904  0.00  0.00    +0.000 N 
ATOM     21  C   UNL     1      45.486   6.441  11.963  0.00  0.00    +0.000 C 
ATOM     22  O   UNL     1      44.784   7.416  12.195  0.00  0.00    +0.000 OA
ATOM     23  H   UNL     1      47.403   5.662  11.960  0.00  0.00    +0.000 HD
BRANCH  21  24
ATOM     24  C   UNL     1      44.902   5.123  11.661  0.00  0.00    +0.000 A 
ATOM     25  C   UNL     1      44.195   4.441  12.640  0.00  0.00    +0.000 A 
ATOM     26  S   UNL     1      43.556   2.952  12.102  0.00  0.00    +0.000 S 
ATOM     27  C   UNL     1      44.244   3.154  10.559  0.00  0.00    +0.000 A 
ATOM     28  N   UNL     1      44.096   2.200   9.596  0.00  0.00    +0.000 NA
ATOM     29  C   UNL     1      44.686   2.473   8.481  0.00  0.00    +0.000 A 
ATOM     30  N   UNL     1      45.407   3.614   8.238  0.00  0.00    +0.000 N 
ATOM     31  C   UNL     1      45.557   4.613   9.168  0.00  0.00    +0.000 A 
ATOM     32  O   UNL     1      46.162   5.646   8.899  0.00  0.00    +0.000 OA
ATOM     33  C   UNL     1      44.927   4.347  10.447  0.00  0.00    +0.000 A 
ATOM     34  H   UNL     1      45.832   3.778   7.338  0.00  0.00    +0.000 HD
ENDBRANCH  21  24
ENDBRANCH  19  20
ENDBRANCH   4  19
TORSDOF 7
ENDMDL
MODEL 6
REMARK VINA RESULT:    -7.615      3.776      8.002
REMARK INTER + INTRA:         -11.818
REMARK INTER:                  -9.940
REMARK INTRA:                  -1.878
REMARK UNBOUND:                -1.086
REMARK  Name = 
REMARK  8 active torsions:
REMARK  status: ('A' for Active; 'I' for Inactive)
REMARK    1  A    between atoms: C_1  and  C_2
REMARK    2  A    between atoms: C_2  and  N_3
REMARK    3  A    between atoms: C_2  and  C_25
REMARK    4  A    between atoms: N_3  and  C_4
REMARK    5  A    between atoms: C_4  and  C_5
REMARK    6  A    between atoms: C_8  and  C_9
REMARK    7  A    between atoms: C_9  and  N_10
REMARK    8  A    between atoms: C_11  and  C_13
REMARK                            x       y       z     vdW  Elec       q    Type
REMARK                         _______ _______ _______ _____ _____    ______ ____
ROOT
ATOM      1  C   UNL     1      48.776   7.956  16.176  0.00  0.00    +0.000 A 
ATOM      2  C   UNL     1      48.576   9.199  15.564  0.00  0.00    +0.000 A 
ATOM      3  C   UNL     1      48.409   9.295  14.180  0.00  0.00    +0.000 A 
ATOM      4  C   UNL     1      48.449   8.145  13.381  0.00  0.00    +0.000 A 
ATOM      5  C   UNL     1      48.726   6.911  13.984  0.00  0.00    +0.000 A 
ATOM      6  C   UNL     1      48.874   6.815  15.370  0.00  0.00    +0.000 A 
ENDROOT
BRANCH   1   7
ATOM      7  C   UNL     1      48.865   7.848  17.681  0.00  0.00    +0.000 C 
BRANCH   7   8
ATOM      8  N   UNL     1      47.742   7.074  18.215  0.00  0.00    +0.000 NA
ATOM      9  H   UNL     1      47.125   7.699  18.728  0.00  0.00    +0.000 HD
BRANCH   8  11
ATOM     10  C   UNL     1      49.500   6.280  19.797  0.00  0.00    +0.000 C 
ATOM     11  C   UNL     1      48.153   5.995  19.115  0.00  0.00    +0.000 C 
BRANCH  11  12
ATOM     12  C   UNL     1      48.294   4.681  18.353  0.00  0.00    +0.000 A 
ATOM     13  C   UNL     1      47.255   4.221  17.523  0.00  0.00    +0.000 A 
ATOM     14  C   UNL     1      47.451   3.138  16.665  0.00  0.00    +0.000 A 
ATOM     15  C   UNL     1      48.684   2.492  16.635  0.00  0.00    +0.000 A 
ATOM     16  C   UNL     1      49.704   2.909  17.489  0.00  0.00    +0.000 A 
ATOM     17 CL   UNL     1      51.239   2.134  17.422  0.00  0.00    +0.000 Cl
ATOM     18  C   UNL     1      49.510   3.983  18.359  0.00  0.00    +0.000 A 
ENDBRANCH  11  12
ENDBRANCH   8  11
ENDBRANCH   7   8
ENDBRANCH   1   7
BRANCH   4  19
ATOM     19  C   UNL     1      48.196   8.229  11.899  0.00  0.00    +0.000 C 
BRANCH  19  20
ATOM     20  N   UNL     1      47.516   7.061  11.410  0.00  0.00    +0.000 N 
ATOM     21  C   UNL     1      46.150   7.025  11.312  0.00  0.00    +0.000 C 
ATOM     22  O   UNL     1      45.444   7.984  11.594  0.00  0.00    +0.000 OA
ATOM     23  H   UNL     1      48.041   6.191  11.412  0.00  0.00    +0.000 HD
BRANCH  21  24
ATOM     24  C   UNL     1      45.579   5.777  10.778  0.00  0.00    +0.000 A 
ATOM     25  C   UNL     1      45.743   5.461   9.437  0.00  0.00    +0.000 A 
ATOM     26  S   UNL     1      45.052   3.961   9.005  0.00  0.00    +0.000 S 
ATOM     27  C   UNL     1      44.474   3.711  10.585  0.00  0.00    +0.000 A 
ATOM     28  N   UNL     1      43.752   2.598  10.899  0.00  0.00    +0.000 NA
ATOM     29  C   UNL     1      43.358   2.547  12.127  0.00  0.00    +0.000 A 
ATOM     30  N   UNL     1      43.624   3.505  13.073  0.00  0.00    +0.000 N 
ATOM     31  C   UNL     1      44.371   4.626  12.809  0.00  0.00    +0.000 A 
ATOM     32  O   UNL     1      44.636   5.436  13.691  0.00  0.00    +0.000 OA
ATOM     33  C   UNL     1      44.823   4.740  11.435  0.00  0.00    +0.000 A 
ATOM     34  H   UNL     1      43.303   3.399  14.023  0.00  0.00    +0.000 HD
ENDBRANCH  21  24
ENDBRANCH  19  20
ENDBRANCH   4  19
TORSDOF 7
ENDMDL
MODEL 7
REMARK VINA RESULT:    -7.504      3.778      8.013
REMARK INTER + INTRA:         -11.660
REMARK INTER:                  -9.966
REMARK INTRA:                  -1.694
REMARK UNBOUND:                -1.086
REMARK  Name = 
REMARK  8 active torsions:
REMARK  status: ('A' for Active; 'I' for Inactive)
REMARK    1  A    between atoms: C_1  and  C_2
REMARK    2  A    between atoms: C_2  and  N_3
REMARK    3  A    between atoms: C_2  and  C_25
REMARK    4  A    between atoms: N_3  and  C_4
REMARK    5  A    between atoms: C_4  and  C_5
REMARK    6  A    between atoms: C_8  and  C_9
REMARK    7  A    between atoms: C_9  and  N_10
REMARK    8  A    between atoms: C_11  and  C_13
REMARK                            x       y       z     vdW  Elec       q    Type
REMARK                         _______ _______ _______ _____ _____    ______ ____
ROOT
ATOM      1  C   UNL     1      49.287   7.879  17.707  0.00  0.00    +0.000 A 
ATOM      2  C   UNL     1      48.459   8.700  16.933  0.00  0.00    +0.000 A 
ATOM      3  C   UNL     1      48.501   8.643  15.538  0.00  0.00    +0.000 A 
ATOM      4  C   UNL     1      49.381   7.768  14.891  0.00  0.00    +0.000 A 
ATOM      5  C   UNL     1      50.264   7.003  15.663  0.00  0.00    +0.000 A 
ATOM      6  C   UNL     1      50.209   7.047  17.059  0.00  0.00    +0.000 A 
ENDROOT
BRANCH   1   7
ATOM      7  C   UNL     1      49.175   7.880  19.214  0.00  0.00    +0.000 C 
BRANCH   7   8
ATOM      8  N   UNL     1      48.023   7.087  19.650  0.00  0.00    +0.000 NA
ATOM      9  H   UNL     1      47.580   7.556  20.438  0.00  0.00    +0.000 HD
BRANCH   8  11
ATOM     10  C   UNL     1      49.820   5.622  20.569  0.00  0.00    +0.000 C 
ATOM     11  C   UNL     1      48.373   5.728  20.065  0.00  0.00    +0.000 C 
BRANCH  11  12
ATOM     12  C   UNL     1      48.220   4.754  18.901  0.00  0.00    +0.000 A 
ATOM     13  C   UNL     1      47.151   4.883  17.995  0.00  0.00    +0.000 A 
ATOM     14  C   UNL     1      47.115   4.136  16.818  0.00  0.00    +0.000 A 
ATOM     15  C   UNL     1      48.142   3.239  16.535  0.00  0.00    +0.000 A 
ATOM     16  C   UNL     1      49.181   3.066  17.449  0.00  0.00    +0.000 A 
ATOM     17 CL   UNL     1      50.469   1.986  17.080  0.00  0.00    +0.000 Cl
ATOM     18  C   UNL     1      49.215   3.801  18.635  0.00  0.00    +0.000 A 
ENDBRANCH  11  12
ENDBRANCH   8  11
ENDBRANCH   7   8
ENDBRANCH   1   7
BRANCH   4  19
ATOM     19  C   UNL     1      49.380   7.645  13.389  0.00  0.00    +0.000 C 
BRANCH  19  20
ATOM     20  N   UNL     1      48.065   7.364  12.881  0.00  0.00    +0.000 N 
ATOM     21  C   UNL     1      47.518   6.111  12.985  0.00  0.00    +0.000 C 
ATOM     22  O   UNL     1      48.093   5.186  13.543  0.00  0.00    +0.000 OA
ATOM     23  H   UNL     1      47.683   8.023  12.209  0.00  0.00    +0.000 HD
BRANCH  21  24
ATOM     24  C   UNL     1      46.158   5.960  12.443  0.00  0.00    +0.000 A 
ATOM     25  C   UNL     1      45.492   7.065  11.932  0.00  0.00    +0.000 A 
ATOM     26  S   UNL     1      43.945   6.697  11.311  0.00  0.00    +0.000 S 
ATOM     27  C   UNL     1      44.101   5.059  11.747  0.00  0.00    +0.000 A 
ATOM     28  N   UNL     1      43.091   4.173  11.514  0.00  0.00    +0.000 NA
ATOM     29  C   UNL     1      43.336   2.970  11.914  0.00  0.00    +0.000 A 
ATOM     30  N   UNL     1      44.499   2.570  12.521  0.00  0.00    +0.000 N 
ATOM     31  C   UNL     1      45.552   3.421  12.747  0.00  0.00    +0.000 A 
ATOM     32  O   UNL     1      46.600   3.018  13.243  0.00  0.00    +0.000 OA
ATOM     33  C   UNL     1      45.321   4.792  12.333  0.00  0.00    +0.000 A 
ATOM     34  H   UNL     1      44.637   1.610  12.795  0.00  0.00    +0.000 HD
ENDBRANCH  21  24
ENDBRANCH  19  20
ENDBRANCH   4  19
TORSDOF 7
ENDMDL
MODEL 8
REMARK VINA RESULT:    -7.381      3.383      4.952
REMARK INTER + INTRA:         -11.487
REMARK INTER:                 -10.200
REMARK INTRA:                  -1.287
REMARK UNBOUND:                -1.086
REMARK  Name = 
REMARK  8 active torsions:
REMARK  status: ('A' for Active; 'I' for Inactive)
REMARK    1  A    between atoms: C_1  and  C_2
REMARK    2  A    between atoms: C_2  and  N_3
REMARK    3  A    between atoms: C_2  and  C_25
REMARK    4  A    between atoms: N_3  and  C_4
REMARK    5  A    between atoms: C_4  and  C_5
REMARK    6  A    between atoms: C_8  and  C_9
REMARK    7  A    between atoms: C_9  and  N_10
REMARK    8  A    between atoms: C_11  and  C_13
REMARK                            x       y       z     vdW  Elec       q    Type
REMARK                         _______ _______ _______ _____ _____    ______ ____
ROOT
ATOM      1  C   UNL     1      47.504   6.196  13.939  0.00  0.00    +0.000 A 
ATOM      2  C   UNL     1      46.886   4.940  13.970  0.00  0.00    +0.000 A 
ATOM      3  C   UNL     1      47.042   4.095  15.071  0.00  0.00    +0.000 A 
ATOM      4  C   UNL     1      47.830   4.488  16.160  0.00  0.00    +0.000 A 
ATOM      5  C   UNL     1      48.510   5.711  16.096  0.00  0.00    +0.000 A 
ATOM      6  C   UNL     1      48.339   6.563  15.003  0.00  0.00    +0.000 A 
ENDROOT
BRANCH   1   7
ATOM      7  C   UNL     1      47.260   7.142  12.787  0.00  0.00    +0.000 C 
BRANCH   7   8
ATOM      8  N   UNL     1      47.098   6.405  11.532  0.00  0.00    +0.000 NA
ATOM      9  H   UNL     1      47.839   6.679  10.890  0.00  0.00    +0.000 HD
BRANCH   8  11
ATOM     10  C   UNL     1      44.766   7.237  11.833  0.00  0.00    +0.000 C 
ATOM     11  C   UNL     1      45.811   6.644  10.876  0.00  0.00    +0.000 C 
BRANCH  11  12
ATOM     12  C   UNL     1      45.240   5.343  10.321  0.00  0.00    +0.000 A 
ATOM     13  C   UNL     1      45.607   4.889   9.041  0.00  0.00    +0.000 A 
ATOM     14  C   UNL     1      45.260   3.609   8.608  0.00  0.00    +0.000 A 
ATOM     15  C   UNL     1      44.528   2.770   9.444  0.00  0.00    +0.000 A 
ATOM     16  C   UNL     1      44.117   3.228  10.695  0.00  0.00    +0.000 A 
ATOM     17 CL   UNL     1      43.246   2.175  11.742  0.00  0.00    +0.000 Cl
ATOM     18  C   UNL     1      44.450   4.512  11.128  0.00  0.00    +0.000 A 
ENDBRANCH  11  12
ENDBRANCH   8  11
ENDBRANCH   7   8
ENDBRANCH   1   7
BRANCH   4  19
ATOM     19  C   UNL     1      47.943   3.616  17.383  0.00  0.00    +0.000 C 
BRANCH  19  20
ATOM     20  N   UNL     1      49.314   3.335  17.709  0.00  0.00    +0.000 N 
ATOM     21  C   UNL     1      50.012   2.354  17.055  0.00  0.00    +0.000 C 
ATOM     22  O   UNL     1      49.527   1.697  16.143  0.00  0.00    +0.000 OA
ATOM     23  H   UNL     1      49.651   3.677  18.604  0.00  0.00    +0.000 HD
BRANCH  21  24
ATOM     24  C   UNL     1      51.414   2.179  17.470  0.00  0.00    +0.000 A 
ATOM     25  C   UNL     1      51.923   0.903  17.660  0.00  0.00    +0.000 A 
ATOM     26  S   UNL     1      53.573   0.890  18.100  0.00  0.00    +0.000 S 
ATOM     27  C   UNL     1      53.643   2.590  18.093  0.00  0.00    +0.000 A 
ATOM     28  N   UNL     1      54.794   3.245  18.418  0.00  0.00    +0.000 NA
ATOM     29  C   UNL     1      54.699   4.532  18.393  0.00  0.00    +0.000 A 
ATOM     30  N   UNL     1      53.561   5.226  18.069  0.00  0.00    +0.000 N 
ATOM     31  C   UNL     1      52.389   4.608  17.708  0.00  0.00    +0.000 A 
ATOM     32  O   UNL     1      51.405   5.258  17.371  0.00  0.00    +0.000 OA
ATOM     33  C   UNL     1      52.437   3.158  17.738  0.00  0.00    +0.000 A 
ATOM     34  H   UNL     1      53.555   6.233  18.050  0.00  0.00    +0.000 HD
ENDBRANCH  21  24
ENDBRANCH  19  20
ENDBRANCH   4  19
TORSDOF 7
ENDMDL
MODEL 9
REMARK VINA RESULT:    -7.356      3.780      8.235
REMARK INTER + INTRA:         -11.453
REMARK INTER:                  -9.291
REMARK INTRA:                  -2.162
REMARK UNBOUND:                -1.086
REMARK  Name = 
REMARK  8 active torsions:
REMARK  status: ('A' for Active; 'I' for Inactive)
REMARK    1  A    between atoms: C_1  and  C_2
REMARK    2  A    between atoms: C_2  and  N_3
REMARK    3  A    between atoms: C_2  and  C_25
REMARK    4  A    between atoms: N_3  and  C_4
REMARK    5  A    between atoms: C_4  and  C_5
REMARK    6  A    between atoms: C_8  and  C_9
REMARK    7  A    between atoms: C_9  and  N_10
REMARK    8  A    between atoms: C_11  and  C_13
REMARK                            x       y       z     vdW  Elec       q    Type
REMARK                         _______ _______ _______ _____ _____    ______ ____
ROOT
ATOM      1  C   UNL     1      49.944   7.828  18.338  0.00  0.00    +0.000 A 
ATOM      2  C   UNL     1      48.938   8.787  18.166  0.00  0.00    +0.000 A 
ATOM      3  C   UNL     1      48.452   9.091  16.892  0.00  0.00    +0.000 A 
ATOM      4  C   UNL     1      48.972   8.445  15.763  0.00  0.00    +0.000 A 
ATOM      5  C   UNL     1      50.031   7.543  15.927  0.00  0.00    +0.000 A 
ATOM      6  C   UNL     1      50.504   7.227  17.202  0.00  0.00    +0.000 A 
ENDROOT
BRANCH   1   7
ATOM      7  C   UNL     1      50.404   7.439  19.723  0.00  0.00    +0.000 C 
BRANCH   7   8
ATOM      8  N   UNL     1      50.103   6.031  19.994  0.00  0.00    +0.000 NA
ATOM      9  H   UNL     1      50.591   5.452  19.314  0.00  0.00    +0.000 HD
BRANCH   8  11
ATOM     10  C   UNL     1      48.134   5.144  21.243  0.00  0.00    +0.000 C 
ATOM     11  C   UNL     1      48.675   5.716  19.924  0.00  0.00    +0.000 C 
BRANCH  11  12
ATOM     12  C   UNL     1      48.403   4.686  18.832  0.00  0.00    +0.000 A 
ATOM     13  C   UNL     1      47.254   4.783  18.026  0.00  0.00    +0.000 A 
ATOM     14  C   UNL     1      47.100   3.977  16.898  0.00  0.00    +0.000 A 
ATOM     15  C   UNL     1      48.089   3.054  16.565  0.00  0.00    +0.000 A 
ATOM     16  C   UNL     1      49.208   2.916  17.385  0.00  0.00    +0.000 A 
ATOM     17 CL   UNL     1      50.447   1.802  16.951  0.00  0.00    +0.000 Cl
ATOM     18  C   UNL     1      49.361   3.709  18.523  0.00  0.00    +0.000 A 
ENDBRANCH  11  12
ENDBRANCH   8  11
ENDBRANCH   7   8
ENDBRANCH   1   7
BRANCH   4  19
ATOM     19  C   UNL     1      48.402   8.711  14.394  0.00  0.00    +0.000 C 
BRANCH  19  20
ATOM     20  N   UNL     1      47.427   7.722  14.025  0.00  0.00    +0.000 N 
ATOM     21  C   UNL     1      47.768   6.645  13.249  0.00  0.00    +0.000 C 
ATOM     22  O   UNL     1      48.913   6.446  12.866  0.00  0.00    +0.000 OA
ATOM     23  H   UNL     1      46.450   7.988  14.110  0.00  0.00    +0.000 HD
BRANCH  21  24
ATOM     24  C   UNL     1      46.681   5.696  12.957  0.00  0.00    +0.000 A 
ATOM     25  C   UNL     1      46.837   4.352  13.267  0.00  0.00    +0.000 A 
ATOM     26  S   UNL     1      45.464   3.408  12.898  0.00  0.00    +0.000 S 
ATOM     27  C   UNL     1      44.638   4.758  12.271  0.00  0.00    +0.000 A 
ATOM     28  N   UNL     1      43.384   4.632  11.750  0.00  0.00    +0.000 NA
ATOM     29  C   UNL     1      42.886   5.731  11.291  0.00  0.00    +0.000 A 
ATOM     30  N   UNL     1      43.523   6.945  11.310  0.00  0.00    +0.000 N 
ATOM     31  C   UNL     1      44.772   7.123  11.851  0.00  0.00    +0.000 A 
ATOM     32  O   UNL     1      45.291   8.233  11.902  0.00  0.00    +0.000 OA
ATOM     33  C   UNL     1      45.385   5.913  12.365  0.00  0.00    +0.000 A 
ATOM     34  H   UNL     1      43.073   7.773  10.951  0.00  0.00    +0.000 HD
ENDBRANCH  21  24
ENDBRANCH  19  20
ENDBRANCH   4  19
TORSDOF 7
ENDMDL
