MODEL 1
REMARK VINA RESULT:    -6.738      0.000      0.000
REMARK INTER + INTRA:          -8.426
REMARK INTER:                  -7.920
REMARK INTRA:                  -0.506
REMARK UNBOUND:                -0.506
REMARK  Name = 
REMARK  3 active torsions:
REMARK  status: ('A' for Active; 'I' for Inactive)
REMARK    1  A    between atoms: C_7  and  C_8
REMARK    2  A    between atoms: C_8  and  O_9
REMARK    3  A    between atoms: O_9  and  C_10
REMARK                            x       y       z     vdW  Elec       q    Type
REMARK                         _______ _______ _______ _____ _____    ______ ____
ROOT
ATOM      1  C   UNL     1      47.837   6.900  13.750  0.00  0.00    +0.000 A 
ATOM      2  C   UNL     1      47.325   8.183  13.688  0.00  0.00    +0.000 A 
ATOM      3  C   UNL     1      46.134   8.356  13.009  0.00  0.00    +0.000 A 
ATOM      4  N   UNL     1      45.451   7.354  12.405  0.00  0.00    +0.000 NA
ATOM      5  C   UNL     1      45.945   6.101  12.469  0.00  0.00    +0.000 A 
ATOM      6  N   UNL     1      45.237   5.072  11.889  0.00  0.00    +0.000 N 
ATOM      7  C   UNL     1      44.291   5.339  10.803  0.00  0.00    +0.000 C 
ATOM      8  C   UNL     1      42.906   4.725  11.110  0.00  0.00    +0.000 C 
ATOM      9  N   UNL     1      42.954   3.294  11.490  0.00  0.00    +0.000 NA
ATOM     10  C   UNL     1      43.870   3.148  12.640  0.00  0.00    +0.000 C 
ATOM     11  C   UNL     1      45.293   3.694  12.380  0.00  0.00    +0.000 C 
ATOM     12  C   UNL     1      47.153   5.863  13.118  0.00  0.00    +0.000 A 
ATOM     13  H   UNL     1      43.347   2.774  10.706  0.00  0.00    +0.000 HD
ENDROOT
BRANCH   1  14
ATOM     14  O   UNL     1      48.993   6.523  14.373  0.00  0.00    +0.000 OA
BRANCH  14  15
ATOM     15  C   UNL     1      49.208   7.065  15.676  0.00  0.00    +0.000 C 
BRANCH  15  22
ATOM     16 CL   UNL     1      47.631   5.834  20.482  0.00  0.00    +0.000 Cl
ATOM     17  C   UNL     1      48.154   5.400  18.903  0.00  0.00    +0.000 A 
ATOM     18  C   UNL     1      48.320   4.063  18.577  0.00  0.00    +0.000 A 
ATOM     19  C   UNL     1      48.754   3.784  17.299  0.00  0.00    +0.000 A 
ATOM     20 CL   UNL     1      48.998   2.165  16.787  0.00  0.00    +0.000 Cl
ATOM     21  N   UNL     1      49.034   4.713  16.362  0.00  0.00    +0.000 NA
ATOM     22  C   UNL     1      48.858   6.014  16.704  0.00  0.00    +0.000 A 
ATOM     23  C   UNL     1      48.419   6.394  17.968  0.00  0.00    +0.000 A 
ENDBRANCH  15  22
ENDBRANCH  14  15
ENDBRANCH   1  14
TORSDOF 3
ENDMDL
MODEL 2
REMARK VINA RESULT:    -6.602      1.016      2.017
REMARK INTER + INTRA:          -8.266
REMARK INTER:                  -7.858
REMARK INTRA:                  -0.408
REMARK UNBOUND:                -0.506
REMARK  Name = 
REMARK  3 active torsions:
REMARK  status: ('A' for Active; 'I' for Inactive)
REMARK    1  A    between atoms: C_7  and  C_8
REMARK    2  A    between atoms: C_8  and  O_9
REMARK    3  A    between atoms: O_9  and  C_10
REMARK                            x       y       z     vdW  Elec       q    Type
REMARK                         _______ _______ _______ _____ _____    ______ ____
ROOT
ATOM      1  C   UNL     1      47.928   6.803  13.704  0.00  0.00    +0.000 A 
ATOM      2  C   UNL     1      47.435   8.095  13.706  0.00  0.00    +0.000 A 
ATOM      3  C   UNL     1      46.222   8.309  13.078  0.00  0.00    +0.000 A 
ATOM      4  N   UNL     1      45.502   7.340  12.465  0.00  0.00    +0.000 NA
ATOM      5  C   UNL     1      45.977   6.078  12.467  0.00  0.00    +0.000 A 
ATOM      6  N   UNL     1      45.233   5.080  11.878  0.00  0.00    +0.000 N 
ATOM      7  C   UNL     1      44.252   5.400  10.839  0.00  0.00    +0.000 C 
ATOM      8  C   UNL     1      42.870   4.796  11.174  0.00  0.00    +0.000 C 
ATOM      9  N   UNL     1      42.909   3.352  11.502  0.00  0.00    +0.000 NA
ATOM     10  C   UNL     1      43.863   3.152  12.611  0.00  0.00    +0.000 C 
ATOM     11  C   UNL     1      45.284   3.685  12.318  0.00  0.00    +0.000 C 
ATOM     12  C   UNL     1      47.204   5.799  13.063  0.00  0.00    +0.000 A 
ATOM     13  H   UNL     1      43.265   2.854  10.686  0.00  0.00    +0.000 HD
ENDROOT
BRANCH   1  14
ATOM     14  O   UNL     1      49.099   6.387  14.271  0.00  0.00    +0.000 OA
BRANCH  14  15
ATOM     15  C   UNL     1      49.493   7.063  15.465  0.00  0.00    +0.000 C 
BRANCH  15  22
ATOM     16 CL   UNL     1      47.129   2.953  17.613  0.00  0.00    +0.000 Cl
ATOM     17  C   UNL     1      47.662   4.587  17.659  0.00  0.00    +0.000 A 
ATOM     18  C   UNL     1      47.375   5.373  18.763  0.00  0.00    +0.000 A 
ATOM     19  C   UNL     1      47.820   6.677  18.730  0.00  0.00    +0.000 A 
ATOM     20 CL   UNL     1      47.518   7.743  20.040  0.00  0.00    +0.000 Cl
ATOM     21  N   UNL     1      48.497   7.233  17.704  0.00  0.00    +0.000 NA
ATOM     22  C   UNL     1      48.771   6.441  16.638  0.00  0.00    +0.000 A 
ATOM     23  C   UNL     1      48.367   5.110  16.581  0.00  0.00    +0.000 A 
ENDBRANCH  15  22
ENDBRANCH  14  15
ENDBRANCH   1  14
TORSDOF 3
ENDMDL
MODEL 3
REMARK VINA RESULT:    -5.941      1.509      2.197
REMARK INTER + INTRA:          -7.489
REMARK INTER:                  -7.176
REMARK INTRA:                  -0.312
REMARK UNBOUND:                -0.506
REMARK  Name = 
REMARK  3 active torsions:
REMARK  status: ('A' for Active; 'I' for Inactive)
REMARK    1  A    between atoms: C_7  and  C_8
REMARK    2  A    between atoms: C_8  and  O_9
REMARK    3  A    between atoms: O_9  and  C_10
REMARK                            x       y       z     vdW  Elec       q    Type
REMARK                         _______ _______ _______ _____ _____    ______ ____
ROOT
ATOM      1  C   UNL     1      47.884   6.411  14.167  0.00  0.00    +0.000 A 
ATOM      2  C   UNL     1      47.856   7.687  13.635  0.00  0.00    +0.000 A 
ATOM      3  C   UNL     1      47.045   7.895  12.536  0.00  0.00    +0.000 A 
ATOM      4  N   UNL     1      46.290   6.932  11.955  0.00  0.00    +0.000 NA
ATOM      5  C   UNL     1      46.311   5.688  12.475  0.00  0.00    +0.000 A 
ATOM      6  N   UNL     1      45.518   4.714  11.913  0.00  0.00    +0.000 N 
ATOM      7  C   UNL     1      45.079   4.824  10.520  0.00  0.00    +0.000 C 
ATOM      8  C   UNL     1      43.546   4.666  10.406  0.00  0.00    +0.000 C 
ATOM      9  N   UNL     1      43.015   3.460  11.081  0.00  0.00    +0.000 NA
ATOM     10  C   UNL     1      43.445   3.488  12.493  0.00  0.00    +0.000 C 
ATOM     11  C   UNL     1      44.977   3.589  12.678  0.00  0.00    +0.000 C 
ATOM     12  C   UNL     1      47.125   5.407  13.569  0.00  0.00    +0.000 A 
ATOM     13  H   UNL     1      43.435   2.642  10.639  0.00  0.00    +0.000 HD
ENDROOT
BRANCH   1  14
ATOM     14  O   UNL     1      48.614   6.004  15.248  0.00  0.00    +0.000 OA
BRANCH  14  15
ATOM     15  C   UNL     1      48.007   5.012  16.077  0.00  0.00    +0.000 C 
BRANCH  15  22
ATOM     16 CL   UNL     1      52.109   4.228  19.185  0.00  0.00    +0.000 Cl
ATOM     17  C   UNL     1      50.482   4.718  18.920  0.00  0.00    +0.000 A 
ATOM     18  C   UNL     1      49.704   5.125  19.992  0.00  0.00    +0.000 A 
ATOM     19  C   UNL     1      48.405   5.493  19.712  0.00  0.00    +0.000 A 
ATOM     20 CL   UNL     1      47.349   6.009  20.961  0.00  0.00    +0.000 Cl
ATOM     21  N   UNL     1      47.848   5.473  18.484  0.00  0.00    +0.000 NA
ATOM     22  C   UNL     1      48.632   5.077  17.451  0.00  0.00    +0.000 A 
ATOM     23  C   UNL     1      49.957   4.692  17.633  0.00  0.00    +0.000 A 
ENDBRANCH  15  22
ENDBRANCH  14  15
ENDBRANCH   1  14
TORSDOF 3
ENDMDL
MODEL 4
REMARK VINA RESULT:    -5.912      2.076      2.366
REMARK INTER + INTRA:          -7.455
REMARK INTER:                  -7.161
REMARK INTRA:                  -0.294
REMARK UNBOUND:                -0.506
REMARK  Name = 
REMARK  3 active torsions:
REMARK  status: ('A' for Active; 'I' for Inactive)
REMARK    1  A    between atoms: C_7  and  C_8
REMARK    2  A    between atoms: C_8  and  O_9
REMARK    3  A    between atoms: O_9  and  C_10
REMARK                            x       y       z     vdW  Elec       q    Type
REMARK                         _______ _______ _______ _____ _____    ______ ____
ROOT
ATOM      1  C   UNL     1      47.877   6.947  13.668  0.00  0.00    +0.000 A 
ATOM      2  C   UNL     1      47.344   8.221  13.719  0.00  0.00    +0.000 A 
ATOM      3  C   UNL     1      46.106   8.413  13.136  0.00  0.00    +0.000 A 
ATOM      4  N   UNL     1      45.396   7.437  12.521  0.00  0.00    +0.000 NA
ATOM      5  C   UNL     1      45.910   6.190  12.475  0.00  0.00    +0.000 A 
ATOM      6  N   UNL     1      45.178   5.185  11.885  0.00  0.00    +0.000 N 
ATOM      7  C   UNL     1      44.154   5.499  10.886  0.00  0.00    +0.000 C 
ATOM      8  C   UNL     1      42.803   4.843  11.249  0.00  0.00    +0.000 C 
ATOM      9  N   UNL     1      42.898   3.394  11.539  0.00  0.00    +0.000 NA
ATOM     10  C   UNL     1      43.893   3.196  12.612  0.00  0.00    +0.000 C 
ATOM     11  C   UNL     1      45.287   3.782  12.288  0.00  0.00    +0.000 C 
ATOM     12  C   UNL     1      47.164   5.936  13.025  0.00  0.00    +0.000 A 
ATOM     13  H   UNL     1      43.242   2.928  10.700  0.00  0.00    +0.000 HD
ENDROOT
BRANCH   1  14
ATOM     14  O   UNL     1      49.078   6.554  14.186  0.00  0.00    +0.000 OA
BRANCH  14  15
ATOM     15  C   UNL     1      49.616   7.381  15.218  0.00  0.00    +0.000 C 
BRANCH  15  22
ATOM     16 CL   UNL     1      54.275   6.538  17.382  0.00  0.00    +0.000 Cl
ATOM     17  C   UNL     1      52.636   6.103  17.100  0.00  0.00    +0.000 A 
ATOM     18  C   UNL     1      52.135   4.927  17.638  0.00  0.00    +0.000 A 
ATOM     19  C   UNL     1      50.817   4.631  17.363  0.00  0.00    +0.000 A 
ATOM     20 CL   UNL     1      50.093   3.201  17.971  0.00  0.00    +0.000 Cl
ATOM     21  N   UNL     1      49.999   5.393  16.608  0.00  0.00    +0.000 NA
ATOM     22  C   UNL     1      50.512   6.540  16.099  0.00  0.00    +0.000 A 
ATOM     23  C   UNL     1      51.829   6.928  16.325  0.00  0.00    +0.000 A 
ENDBRANCH  15  22
ENDBRANCH  14  15
ENDBRANCH   1  14
TORSDOF 3
ENDMDL
MODEL 5
REMARK VINA RESULT:    -5.900      4.527      6.079
REMARK INTER + INTRA:          -7.440
REMARK INTER:                  -7.137
REMARK INTRA:                  -0.303
REMARK UNBOUND:                -0.506
REMARK  Name = 
REMARK  3 active torsions:
REMARK  status: ('A' for Active; 'I' for Inactive)
REMARK    1  A    between atoms: C_7  and  C_8
REMARK    2  A    between atoms: C_8  and  O_9
REMARK    3  A    between atoms: O_9  and  C_10
REMARK                            x       y       z     vdW  Elec       q    Type
REMARK                         _______ _______ _______ _____ _____    ______ ____
ROOT
ATOM      1  C   UNL     1      44.908   3.195  10.337  0.00  0.00    +0.000 A 
ATOM      2  C   UNL     1      43.975   4.096   9.859  0.00  0.00    +0.000 A 
ATOM      3  C   UNL     1      44.017   4.394   8.510  0.00  0.00    +0.000 A 
ATOM      4  N   UNL     1      44.912   3.864   7.642  0.00  0.00    +0.000 NA
ATOM      5  C   UNL     1      45.820   2.980   8.104  0.00  0.00    +0.000 A 
ATOM      6  N   UNL     1      46.708   2.408   7.221  0.00  0.00    +0.000 N 
ATOM      7  C   UNL     1      47.043   3.080   5.963  0.00  0.00    +0.000 C 
ATOM      8  C   UNL     1      46.850   2.132   4.759  0.00  0.00    +0.000 C 
ATOM      9  N   UNL     1      47.528   0.824   4.909  0.00  0.00    +0.000 NA
ATOM     10  C   UNL     1      47.061   0.198   6.161  0.00  0.00    +0.000 C 
ATOM     11  C   UNL     1      47.276   1.073   7.418  0.00  0.00    +0.000 C 
ATOM     12  C   UNL     1      45.845   2.655   9.458  0.00  0.00    +0.000 A 
ATOM     13  H   UNL     1      48.529   0.998   4.997  0.00  0.00    +0.000 HD
ENDROOT
BRANCH   1  14
ATOM     14  O   UNL     1      45.029   2.770  11.629  0.00  0.00    +0.000 OA
BRANCH  14  15
ATOM     15  C   UNL     1      44.522   3.653  12.630  0.00  0.00    +0.000 C 
BRANCH  15  22
ATOM     16 CL   UNL     1      47.891   7.557  11.922  0.00  0.00    +0.000 Cl
ATOM     17  C   UNL     1      47.234   6.277  12.863  0.00  0.00    +0.000 A 
ATOM     18  C   UNL     1      47.789   5.975  14.096  0.00  0.00    +0.000 A 
ATOM     19  C   UNL     1      47.223   4.929  14.793  0.00  0.00    +0.000 A 
ATOM     20 CL   UNL     1      47.832   4.464  16.327  0.00  0.00    +0.000 Cl
ATOM     21  N   UNL     1      46.187   4.185  14.355  0.00  0.00    +0.000 NA
ATOM     22  C   UNL     1      45.657   4.505  13.148  0.00  0.00    +0.000 A 
ATOM     23  C   UNL     1      46.156   5.547  12.373  0.00  0.00    +0.000 A 
ENDBRANCH  15  22
ENDBRANCH  14  15
ENDBRANCH   1  14
TORSDOF 3
ENDMDL
MODEL 6
REMARK VINA RESULT:    -5.823      2.989      6.795
REMARK INTER + INTRA:          -7.351
REMARK INTER:                  -6.927
REMARK INTRA:                  -0.423
REMARK UNBOUND:                -0.506
REMARK  Name = 
REMARK  3 active torsions:
REMARK  status: ('A' for Active; 'I' for Inactive)
REMARK    1  A    between atoms: C_7  and  C_8
REMARK    2  A    between atoms: C_8  and  O_9
REMARK    3  A    between atoms: O_9  and  C_10
REMARK                            x       y       z     vdW  Elec       q    Type
REMARK                         _______ _______ _______ _____ _____    ______ ____
ROOT
ATOM      1  C   UNL     1      49.056   6.902  14.341  0.00  0.00    +0.000 A 
ATOM      2  C   UNL     1      50.173   7.671  14.606  0.00  0.00    +0.000 A 
ATOM      3  C   UNL     1      50.645   7.677  15.905  0.00  0.00    +0.000 A 
ATOM      4  N   UNL     1      50.079   6.983  16.921  0.00  0.00    +0.000 NA
ATOM      5  C   UNL     1      48.992   6.226  16.665  0.00  0.00    +0.000 A 
ATOM      6  N   UNL     1      48.434   5.488  17.685  0.00  0.00    +0.000 N 
ATOM      7  C   UNL     1      48.634   5.882  19.082  0.00  0.00    +0.000 C 
ATOM      8  C   UNL     1      49.163   4.698  19.922  0.00  0.00    +0.000 C 
ATOM      9  N   UNL     1      48.365   3.458  19.783  0.00  0.00    +0.000 NA
ATOM     10  C   UNL     1      48.295   3.107  18.351  0.00  0.00    +0.000 C 
ATOM     11  C   UNL     1      47.720   4.231  17.458  0.00  0.00    +0.000 C 
ATOM     12  C   UNL     1      48.455   6.195  15.381  0.00  0.00    +0.000 A 
ATOM     13  H   UNL     1      47.418   3.656  20.106  0.00  0.00    +0.000 HD
ENDROOT
BRANCH   1  14
ATOM     14  O   UNL     1      48.442   6.761  13.129  0.00  0.00    +0.000 OA
BRANCH  14  15
ATOM     15  C   UNL     1      47.258   7.534  12.933  0.00  0.00    +0.000 C 
BRANCH  15  22
ATOM     16 CL   UNL     1      42.782   4.885  13.148  0.00  0.00    +0.000 Cl
ATOM     17  C   UNL     1      44.181   5.428  12.309  0.00  0.00    +0.000 A 
ATOM     18  C   UNL     1      44.399   5.020  11.002  0.00  0.00    +0.000 A 
ATOM     19  C   UNL     1      45.546   5.481  10.392  0.00  0.00    +0.000 A 
ATOM     20 CL   UNL     1      45.921   5.037   8.778  0.00  0.00    +0.000 Cl
ATOM     21  N   UNL     1      46.461   6.281  10.977  0.00  0.00    +0.000 NA
ATOM     22  C   UNL     1      46.220   6.671  12.253  0.00  0.00    +0.000 A 
ATOM     23  C   UNL     1      45.088   6.262  12.952  0.00  0.00    +0.000 A 
ENDBRANCH  15  22
ENDBRANCH  14  15
ENDBRANCH   1  14
TORSDOF 3
ENDMDL
MODEL 7
REMARK VINA RESULT:    -5.502      3.382      7.981
REMARK INTER + INTRA:          -6.973
REMARK INTER:                  -6.704
REMARK INTRA:                  -0.268
REMARK UNBOUND:                -0.506
REMARK  Name = 
REMARK  3 active torsions:
REMARK  status: ('A' for Active; 'I' for Inactive)
REMARK    1  A    between atoms: C_7  and  C_8
REMARK    2  A    between atoms: C_8  and  O_9
REMARK    3  A    between atoms: O_9  and  C_10
REMARK                            x       y       z     vdW  Elec       q    Type
REMARK                         _______ _______ _______ _____ _____    ______ ____
ROOT
ATOM      1  C   UNL     1      47.545   3.995  16.378  0.00  0.00    +0.000 A 
ATOM      2  C   UNL     1      48.193   2.813  16.683  0.00  0.00    +0.000 A 
ATOM      3  C   UNL     1      49.042   2.820  17.773  0.00  0.00    +0.000 A 
ATOM      4  N   UNL     1      49.277   3.907  18.547  0.00  0.00    +0.000 NA
ATOM      5  C   UNL     1      48.642   5.061  18.255  0.00  0.00    +0.000 A 
ATOM      6  N   UNL     1      48.847   6.160  19.058  0.00  0.00    +0.000 N 
ATOM      7  C   UNL     1      50.068   6.279  19.859  0.00  0.00    +0.000 C 
ATOM      8  C   UNL     1      49.735   6.562  21.341  0.00  0.00    +0.000 C 
ATOM      9  N   UNL     1      48.804   7.697  21.541  0.00  0.00    +0.000 NA
ATOM     10  C   UNL     1      47.579   7.439  20.759  0.00  0.00    +0.000 C 
ATOM     11  C   UNL     1      47.837   7.202  19.252  0.00  0.00    +0.000 C 
ATOM     12  C   UNL     1      47.790   5.126  17.155  0.00  0.00    +0.000 A 
ATOM     13  H   UNL     1      49.247   8.536  21.167  0.00  0.00    +0.000 HD
ENDROOT
BRANCH   1  14
ATOM     14  O   UNL     1      46.669   4.191  15.349  0.00  0.00    +0.000 OA
BRANCH  14  15
ATOM     15  C   UNL     1      47.240   4.614  14.110  0.00  0.00    +0.000 C 
BRANCH  15  22
ATOM     16 CL   UNL     1      43.574   2.776  10.904  0.00  0.00    +0.000 Cl
ATOM     17  C   UNL     1      44.441   4.073  11.626  0.00  0.00    +0.000 A 
ATOM     18  C   UNL     1      44.160   5.379  11.255  0.00  0.00    +0.000 A 
ATOM     19  C   UNL     1      44.901   6.370  11.862  0.00  0.00    +0.000 A 
ATOM     20 CL   UNL     1      44.643   8.021  11.477  0.00  0.00    +0.000 Cl
ATOM     21  N   UNL     1      45.874   6.155  12.772  0.00  0.00    +0.000 NA
ATOM     22  C   UNL     1      46.125   4.869  13.122  0.00  0.00    +0.000 A 
ATOM     23  C   UNL     1      45.427   3.801  12.568  0.00  0.00    +0.000 A 
ENDBRANCH  15  22
ENDBRANCH  14  15
ENDBRANCH   1  14
TORSDOF 3
ENDMDL
MODEL 8
REMARK VINA RESULT:    -5.342      4.768      6.705
REMARK INTER + INTRA:          -6.785
REMARK INTER:                  -6.334
REMARK INTRA:                  -0.451
REMARK UNBOUND:                -0.506
REMARK  Name = 
REMARK  3 active torsions:
REMARK  status: ('A' for Active; 'I' for Inactive)
REMARK    1  A    between atoms: C_7  and  C_8
REMARK    2  A    between atoms: C_8  and  O_9
REMARK    3  A    between atoms: O_9  and  C_10
REMARK                            x       y       z     vdW  Elec       q    Type
REMARK                         _______ _______ _______ _____ _____    ______ ____
ROOT
ATOM      1  C   UNL     1      45.443  10.246  11.594  0.00  0.00    +0.000 A 
ATOM      2  C   UNL     1      45.999  11.501  11.762  0.00  0.00    +0.000 A 
ATOM      3  C   UNL     1      45.193  12.591  11.496  0.00  0.00    +0.000 A 
ATOM      4  N   UNL     1      43.906  12.501  11.082  0.00  0.00    +0.000 NA
ATOM      5  C   UNL     1      43.358  11.279  10.923  0.00  0.00    +0.000 A 
ATOM      6  N   UNL     1      42.040  11.181  10.538  0.00  0.00    +0.000 N 
ATOM      7  C   UNL     1      41.392  12.278   9.815  0.00  0.00    +0.000 C 
ATOM      8  C   UNL     1      40.072  12.693  10.503  0.00  0.00    +0.000 C 
ATOM      9  N   UNL     1      39.154  11.563  10.773  0.00  0.00    +0.000 NA
ATOM     10  C   UNL     1      39.879  10.555  11.573  0.00  0.00    +0.000 C 
ATOM     11  C   UNL     1      41.185  10.054  10.913  0.00  0.00    +0.000 C 
ATOM     12  C   UNL     1      44.125  10.140  11.152  0.00  0.00    +0.000 A 
ATOM     13  H   UNL     1      38.907  11.139   9.879  0.00  0.00    +0.000 HD
ENDROOT
BRANCH   1  14
ATOM     14  O   UNL     1      46.069   9.052  11.807  0.00  0.00    +0.000 OA
BRANCH  14  15
ATOM     15  C   UNL     1      45.625   8.303  12.939  0.00  0.00    +0.000 C 
BRANCH  15  22
ATOM     16 CL   UNL     1      43.717   4.540   9.890  0.00  0.00    +0.000 Cl
ATOM     17  C   UNL     1      44.695   5.079  11.197  0.00  0.00    +0.000 A 
ATOM     18  C   UNL     1      45.390   4.155  11.961  0.00  0.00    +0.000 A 
ATOM     19  C   UNL     1      46.145   4.652  13.002  0.00  0.00    +0.000 A 
ATOM     20 CL   UNL     1      47.043   3.601  14.017  0.00  0.00    +0.000 Cl
ATOM     21  N   UNL     1      46.241   5.958  13.327  0.00  0.00    +0.000 NA
ATOM     22  C   UNL     1      45.557   6.842  12.560  0.00  0.00    +0.000 A 
ATOM     23  C   UNL     1      44.772   6.437  11.484  0.00  0.00    +0.000 A 
ENDBRANCH  15  22
ENDBRANCH  14  15
ENDBRANCH   1  14
TORSDOF 3
ENDMDL
MODEL 9
REMARK VINA RESULT:    -5.176      2.137      4.068
REMARK INTER + INTRA:          -6.589
REMARK INTER:                  -6.162
REMARK INTRA:                  -0.427
REMARK UNBOUND:                -0.506
REMARK  Name = 
REMARK  3 active torsions:
REMARK  status: ('A' for Active; 'I' for Inactive)
REMARK    1  A    between atoms: C_7  and  C_8
REMARK    2  A    between atoms: C_8  and  O_9
REMARK    3  A    between atoms: O_9  and  C_10
REMARK                            x       y       z     vdW  Elec       q    Type
REMARK                         _______ _______ _______ _____ _____    ______ ____
ROOT
ATOM      1  C   UNL     1      46.807   6.133  12.745  0.00  0.00    +0.000 A 
ATOM      2  C   UNL     1      45.849   5.405  12.065  0.00  0.00    +0.000 A 
ATOM      3  C   UNL     1      44.855   6.116  11.420  0.00  0.00    +0.000 A 
ATOM      4  N   UNL     1      44.765   7.467  11.420  0.00  0.00    +0.000 NA
ATOM      5  C   UNL     1      45.702   8.181  12.077  0.00  0.00    +0.000 A 
ATOM      6  N   UNL     1      45.638   9.556  12.050  0.00  0.00    +0.000 N 
ATOM      7  C   UNL     1      44.366  10.236  11.800  0.00  0.00    +0.000 C 
ATOM      8  C   UNL     1      44.501  11.263  10.653  0.00  0.00    +0.000 C 
ATOM      9  N   UNL     1      45.633  12.204  10.820  0.00  0.00    +0.000 NA
ATOM     10  C   UNL     1      46.872  11.419  10.983  0.00  0.00    +0.000 C 
ATOM     11  C   UNL     1      46.824  10.408  12.153  0.00  0.00    +0.000 C 
ATOM     12  C   UNL     1      46.717   7.524  12.767  0.00  0.00    +0.000 A 
ATOM     13  H   UNL     1      45.478  12.732  11.679  0.00  0.00    +0.000 HD
ENDROOT
BRANCH   1  14
ATOM     14  O   UNL     1      47.867   5.621  13.439  0.00  0.00    +0.000 OA
BRANCH  14  15
ATOM     15  C   UNL     1      48.579   6.542  14.266  0.00  0.00    +0.000 C 
BRANCH  15  22
ATOM     16 CL   UNL     1      49.378   7.436  19.332  0.00  0.00    +0.000 Cl
ATOM     17  C   UNL     1      48.842   6.440  18.037  0.00  0.00    +0.000 A 
ATOM     18  C   UNL     1      48.364   5.167  18.302  0.00  0.00    +0.000 A 
ATOM     19  C   UNL     1      47.963   4.416  17.217  0.00  0.00    +0.000 A 
ATOM     20 CL   UNL     1      47.359   2.824  17.425  0.00  0.00    +0.000 Cl
ATOM     21  N   UNL     1      48.014   4.830  15.934  0.00  0.00    +0.000 NA
ATOM     22  C   UNL     1      48.479   6.082  15.703  0.00  0.00    +0.000 A 
ATOM     23  C   UNL     1      48.903   6.917  16.732  0.00  0.00    +0.000 A 
ENDBRANCH  15  22
ENDBRANCH  14  15
ENDBRANCH   1  14
TORSDOF 3
ENDMDL
