MODEL 1
REMARK VINA RESULT:    -8.102      0.000      0.000
REMARK INTER + INTRA:         -14.392
REMARK INTER:                 -12.601
REMARK INTRA:                  -1.791
REMARK UNBOUND:                -1.791
REMARK  Name = 
REMARK  10 active torsions:
REMARK  status: ('A' for Active; 'I' for Inactive)
REMARK    1  A    between atoms: C_2  and  C_23
REMARK    2  A    between atoms: N_3  and  C_4
REMARK    3  A    between atoms: C_4  and  C_5
REMARK    4  A    between atoms: C_8  and  C_9
REMARK    5  A    between atoms: C_9  and  N_10
REMARK    6  A    between atoms: N_10  and  C_11
REMARK    7  A    between atoms: N_10  and  C_14
REMARK    8  A    between atoms: C_11  and  C_12
REMARK    9  A    between atoms: C_12  and  O_13
REMARK   10  A    between atoms: C_14  and  C_15
REMARK                            x       y       z     vdW  Elec       q    Type
REMARK                         _______ _______ _______ _____ _____    ______ ____
ROOT
ATOM      1  C   UNL     1      46.584   7.814  12.608  0.00  0.00    +0.000 A 
ATOM      2  C   UNL     1      47.125   6.764  11.856  0.00  0.00    +0.000 A 
ATOM      3  C   UNL     1      46.314   6.007  11.013  0.00  0.00    +0.000 A 
ATOM      4  C   UNL     1      44.937   6.257  10.944  0.00  0.00    +0.000 A 
ATOM      5  C   UNL     1      44.418   7.381  11.602  0.00  0.00    +0.000 A 
ATOM      6  C   UNL     1      45.241   8.165  12.415  0.00  0.00    +0.000 A 
ENDROOT
BRANCH   1   7
ATOM      7  C   UNL     1      47.430   8.510  13.639  0.00  0.00    +0.000 C 
BRANCH   7  10
ATOM      8  O   UNL     1      50.004   7.521  14.309  0.00  0.00    +0.000 OA
ATOM      9  C   UNL     1      49.043   7.248  15.023  0.00  0.00    +0.000 C 
ATOM     10  N   UNL     1      47.765   7.651  14.741  0.00  0.00    +0.000 N 
ATOM     11  H   UNL     1      47.036   7.535  15.434  0.00  0.00    +0.000 HD
BRANCH   9  12
ATOM     12  C   UNL     1      49.183   6.414  16.221  0.00  0.00    +0.000 A 
ATOM     13  C   UNL     1      50.021   6.801  17.256  0.00  0.00    +0.000 A 
ATOM     14  S   UNL     1      50.000   5.726  18.582  0.00  0.00    +0.000 S 
ATOM     15  C   UNL     1      48.854   4.720  17.824  0.00  0.00    +0.000 A 
ATOM     16  N   UNL     1      48.347   3.623  18.452  0.00  0.00    +0.000 NA
ATOM     17  C   UNL     1      47.456   2.983  17.775  0.00  0.00    +0.000 A 
ATOM     18  N   UNL     1      47.038   3.323  16.511  0.00  0.00    +0.000 N 
ATOM     19  C   UNL     1      47.582   4.362  15.808  0.00  0.00    +0.000 A 
ATOM     20  O   UNL     1      47.306   4.531  14.624  0.00  0.00    +0.000 OA
ATOM     21  C   UNL     1      48.532   5.168  16.558  0.00  0.00    +0.000 A 
ATOM     22  H   UNL     1      46.375   2.754  16.008  0.00  0.00    +0.000 HD
ENDBRANCH   9  12
ENDBRANCH   7  10
ENDBRANCH   1   7
BRANCH   4  23
ATOM     23  C   UNL     1      44.025   5.281  10.228  0.00  0.00    +0.000 C 
BRANCH  23  24
ATOM     24  N   UNL     1      44.644   3.943   9.999  0.00  0.00    +0.000 NA
BRANCH  24  25
ATOM     25  C   UNL     1      44.013   2.913  10.863  0.00  0.00    +0.000 C 
BRANCH  25  26
ATOM     26  C   UNL     1      44.191   3.114  12.381  0.00  0.00    +0.000 C 
BRANCH  26  27
ATOM     27  O   UNL     1      45.526   2.798  12.775  0.00  0.00    +0.000 OA
ATOM     28  H   UNL     1      46.024   2.587  11.966  0.00  0.00    +0.000 HD
ENDBRANCH  26  27
ENDBRANCH  25  26
ENDBRANCH  24  25
BRANCH  24  29
ATOM     29  C   UNL     1      44.529   3.570   8.573  0.00  0.00    +0.000 C 
BRANCH  29  30
ATOM     30  C   UNL     1      45.752   2.865   8.029  0.00  0.00    +0.000 A 
ATOM     31  C   UNL     1      46.702   3.559   7.275  0.00  0.00    +0.000 A 
ATOM     32  C   UNL     1      47.763   2.852   6.733  0.00  0.00    +0.000 A 
ATOM     33  N   UNL     1      47.942   1.523   6.895  0.00  0.00    +0.000 NA
ATOM     34  C   UNL     1      47.027   0.878   7.648  0.00  0.00    +0.000 A 
ATOM     35  C   UNL     1      45.939   1.497   8.242  0.00  0.00    +0.000 A 
ENDBRANCH  29  30
ENDBRANCH  24  29
ENDBRANCH  23  24
ENDBRANCH   4  23
TORSDOF 10
ENDMDL
MODEL 2
REMARK VINA RESULT:    -7.083      2.068      2.568
REMARK INTER + INTRA:         -12.807
REMARK INTER:                 -11.684
REMARK INTRA:                  -1.123
REMARK UNBOUND:                -1.791
REMARK  Name = 
REMARK  10 active torsions:
REMARK  status: ('A' for Active; 'I' for Inactive)
REMARK    1  A    between atoms: C_2  and  C_23
REMARK    2  A    between atoms: N_3  and  C_4
REMARK    3  A    between atoms: C_4  and  C_5
REMARK    4  A    between atoms: C_8  and  C_9
REMARK    5  A    between atoms: C_9  and  N_10
REMARK    6  A    between atoms: N_10  and  C_11
REMARK    7  A    between atoms: N_10  and  C_14
REMARK    8  A    between atoms: C_11  and  C_12
REMARK    9  A    between atoms: C_12  and  O_13
REMARK   10  A    between atoms: C_14  and  C_15
REMARK                            x       y       z     vdW  Elec       q    Type
REMARK                         _______ _______ _______ _____ _____    ______ ____
ROOT
ATOM      1  C   UNL     1      47.487   6.813  13.145  0.00  0.00    +0.000 A 
ATOM      2  C   UNL     1      46.738   5.703  13.556  0.00  0.00    +0.000 A 
ATOM      3  C   UNL     1      45.883   5.058  12.664  0.00  0.00    +0.000 A 
ATOM      4  C   UNL     1      45.727   5.542  11.359  0.00  0.00    +0.000 A 
ATOM      5  C   UNL     1      46.564   6.574  10.913  0.00  0.00    +0.000 A 
ATOM      6  C   UNL     1      47.451   7.194  11.797  0.00  0.00    +0.000 A 
ENDROOT
BRANCH   1   7
ATOM      7  C   UNL     1      48.272   7.603  14.157  0.00  0.00    +0.000 C 
BRANCH   7  10
ATOM      8  O   UNL     1      50.308   6.416  15.738  0.00  0.00    +0.000 OA
ATOM      9  C   UNL     1      49.180   6.552  16.202  0.00  0.00    +0.000 C 
ATOM     10  N   UNL     1      48.136   7.075  15.487  0.00  0.00    +0.000 N 
ATOM     11  H   UNL     1      47.270   7.309  15.957  0.00  0.00    +0.000 HD
BRANCH   9  12
ATOM     12  C   UNL     1      48.846   6.113  17.561  0.00  0.00    +0.000 A 
ATOM     13  C   UNL     1      49.063   4.800  17.953  0.00  0.00    +0.000 A 
ATOM     14  S   UNL     1      48.663   4.506  19.586  0.00  0.00    +0.000 S 
ATOM     15  C   UNL     1      48.204   6.129  19.827  0.00  0.00    +0.000 A 
ATOM     16  N   UNL     1      47.805   6.578  21.049  0.00  0.00    +0.000 NA
ATOM     17  C   UNL     1      47.532   7.838  21.092  0.00  0.00    +0.000 A 
ATOM     18  N   UNL     1      47.598   8.691  20.018  0.00  0.00    +0.000 N 
ATOM     19  C   UNL     1      47.907   8.267  18.755  0.00  0.00    +0.000 A 
ATOM     20  O   UNL     1      47.791   9.020  17.794  0.00  0.00    +0.000 OA
ATOM     21  C   UNL     1      48.305   6.871  18.668  0.00  0.00    +0.000 A 
ATOM     22  H   UNL     1      47.322   9.658  20.099  0.00  0.00    +0.000 HD
ENDBRANCH   9  12
ENDBRANCH   7  10
ENDBRANCH   1   7
BRANCH   4  23
ATOM     23  C   UNL     1      44.620   4.998  10.478  0.00  0.00    +0.000 C 
BRANCH  23  24
ATOM     24  N   UNL     1      44.907   3.642   9.927  0.00  0.00    +0.000 NA
BRANCH  24  25
ATOM     25  C   UNL     1      43.909   2.652  10.410  0.00  0.00    +0.000 C 
BRANCH  25  26
ATOM     26  C   UNL     1      43.128   3.056  11.677  0.00  0.00    +0.000 C 
BRANCH  26  27
ATOM     27  O   UNL     1      43.538   2.264  12.791  0.00  0.00    +0.000 OA
ATOM     28  H   UNL     1      43.631   2.863  13.552  0.00  0.00    +0.000 HD
ENDBRANCH  26  27
ENDBRANCH  25  26
ENDBRANCH  24  25
BRANCH  24  29
ATOM     29  C   UNL     1      44.921   3.689   8.450  0.00  0.00    +0.000 C 
BRANCH  29  30
ATOM     30  C   UNL     1      46.038   2.880   7.827  0.00  0.00    +0.000 A 
ATOM     31  C   UNL     1      46.944   3.472   6.942  0.00  0.00    +0.000 A 
ATOM     32  C   UNL     1      47.899   2.672   6.338  0.00  0.00    +0.000 A 
ATOM     33  N   UNL     1      48.018   1.344   6.558  0.00  0.00    +0.000 NA
ATOM     34  C   UNL     1      47.150   0.798   7.436  0.00  0.00    +0.000 A 
ATOM     35  C   UNL     1      46.167   1.516   8.099  0.00  0.00    +0.000 A 
ENDBRANCH  29  30
ENDBRANCH  24  29
ENDBRANCH  23  24
ENDBRANCH   4  23
TORSDOF 10
ENDMDL
MODEL 3
REMARK VINA RESULT:    -7.007      1.930      2.323
REMARK INTER + INTRA:         -12.690
REMARK INTER:                 -11.388
REMARK INTRA:                  -1.302
REMARK UNBOUND:                -1.791
REMARK  Name = 
REMARK  10 active torsions:
REMARK  status: ('A' for Active; 'I' for Inactive)
REMARK    1  A    between atoms: C_2  and  C_23
REMARK    2  A    between atoms: N_3  and  C_4
REMARK    3  A    between atoms: C_4  and  C_5
REMARK    4  A    between atoms: C_8  and  C_9
REMARK    5  A    between atoms: C_9  and  N_10
REMARK    6  A    between atoms: N_10  and  C_11
REMARK    7  A    between atoms: N_10  and  C_14
REMARK    8  A    between atoms: C_11  and  C_12
REMARK    9  A    between atoms: C_12  and  O_13
REMARK   10  A    between atoms: C_14  and  C_15
REMARK                            x       y       z     vdW  Elec       q    Type
REMARK                         _______ _______ _______ _____ _____    ______ ____
ROOT
ATOM      1  C   UNL     1      48.399   6.801  13.222  0.00  0.00    +0.000 A 
ATOM      2  C   UNL     1      47.437   5.900  13.695  0.00  0.00    +0.000 A 
ATOM      3  C   UNL     1      46.352   5.540  12.896  0.00  0.00    +0.000 A 
ATOM      4  C   UNL     1      46.188   6.113  11.628  0.00  0.00    +0.000 A 
ATOM      5  C   UNL     1      47.211   6.918  11.109  0.00  0.00    +0.000 A 
ATOM      6  C   UNL     1      48.318   7.246  11.895  0.00  0.00    +0.000 A 
ENDROOT
BRANCH   1   7
ATOM      7  C   UNL     1      49.466   7.312  14.151  0.00  0.00    +0.000 C 
BRANCH   7  10
ATOM      8  O   UNL     1      50.260   8.878  16.380  0.00  0.00    +0.000 OA
ATOM      9  C   UNL     1      49.538   7.901  16.551  0.00  0.00    +0.000 C 
ATOM     10  N   UNL     1      49.149   7.072  15.532  0.00  0.00    +0.000 N 
ATOM     11  H   UNL     1      48.434   6.375  15.695  0.00  0.00    +0.000 HD
BRANCH   9  12
ATOM     12  C   UNL     1      49.070   7.509  17.885  0.00  0.00    +0.000 A 
ATOM     13  C   UNL     1      48.439   8.428  18.710  0.00  0.00    +0.000 A 
ATOM     14  S   UNL     1      47.921   7.761  20.193  0.00  0.00    +0.000 S 
ATOM     15  C   UNL     1      48.505   6.218  19.772  0.00  0.00    +0.000 A 
ATOM     16  N   UNL     1      48.331   5.145  20.593  0.00  0.00    +0.000 NA
ATOM     17  C   UNL     1      48.786   4.033  20.124  0.00  0.00    +0.000 A 
ATOM     18  N   UNL     1      49.422   3.895  18.914  0.00  0.00    +0.000 N 
ATOM     19  C   UNL     1      49.697   4.958  18.098  0.00  0.00    +0.000 A 
ATOM     20  O   UNL     1      50.414   4.822  17.111  0.00  0.00    +0.000 OA
ATOM     21  C   UNL     1      49.132   6.222  18.542  0.00  0.00    +0.000 A 
ATOM     22  H   UNL     1      49.804   3.009  18.621  0.00  0.00    +0.000 HD
ENDBRANCH   9  12
ENDBRANCH   7  10
ENDBRANCH   1   7
BRANCH   4  23
ATOM     23  C   UNL     1      44.889   5.915  10.872  0.00  0.00    +0.000 C 
BRANCH  23  24
ATOM     24  N   UNL     1      44.516   4.482  10.691  0.00  0.00    +0.000 NA
BRANCH  24  25
ATOM     25  C   UNL     1      43.336   4.133  11.525  0.00  0.00    +0.000 C 
BRANCH  25  26
ATOM     26  C   UNL     1      42.477   5.323  11.998  0.00  0.00    +0.000 C 
BRANCH  26  27
ATOM     27  O   UNL     1      42.696   5.579  13.384  0.00  0.00    +0.000 OA
ATOM     28  H   UNL     1      41.988   6.176  13.683  0.00  0.00    +0.000 HD
ENDBRANCH  26  27
ENDBRANCH  25  26
ENDBRANCH  24  25
BRANCH  24  29
ATOM     29  C   UNL     1      44.245   4.206   9.264  0.00  0.00    +0.000 C 
BRANCH  29  30
ATOM     30  C   UNL     1      45.314   3.371   8.595  0.00  0.00    +0.000 A 
ATOM     31  C   UNL     1      46.230   3.953   7.713  0.00  0.00    +0.000 A 
ATOM     32  C   UNL     1      47.139   3.132   7.065  0.00  0.00    +0.000 A 
ATOM     33  N   UNL     1      47.201   1.794   7.238  0.00  0.00    +0.000 NA
ATOM     34  C   UNL     1      46.325   1.257   8.112  0.00  0.00    +0.000 A 
ATOM     35  C   UNL     1      45.387   1.993   8.818  0.00  0.00    +0.000 A 
ENDBRANCH  29  30
ENDBRANCH  24  29
ENDBRANCH  23  24
ENDBRANCH   4  23
TORSDOF 10
ENDMDL
MODEL 4
REMARK VINA RESULT:    -6.938      2.268      2.787
REMARK INTER + INTRA:         -12.581
REMARK INTER:                 -11.889
REMARK INTRA:                  -0.692
REMARK UNBOUND:                -1.791
REMARK  Name = 
REMARK  10 active torsions:
REMARK  status: ('A' for Active; 'I' for Inactive)
REMARK    1  A    between atoms: C_2  and  C_23
REMARK    2  A    between atoms: N_3  and  C_4
REMARK    3  A    between atoms: C_4  and  C_5
REMARK    4  A    between atoms: C_8  and  C_9
REMARK    5  A    between atoms: C_9  and  N_10
REMARK    6  A    between atoms: N_10  and  C_11
REMARK    7  A    between atoms: N_10  and  C_14
REMARK    8  A    between atoms: C_11  and  C_12
REMARK    9  A    between atoms: C_12  and  O_13
REMARK   10  A    between atoms: C_14  and  C_15
REMARK                            x       y       z     vdW  Elec       q    Type
REMARK                         _______ _______ _______ _____ _____    ______ ____
ROOT
ATOM      1  C   UNL     1      48.003   6.926  14.227  0.00  0.00    +0.000 A 
ATOM      2  C   UNL     1      47.392   5.674  14.082  0.00  0.00    +0.000 A 
ATOM      3  C   UNL     1      46.770   5.325  12.885  0.00  0.00    +0.000 A 
ATOM      4  C   UNL     1      46.708   6.241  11.827  0.00  0.00    +0.000 A 
ATOM      5  C   UNL     1      47.422   7.443  11.928  0.00  0.00    +0.000 A 
ATOM      6  C   UNL     1      48.079   7.776  13.114  0.00  0.00    +0.000 A 
ENDROOT
BRANCH   1   7
ATOM      7  C   UNL     1      48.517   7.357  15.573  0.00  0.00    +0.000 C 
BRANCH   7  10
ATOM      8  O   UNL     1      48.681   5.799  17.939  0.00  0.00    +0.000 OA
ATOM      9  C   UNL     1      49.621   5.807  17.150  0.00  0.00    +0.000 C 
ATOM     10  N   UNL     1      49.634   6.566  16.010  0.00  0.00    +0.000 N 
ATOM     11  H   UNL     1      50.358   6.423  15.318  0.00  0.00    +0.000 HD
BRANCH   9  12
ATOM     12  C   UNL     1      50.841   5.031  17.395  0.00  0.00    +0.000 A 
ATOM     13  C   UNL     1      52.033   5.669  17.708  0.00  0.00    +0.000 A 
ATOM     14  S   UNL     1      53.319   4.588  18.011  0.00  0.00    +0.000 S 
ATOM     15  C   UNL     1      52.320   3.233  17.754  0.00  0.00    +0.000 A 
ATOM     16  N   UNL     1      52.790   1.965  17.914  0.00  0.00    +0.000 NA
ATOM     17  C   UNL     1      51.910   1.041  17.729  0.00  0.00    +0.000 A 
ATOM     18  N   UNL     1      50.602   1.265  17.375  0.00  0.00    +0.000 N 
ATOM     19  C   UNL     1      50.110   2.514  17.116  0.00  0.00    +0.000 A 
ATOM     20  O   UNL     1      48.989   2.661  16.638  0.00  0.00    +0.000 OA
ATOM     21  C   UNL     1      51.039   3.598  17.391  0.00  0.00    +0.000 A 
ATOM     22  H   UNL     1      49.970   0.500  17.192  0.00  0.00    +0.000 HD
ENDBRANCH   9  12
ENDBRANCH   7  10
ENDBRANCH   1   7
BRANCH   4  23
ATOM     23  C   UNL     1      45.822   5.957  10.630  0.00  0.00    +0.000 C 
BRANCH  23  24
ATOM     24  N   UNL     1      45.131   4.636  10.700  0.00  0.00    +0.000 NA
BRANCH  24  25
ATOM     25  C   UNL     1      44.065   4.651  11.736  0.00  0.00    +0.000 C 
BRANCH  25  26
ATOM     26  C   UNL     1      43.207   3.374  11.828  0.00  0.00    +0.000 C 
BRANCH  26  27
ATOM     27  O   UNL     1      43.887   2.366  12.575  0.00  0.00    +0.000 OA
ATOM     28  H   UNL     1      44.344   1.792  11.936  0.00  0.00    +0.000 HD
ENDBRANCH  26  27
ENDBRANCH  25  26
ENDBRANCH  24  25
BRANCH  24  29
ATOM     29  C   UNL     1      44.568   4.290   9.378  0.00  0.00    +0.000 C 
BRANCH  29  30
ATOM     30  C   UNL     1      45.450   3.369   8.565  0.00  0.00    +0.000 A 
ATOM     31  C   UNL     1      45.445   1.988   8.791  0.00  0.00    +0.000 A 
ATOM     32  C   UNL     1      46.328   1.197   8.076  0.00  0.00    +0.000 A 
ATOM     33  N   UNL     1      47.197   1.677   7.160  0.00  0.00    +0.000 NA
ATOM     34  C   UNL     1      47.167   3.007   6.939  0.00  0.00    +0.000 A 
ATOM     35  C   UNL     1      46.314   3.881   7.594  0.00  0.00    +0.000 A 
ENDBRANCH  29  30
ENDBRANCH  24  29
ENDBRANCH  23  24
ENDBRANCH   4  23
TORSDOF 10
ENDMDL
MODEL 5
REMARK VINA RESULT:    -6.513      2.897      7.936
REMARK INTER + INTRA:         -11.921
REMARK INTER:                  -9.954
REMARK INTRA:                  -1.968
REMARK UNBOUND:                -1.791
REMARK  Name = 
REMARK  10 active torsions:
REMARK  status: ('A' for Active; 'I' for Inactive)
REMARK    1  A    between atoms: C_2  and  C_23
REMARK    2  A    between atoms: N_3  and  C_4
REMARK    3  A    between atoms: C_4  and  C_5
REMARK    4  A    between atoms: C_8  and  C_9
REMARK    5  A    between atoms: C_9  and  N_10
REMARK    6  A    between atoms: N_10  and  C_11
REMARK    7  A    between atoms: N_10  and  C_14
REMARK    8  A    between atoms: C_11  and  C_12
REMARK    9  A    between atoms: C_12  and  O_13
REMARK   10  A    between atoms: C_14  and  C_15
REMARK                            x       y       z     vdW  Elec       q    Type
REMARK                         _______ _______ _______ _____ _____    ______ ____
ROOT
ATOM      1  C   UNL     1      48.392   8.121  13.518  0.00  0.00    +0.000 A 
ATOM      2  C   UNL     1      47.836   8.922  14.523  0.00  0.00    +0.000 A 
ATOM      3  C   UNL     1      48.384   8.931  15.805  0.00  0.00    +0.000 A 
ATOM      4  C   UNL     1      49.470   8.103  16.115  0.00  0.00    +0.000 A 
ATOM      5  C   UNL     1      50.101   7.395  15.082  0.00  0.00    +0.000 A 
ATOM      6  C   UNL     1      49.574   7.418  13.788  0.00  0.00    +0.000 A 
ENDROOT
BRANCH   1   7
ATOM      7  C   UNL     1      47.692   7.988  12.193  0.00  0.00    +0.000 C 
BRANCH   7  10
ATOM      8  O   UNL     1      45.001   7.700  11.340  0.00  0.00    +0.000 OA
ATOM      9  C   UNL     1      45.657   6.703  11.630  0.00  0.00    +0.000 C 
ATOM     10  N   UNL     1      46.945   6.765  12.091  0.00  0.00    +0.000 N 
ATOM     11  H   UNL     1      47.493   5.918  12.169  0.00  0.00    +0.000 HD
BRANCH   9  12
ATOM     12  C   UNL     1      45.088   5.354  11.552  0.00  0.00    +0.000 A 
ATOM     13  C   UNL     1      44.472   4.783  12.656  0.00  0.00    +0.000 A 
ATOM     14  S   UNL     1      43.825   3.234  12.345  0.00  0.00    +0.000 S 
ATOM     15  C   UNL     1      44.330   3.285  10.719  0.00  0.00    +0.000 A 
ATOM     16  N   UNL     1      44.038   2.275   9.854  0.00  0.00    +0.000 NA
ATOM     17  C   UNL     1      44.444   2.471   8.646  0.00  0.00    +0.000 A 
ATOM     18  N   UNL     1      45.139   3.578   8.223  0.00  0.00    +0.000 N 
ATOM     19  C   UNL     1      45.531   4.574   9.074  0.00  0.00    +0.000 A 
ATOM     20  O   UNL     1      46.293   5.459   8.696  0.00  0.00    +0.000 OA
ATOM     21  C   UNL     1      45.026   4.442  10.431  0.00  0.00    +0.000 A 
ATOM     22  H   UNL     1      45.478   3.654   7.276  0.00  0.00    +0.000 HD
ENDBRANCH   9  12
ENDBRANCH   7  10
ENDBRANCH   1   7
BRANCH   4  23
ATOM     23  C   UNL     1      49.900   7.927  17.558  0.00  0.00    +0.000 C 
BRANCH  23  24
ATOM     24  N   UNL     1      49.841   6.513  18.031  0.00  0.00    +0.000 NA
BRANCH  24  25
ATOM     25  C   UNL     1      50.462   6.379  19.374  0.00  0.00    +0.000 C 
BRANCH  25  26
ATOM     26  C   UNL     1      51.025   4.984  19.713  0.00  0.00    +0.000 C 
BRANCH  26  27
ATOM     27  O   UNL     1      50.276   4.385  20.770  0.00  0.00    +0.000 OA
ATOM     28  H   UNL     1      50.030   5.095  21.388  0.00  0.00    +0.000 HD
ENDBRANCH  26  27
ENDBRANCH  25  26
ENDBRANCH  24  25
BRANCH  24  29
ATOM     29  C   UNL     1      48.439   6.046  18.055  0.00  0.00    +0.000 C 
BRANCH  29  30
ATOM     30  C   UNL     1      48.170   4.884  17.125  0.00  0.00    +0.000 A 
ATOM     31  C   UNL     1      48.695   3.616  17.394  0.00  0.00    +0.000 A 
ATOM     32  C   UNL     1      48.487   2.604  16.471  0.00  0.00    +0.000 A 
ATOM     33  N   UNL     1      47.796   2.764  15.321  0.00  0.00    +0.000 NA
ATOM     34  C   UNL     1      47.277   3.989  15.095  0.00  0.00    +0.000 A 
ATOM     35  C   UNL     1      47.419   5.062  15.961  0.00  0.00    +0.000 A 
ENDBRANCH  29  30
ENDBRANCH  24  29
ENDBRANCH  23  24
ENDBRANCH   4  23
TORSDOF 10
ENDMDL
MODEL 6
REMARK VINA RESULT:    -6.328      3.467      7.921
REMARK INTER + INTRA:         -11.634
REMARK INTER:                  -9.009
REMARK INTRA:                  -2.624
REMARK UNBOUND:                -1.791
REMARK  Name = 
REMARK  10 active torsions:
REMARK  status: ('A' for Active; 'I' for Inactive)
REMARK    1  A    between atoms: C_2  and  C_23
REMARK    2  A    between atoms: N_3  and  C_4
REMARK    3  A    between atoms: C_4  and  C_5
REMARK    4  A    between atoms: C_8  and  C_9
REMARK    5  A    between atoms: C_9  and  N_10
REMARK    6  A    between atoms: N_10  and  C_11
REMARK    7  A    between atoms: N_10  and  C_14
REMARK    8  A    between atoms: C_11  and  C_12
REMARK    9  A    between atoms: C_12  and  O_13
REMARK   10  A    between atoms: C_14  and  C_15
REMARK                            x       y       z     vdW  Elec       q    Type
REMARK                         _______ _______ _______ _____ _____    ______ ____
ROOT
ATOM      1  C   UNL     1      49.283   8.805  15.642  0.00  0.00    +0.000 A 
ATOM      2  C   UNL     1      49.480   8.925  17.023  0.00  0.00    +0.000 A 
ATOM      3  C   UNL     1      50.482   8.196  17.660  0.00  0.00    +0.000 A 
ATOM      4  C   UNL     1      51.274   7.299  16.933  0.00  0.00    +0.000 A 
ATOM      5  C   UNL     1      51.159   7.268  15.536  0.00  0.00    +0.000 A 
ATOM      6  C   UNL     1      50.180   8.030  14.894  0.00  0.00    +0.000 A 
ENDROOT
BRANCH   1   7
ATOM      7  C   UNL     1      48.093   9.461  14.995  0.00  0.00    +0.000 C 
BRANCH   7  10
ATOM      8  O   UNL     1      47.674   9.033  12.222  0.00  0.00    +0.000 OA
ATOM      9  C   UNL     1      47.086   8.332  13.040  0.00  0.00    +0.000 C 
ATOM     10  N   UNL     1      47.203   8.507  14.394  0.00  0.00    +0.000 N 
ATOM     11  H   UNL     1      46.824   7.813  15.026  0.00  0.00    +0.000 HD
BRANCH   9  12
ATOM     12  C   UNL     1      46.160   7.272  12.627  0.00  0.00    +0.000 A 
ATOM     13  C   UNL     1      45.080   7.558  11.806  0.00  0.00    +0.000 A 
ATOM     14  S   UNL     1      44.159   6.181  11.394  0.00  0.00    +0.000 S 
ATOM     15  C   UNL     1      45.187   5.155  12.285  0.00  0.00    +0.000 A 
ATOM     16  N   UNL     1      44.996   3.807  12.308  0.00  0.00    +0.000 NA
ATOM     17  C   UNL     1      45.877   3.154  12.986  0.00  0.00    +0.000 A 
ATOM     18  N   UNL     1      46.924   3.726  13.666  0.00  0.00    +0.000 N 
ATOM     19  C   UNL     1      47.103   5.079  13.744  0.00  0.00    +0.000 A 
ATOM     20  O   UNL     1      47.945   5.559  14.497  0.00  0.00    +0.000 OA
ATOM     21  C   UNL     1      46.185   5.858  12.928  0.00  0.00    +0.000 A 
ATOM     22  H   UNL     1      47.553   3.169  14.224  0.00  0.00    +0.000 HD
ENDBRANCH   9  12
ENDBRANCH   7  10
ENDBRANCH   1   7
BRANCH   4  23
ATOM     23  C   UNL     1      52.185   6.331  17.662  0.00  0.00    +0.000 C 
BRANCH  23  24
ATOM     24  N   UNL     1      51.739   4.910  17.575  0.00  0.00    +0.000 NA
BRANCH  24  25
ATOM     25  C   UNL     1      52.898   3.985  17.668  0.00  0.00    +0.000 C 
BRANCH  25  26
ATOM     26  C   UNL     1      52.953   3.108  18.935  0.00  0.00    +0.000 C 
BRANCH  26  27
ATOM     27  O   UNL     1      52.734   1.737  18.605  0.00  0.00    +0.000 OA
ATOM     28  H   UNL     1      52.250   1.335  19.347  0.00  0.00    +0.000 HD
ENDBRANCH  26  27
ENDBRANCH  25  26
ENDBRANCH  24  25
BRANCH  24  29
ATOM     29  C   UNL     1      50.755   4.622  18.639  0.00  0.00    +0.000 C 
BRANCH  29  30
ATOM     30  C   UNL     1      49.403   4.191  18.116  0.00  0.00    +0.000 A 
ATOM     31  C   UNL     1      49.261   3.001  17.394  0.00  0.00    +0.000 A 
ATOM     32  C   UNL     1      48.018   2.690  16.868  0.00  0.00    +0.000 A 
ATOM     33  N   UNL     1      46.922   3.467  17.017  0.00  0.00    +0.000 NA
ATOM     34  C   UNL     1      47.076   4.597  17.738  0.00  0.00    +0.000 A 
ATOM     35  C   UNL     1      48.274   4.989  18.314  0.00  0.00    +0.000 A 
ENDBRANCH  29  30
ENDBRANCH  24  29
ENDBRANCH  23  24
ENDBRANCH   4  23
TORSDOF 10
ENDMDL
MODEL 7
REMARK VINA RESULT:    -6.325      3.575      5.339
REMARK INTER + INTRA:         -11.628
REMARK INTER:                 -10.242
REMARK INTRA:                  -1.386
REMARK UNBOUND:                -1.791
REMARK  Name = 
REMARK  10 active torsions:
REMARK  status: ('A' for Active; 'I' for Inactive)
REMARK    1  A    between atoms: C_2  and  C_23
REMARK    2  A    between atoms: N_3  and  C_4
REMARK    3  A    between atoms: C_4  and  C_5
REMARK    4  A    between atoms: C_8  and  C_9
REMARK    5  A    between atoms: C_9  and  N_10
REMARK    6  A    between atoms: N_10  and  C_11
REMARK    7  A    between atoms: N_10  and  C_14
REMARK    8  A    between atoms: C_11  and  C_12
REMARK    9  A    between atoms: C_12  and  O_13
REMARK   10  A    between atoms: C_14  and  C_15
REMARK                            x       y       z     vdW  Elec       q    Type
REMARK                         _______ _______ _______ _____ _____    ______ ____
ROOT
ATOM      1  C   UNL     1      48.121   4.928  16.307  0.00  0.00    +0.000 A 
ATOM      2  C   UNL     1      48.705   6.144  15.932  0.00  0.00    +0.000 A 
ATOM      3  C   UNL     1      48.432   6.705  14.686  0.00  0.00    +0.000 A 
ATOM      4  C   UNL     1      47.607   6.034  13.774  0.00  0.00    +0.000 A 
ATOM      5  C   UNL     1      46.928   4.882  14.194  0.00  0.00    +0.000 A 
ATOM      6  C   UNL     1      47.171   4.342  15.459  0.00  0.00    +0.000 A 
ENDROOT
BRANCH   1   7
ATOM      7  C   UNL     1      48.555   4.249  17.578  0.00  0.00    +0.000 C 
BRANCH   7  10
ATOM      8  O   UNL     1      50.437   4.812  19.626  0.00  0.00    +0.000 OA
ATOM      9  C   UNL     1      50.794   4.199  18.624  0.00  0.00    +0.000 C 
ATOM     10  N   UNL     1      49.956   3.929  17.575  0.00  0.00    +0.000 N 
ATOM     11  H   UNL     1      50.251   3.292  16.846  0.00  0.00    +0.000 HD
BRANCH   9  12
ATOM     12  C   UNL     1      52.178   3.747  18.447  0.00  0.00    +0.000 A 
ATOM     13  C   UNL     1      53.240   4.584  18.757  0.00  0.00    +0.000 A 
ATOM     14  S   UNL     1      54.766   3.852  18.536  0.00  0.00    +0.000 S 
ATOM     15  C   UNL     1      54.056   2.386  18.037  0.00  0.00    +0.000 A 
ATOM     16  N   UNL     1      54.815   1.294  17.745  0.00  0.00    +0.000 NA
ATOM     17  C   UNL     1      54.140   0.243  17.425  0.00  0.00    +0.000 A 
ATOM     18  N   UNL     1      52.770   0.186  17.347  0.00  0.00    +0.000 N 
ATOM     19  C   UNL     1      51.973   1.279  17.545  0.00  0.00    +0.000 A 
ATOM     20  O   UNL     1      50.771   1.232  17.301  0.00  0.00    +0.000 OA
ATOM     21  C   UNL     1      52.679   2.470  17.989  0.00  0.00    +0.000 A 
ATOM     22  H   UNL     1      52.297  -0.650  17.040  0.00  0.00    +0.000 HD
ENDBRANCH   9  12
ENDBRANCH   7  10
ENDBRANCH   1   7
BRANCH   4  23
ATOM     23  C   UNL     1      47.514   6.516  12.340  0.00  0.00    +0.000 C 
BRANCH  23  24
ATOM     24  N   UNL     1      46.126   6.862  11.915  0.00  0.00    +0.000 NA
BRANCH  24  25
ATOM     25  C   UNL     1      45.977   8.330  11.737  0.00  0.00    +0.000 C 
BRANCH  25  26
ATOM     26  C   UNL     1      45.591   9.120  13.003  0.00  0.00    +0.000 C 
BRANCH  26  27
ATOM     27  O   UNL     1      44.366   9.822  12.801  0.00  0.00    +0.000 OA
ATOM     28  H   UNL     1      44.450  10.319  11.969  0.00  0.00    +0.000 HD
ENDBRANCH  26  27
ENDBRANCH  25  26
ENDBRANCH  24  25
BRANCH  24  29
ATOM     29  C   UNL     1      45.787   6.148  10.666  0.00  0.00    +0.000 C 
BRANCH  29  30
ATOM     30  C   UNL     1      44.863   4.968  10.873  0.00  0.00    +0.000 A 
ATOM     31  C   UNL     1      44.008   4.913  11.979  0.00  0.00    +0.000 A 
ATOM     32  C   UNL     1      43.240   3.776  12.166  0.00  0.00    +0.000 A 
ATOM     33  N   UNL     1      43.259   2.710  11.336  0.00  0.00    +0.000 NA
ATOM     34  C   UNL     1      44.071   2.795  10.262  0.00  0.00    +0.000 A 
ATOM     35  C   UNL     1      44.869   3.893   9.981  0.00  0.00    +0.000 A 
ENDBRANCH  29  30
ENDBRANCH  24  29
ENDBRANCH  23  24
ENDBRANCH   4  23
TORSDOF 10
ENDMDL
MODEL 8
REMARK VINA RESULT:    -6.275      3.372      8.044
REMARK INTER + INTRA:         -11.551
REMARK INTER:                 -10.228
REMARK INTRA:                  -1.323
REMARK UNBOUND:                -1.791
REMARK  Name = 
REMARK  10 active torsions:
REMARK  status: ('A' for Active; 'I' for Inactive)
REMARK    1  A    between atoms: C_2  and  C_23
REMARK    2  A    between atoms: N_3  and  C_4
REMARK    3  A    between atoms: C_4  and  C_5
REMARK    4  A    between atoms: C_8  and  C_9
REMARK    5  A    between atoms: C_9  and  N_10
REMARK    6  A    between atoms: N_10  and  C_11
REMARK    7  A    between atoms: N_10  and  C_14
REMARK    8  A    between atoms: C_11  and  C_12
REMARK    9  A    between atoms: C_12  and  O_13
REMARK   10  A    between atoms: C_14  and  C_15
REMARK                            x       y       z     vdW  Elec       q    Type
REMARK                         _______ _______ _______ _____ _____    ______ ____
ROOT
ATOM      1  C   UNL     1      49.085   8.202  14.915  0.00  0.00    +0.000 A 
ATOM      2  C   UNL     1      48.277   8.921  15.805  0.00  0.00    +0.000 A 
ATOM      3  C   UNL     1      48.306   8.642  17.170  0.00  0.00    +0.000 A 
ATOM      4  C   UNL     1      49.111   7.606  17.663  0.00  0.00    +0.000 A 
ATOM      5  C   UNL     1      50.007   6.970  16.792  0.00  0.00    +0.000 A 
ATOM      6  C   UNL     1      50.005   7.279  15.430  0.00  0.00    +0.000 A 
ENDROOT
BRANCH   1   7
ATOM      7  C   UNL     1      48.919   8.392  13.432  0.00  0.00    +0.000 C 
BRANCH   7  10
ATOM      8  O   UNL     1      48.227   5.688  12.918  0.00  0.00    +0.000 OA
ATOM      9  C   UNL     1      47.386   6.569  12.770  0.00  0.00    +0.000 C 
ATOM     10  N   UNL     1      47.656   7.899  12.956  0.00  0.00    +0.000 N 
ATOM     11  H   UNL     1      46.897   8.569  12.973  0.00  0.00    +0.000 HD
BRANCH   9  12
ATOM     12  C   UNL     1      46.020   6.268  12.328  0.00  0.00    +0.000 A 
ATOM     13  C   UNL     1      45.229   7.253  11.755  0.00  0.00    +0.000 A 
ATOM     14  S   UNL     1      43.698   6.687  11.257  0.00  0.00    +0.000 S 
ATOM     15  C   UNL     1      44.050   5.102  11.772  0.00  0.00    +0.000 A 
ATOM     16  N   UNL     1      43.168   4.082  11.584  0.00  0.00    +0.000 NA
ATOM     17  C   UNL     1      43.588   2.930  11.983  0.00  0.00    +0.000 A 
ATOM     18  N   UNL     1      44.805   2.704  12.578  0.00  0.00    +0.000 N 
ATOM     19  C   UNL     1      45.685   3.710  12.867  0.00  0.00    +0.000 A 
ATOM     20  O   UNL     1      46.682   3.494  13.549  0.00  0.00    +0.000 OA
ATOM     21  C   UNL     1      45.295   5.017  12.362  0.00  0.00    +0.000 A 
ATOM     22  H   UNL     1      45.059   1.789  12.918  0.00  0.00    +0.000 HD
ENDBRANCH   9  12
ENDBRANCH   7  10
ENDBRANCH   1   7
BRANCH   4  23
ATOM     23  C   UNL     1      48.953   7.143  19.097  0.00  0.00    +0.000 C 
BRANCH  23  24
ATOM     24  N   UNL     1      49.791   5.955  19.436  0.00  0.00    +0.000 NA
BRANCH  24  25
ATOM     25  C   UNL     1      50.526   6.173  20.709  0.00  0.00    +0.000 C 
BRANCH  25  26
ATOM     26  C   UNL     1      50.669   4.936  21.618  0.00  0.00    +0.000 C 
BRANCH  26  27
ATOM     27  O   UNL     1      51.868   4.226  21.312  0.00  0.00    +0.000 OA
ATOM     28  H   UNL     1      52.371   4.766  20.679  0.00  0.00    +0.000 HD
ENDBRANCH  26  27
ENDBRANCH  25  26
ENDBRANCH  24  25
BRANCH  24  29
ATOM     29  C   UNL     1      48.944   4.747  19.523  0.00  0.00    +0.000 C 
BRANCH  29  30
ATOM     30  C   UNL     1      49.087   3.819  18.337  0.00  0.00    +0.000 A 
ATOM     31  C   UNL     1      47.991   3.530  17.518  0.00  0.00    +0.000 A 
ATOM     32  C   UNL     1      48.154   2.613  16.492  0.00  0.00    +0.000 A 
ATOM     33  N   UNL     1      49.318   1.981  16.226  0.00  0.00    +0.000 NA
ATOM     34  C   UNL     1      50.369   2.294  17.012  0.00  0.00    +0.000 A 
ATOM     35  C   UNL     1      50.310   3.206  18.055  0.00  0.00    +0.000 A 
ENDBRANCH  29  30
ENDBRANCH  24  29
ENDBRANCH  23  24
ENDBRANCH   4  23
TORSDOF 10
ENDMDL
MODEL 9
REMARK VINA RESULT:    -6.149      3.520      8.117
REMARK INTER + INTRA:         -11.354
REMARK INTER:                  -9.307
REMARK INTRA:                  -2.047
REMARK UNBOUND:                -1.791
REMARK  Name = 
REMARK  10 active torsions:
REMARK  status: ('A' for Active; 'I' for Inactive)
REMARK    1  A    between atoms: C_2  and  C_23
REMARK    2  A    between atoms: N_3  and  C_4
REMARK    3  A    between atoms: C_4  and  C_5
REMARK    4  A    between atoms: C_8  and  C_9
REMARK    5  A    between atoms: C_9  and  N_10
REMARK    6  A    between atoms: N_10  and  C_11
REMARK    7  A    between atoms: N_10  and  C_14
REMARK    8  A    between atoms: C_11  and  C_12
REMARK    9  A    between atoms: C_12  and  O_13
REMARK   10  A    between atoms: C_14  and  C_15
REMARK                            x       y       z     vdW  Elec       q    Type
REMARK                         _______ _______ _______ _____ _____    ______ ____
ROOT
ATOM      1  C   UNL     1      49.113   8.439  15.410  0.00  0.00    +0.000 A 
ATOM      2  C   UNL     1      49.128   8.991  16.697  0.00  0.00    +0.000 A 
ATOM      3  C   UNL     1      49.985   8.487  17.673  0.00  0.00    +0.000 A 
ATOM      4  C   UNL     1      50.808   7.389  17.392  0.00  0.00    +0.000 A 
ATOM      5  C   UNL     1      50.882   6.915  16.074  0.00  0.00    +0.000 A 
ATOM      6  C   UNL     1      50.051   7.449  15.086  0.00  0.00    +0.000 A 
ENDROOT
BRANCH   1   7
ATOM      7  C   UNL     1      48.067   8.875  14.420  0.00  0.00    +0.000 C 
BRANCH   7  10
ATOM      8  O   UNL     1      48.207   7.400  12.000  0.00  0.00    +0.000 OA
ATOM      9  C   UNL     1      47.369   7.102  12.845  0.00  0.00    +0.000 C 
ATOM     10  N   UNL     1      47.211   7.793  14.017  0.00  0.00    +0.000 N 
ATOM     11  H   UNL     1      46.616   7.420  14.746  0.00  0.00    +0.000 HD
BRANCH   9  12
ATOM     12  C   UNL     1      46.424   5.999  12.642  0.00  0.00    +0.000 A 
ATOM     13  C   UNL     1      46.764   4.702  12.999  0.00  0.00    +0.000 A 
ATOM     14  S   UNL     1      45.509   3.576  12.735  0.00  0.00    +0.000 S 
ATOM     15  C   UNL     1      44.463   4.788  12.155  0.00  0.00    +0.000 A 
ATOM     16  N   UNL     1      43.178   4.507  11.801  0.00  0.00    +0.000 NA
ATOM     17  C   UNL     1      42.491   5.530  11.423  0.00  0.00    +0.000 A 
ATOM     18  N   UNL     1      42.975   6.813  11.343  0.00  0.00    +0.000 N 
ATOM     19  C   UNL     1      44.280   7.127  11.603  0.00  0.00    +0.000 A 
ATOM     20  O   UNL     1      44.717   8.248  11.357  0.00  0.00    +0.000 OA
ATOM     21  C   UNL     1      45.078   6.023  12.113  0.00  0.00    +0.000 A 
ATOM     22  H   UNL     1      42.406   7.567  10.990  0.00  0.00    +0.000 HD
ENDBRANCH   9  12
ENDBRANCH   7  10
ENDBRANCH   1   7
BRANCH   4  23
ATOM     23  C   UNL     1      51.547   6.689  18.515  0.00  0.00    +0.000 C 
BRANCH  23  24
ATOM     24  N   UNL     1      51.551   5.202  18.392  0.00  0.00    +0.000 NA
BRANCH  24  25
ATOM     25  C   UNL     1      52.759   4.621  19.034  0.00  0.00    +0.000 C 
BRANCH  25  26
ATOM     26  C   UNL     1      53.352   3.380  18.339  0.00  0.00    +0.000 C 
BRANCH  26  27
ATOM     27  O   UNL     1      52.833   2.185  18.920  0.00  0.00    +0.000 OA
ATOM     28  H   UNL     1      53.550   1.527  18.919  0.00  0.00    +0.000 HD
ENDBRANCH  26  27
ENDBRANCH  25  26
ENDBRANCH  24  25
BRANCH  24  29
ATOM     29  C   UNL     1      50.322   4.642  18.991  0.00  0.00    +0.000 C 
BRANCH  29  30
ATOM     30  C   UNL     1      49.358   4.067  17.976  0.00  0.00    +0.000 A 
ATOM     31  C   UNL     1      49.590   2.815  17.398  0.00  0.00    +0.000 A 
ATOM     32  C   UNL     1      48.722   2.368  16.416  0.00  0.00    +0.000 A 
ATOM     33  N   UNL     1      47.651   3.069  15.982  0.00  0.00    +0.000 NA
ATOM     34  C   UNL     1      47.432   4.262  16.572  0.00  0.00    +0.000 A 
ATOM     35  C   UNL     1      48.235   4.791  17.570  0.00  0.00    +0.000 A 
ENDBRANCH  29  30
ENDBRANCH  24  29
ENDBRANCH  23  24
ENDBRANCH   4  23
TORSDOF 10
ENDMDL
