MODEL 1
REMARK VINA RESULT:    -7.832      0.000      0.000
REMARK INTER + INTRA:         -12.403
REMARK INTER:                 -11.037
REMARK INTRA:                  -1.365
REMARK UNBOUND:                -1.365
REMARK  Name = 
REMARK  9 active torsions:
REMARK  status: ('A' for Active; 'I' for Inactive)
REMARK    1  A    between atoms: C_1  and  C_2
REMARK    2  A    between atoms: C_2  and  N_3
REMARK    3  A    between atoms: C_2  and  C_26
REMARK    4  A    between atoms: N_3  and  C_4
REMARK    5  A    between atoms: C_4  and  C_5
REMARK    6  A    between atoms: C_8  and  C_9
REMARK    7  A    between atoms: C_9  and  N_10
REMARK    8  A    between atoms: N_10  and  C_11
REMARK    9  A    between atoms: C_12  and  C_14
REMARK                            x       y       z     vdW  Elec       q    Type
REMARK                         _______ _______ _______ _____ _____    ______ ____
ROOT
ATOM      1  C   UNL     1      44.964   6.698  11.779  0.00  0.00    +0.000 A 
ATOM      2  C   UNL     1      46.238   6.438  11.282  0.00  0.00    +0.000 A 
ATOM      3  C   UNL     1      47.318   7.186  11.751  0.00  0.00    +0.000 A 
ATOM      4  C   UNL     1      47.115   8.191  12.701  0.00  0.00    +0.000 A 
ATOM      5  C   UNL     1      45.800   8.430  13.085  0.00  0.00    +0.000 A 
ATOM      6  N   UNL     1      44.732   7.716  12.648  0.00  0.00    +0.000 NA
ENDROOT
BRANCH   1   7
ATOM      7  C   UNL     1      43.791   5.799  11.390  0.00  0.00    +0.000 C 
BRANCH   7   8
ATOM      8  N   UNL     1      43.955   5.225  10.044  0.00  0.00    +0.000 NA
ATOM      9  H   UNL     1      43.177   5.521   9.461  0.00  0.00    +0.000 HD
BRANCH   8  11
ATOM     10  C   UNL     1      44.311   3.119  11.360  0.00  0.00    +0.000 C 
ATOM     11  C   UNL     1      44.019   3.759   9.999  0.00  0.00    +0.000 C 
BRANCH  11  12
ATOM     12  C   UNL     1      45.096   3.308   9.010  0.00  0.00    +0.000 A 
ATOM     13  C   UNL     1      45.757   4.251   8.204  0.00  0.00    +0.000 A 
ATOM     14  C   UNL     1      46.711   3.847   7.265  0.00  0.00    +0.000 A 
ATOM     15  C   UNL     1      47.023   2.496   7.120  0.00  0.00    +0.000 A 
ATOM     16  C   UNL     1      46.374   1.551   7.910  0.00  0.00    +0.000 A 
ATOM     17 CL   UNL     1      46.756  -0.117   7.733  0.00  0.00    +0.000 Cl
ATOM     18  C   UNL     1      45.414   1.947   8.841  0.00  0.00    +0.000 A 
ENDBRANCH  11  12
ENDBRANCH   8  11
ENDBRANCH   7   8
ENDBRANCH   1   7
BRANCH   4  19
ATOM     19  C   UNL     1      48.268   8.893  13.377  0.00  0.00    +0.000 C 
BRANCH  19  20
ATOM     20  N   UNL     1      48.626   8.417  14.717  0.00  0.00    +0.000 N 
ATOM     21  C   UNL     1      48.146   9.203  15.846  0.00  0.00    +0.000 C 
ATOM     22  C   UNL     1      49.627   7.430  14.809  0.00  0.00    +0.000 C 
ATOM     23  O   UNL     1      50.124   6.935  13.799  0.00  0.00    +0.000 OA
BRANCH  22  24
ATOM     24  C   UNL     1      50.058   6.949  16.134  0.00  0.00    +0.000 A 
ATOM     25  C   UNL     1      51.065   7.538  16.885  0.00  0.00    +0.000 A 
ATOM     26  S   UNL     1      51.325   6.790  18.395  0.00  0.00    +0.000 S 
ATOM     27  C   UNL     1      50.007   5.738  18.162  0.00  0.00    +0.000 A 
ATOM     28  N   UNL     1      49.625   4.876  19.139  0.00  0.00    +0.000 NA
ATOM     29  C   UNL     1      48.574   4.181  18.852  0.00  0.00    +0.000 A 
ATOM     30  N   UNL     1      47.894   4.251  17.663  0.00  0.00    +0.000 N 
ATOM     31  C   UNL     1      48.321   5.012  16.596  0.00  0.00    +0.000 A 
ATOM     32  O   UNL     1      47.822   4.874  15.487  0.00  0.00    +0.000 OA
ATOM     33  C   UNL     1      49.433   5.897  16.912  0.00  0.00    +0.000 A 
ATOM     34  H   UNL     1      47.116   3.637  17.478  0.00  0.00    +0.000 HD
ENDBRANCH  22  24
ENDBRANCH  19  20
ENDBRANCH   4  19
TORSDOF 7
ENDMDL
MODEL 2
REMARK VINA RESULT:    -7.512      2.000      2.617
REMARK INTER + INTRA:         -11.951
REMARK INTER:                 -11.092
REMARK INTRA:                  -0.859
REMARK UNBOUND:                -1.365
REMARK  Name = 
REMARK  9 active torsions:
REMARK  status: ('A' for Active; 'I' for Inactive)
REMARK    1  A    between atoms: C_1  and  C_2
REMARK    2  A    between atoms: C_2  and  N_3
REMARK    3  A    between atoms: C_2  and  C_26
REMARK    4  A    between atoms: N_3  and  C_4
REMARK    5  A    between atoms: C_4  and  C_5
REMARK    6  A    between atoms: C_8  and  C_9
REMARK    7  A    between atoms: C_9  and  N_10
REMARK    8  A    between atoms: N_10  and  C_11
REMARK    9  A    between atoms: C_12  and  C_14
REMARK                            x       y       z     vdW  Elec       q    Type
REMARK                         _______ _______ _______ _____ _____    ______ ____
ROOT
ATOM      1  C   UNL     1      45.451   5.889  12.087  0.00  0.00    +0.000 A 
ATOM      2  C   UNL     1      45.969   7.173  12.235  0.00  0.00    +0.000 A 
ATOM      3  C   UNL     1      47.036   7.380  13.110  0.00  0.00    +0.000 A 
ATOM      4  C   UNL     1      47.565   6.310  13.837  0.00  0.00    +0.000 A 
ATOM      5  C   UNL     1      46.937   5.078  13.681  0.00  0.00    +0.000 A 
ATOM      6  N   UNL     1      45.901   4.848  12.834  0.00  0.00    +0.000 NA
ENDROOT
BRANCH   1   7
ATOM      7  C   UNL     1      44.383   5.611  11.030  0.00  0.00    +0.000 C 
BRANCH   7   8
ATOM      8  N   UNL     1      44.967   5.145   9.762  0.00  0.00    +0.000 NA
ATOM      9  H   UNL     1      44.773   5.830   9.036  0.00  0.00    +0.000 HD
BRANCH   8  11
ATOM     10  C   UNL     1      44.052   2.907  10.431  0.00  0.00    +0.000 C 
ATOM     11  C   UNL     1      44.474   3.842   9.294  0.00  0.00    +0.000 C 
BRANCH  11  12
ATOM     12  C   UNL     1      45.548   3.140   8.460  0.00  0.00    +0.000 A 
ATOM     13  C   UNL     1      46.390   3.886   7.617  0.00  0.00    +0.000 A 
ATOM     14  C   UNL     1      47.345   3.252   6.817  0.00  0.00    +0.000 A 
ATOM     15  C   UNL     1      47.477   1.864   6.850  0.00  0.00    +0.000 A 
ATOM     16  C   UNL     1      46.647   1.113   7.679  0.00  0.00    +0.000 A 
ATOM     17 CL   UNL     1      46.806  -0.600   7.721  0.00  0.00    +0.000 Cl
ATOM     18  C   UNL     1      45.685   1.739   8.471  0.00  0.00    +0.000 A 
ENDBRANCH  11  12
ENDBRANCH   8  11
ENDBRANCH   7   8
ENDBRANCH   1   7
BRANCH   4  19
ATOM     19  C   UNL     1      48.832   6.445  14.646  0.00  0.00    +0.000 C 
BRANCH  19  20
ATOM     20  N   UNL     1      48.666   6.657  16.087  0.00  0.00    +0.000 N 
ATOM     21  C   UNL     1      48.845   8.017  16.579  0.00  0.00    +0.000 C 
ATOM     22  C   UNL     1      48.637   5.515  16.912  0.00  0.00    +0.000 C 
ATOM     23  O   UNL     1      48.673   4.384  16.431  0.00  0.00    +0.000 OA
BRANCH  22  24
ATOM     24  C   UNL     1      48.519   5.672  18.373  0.00  0.00    +0.000 A 
ATOM     25  C   UNL     1      47.342   6.006  19.026  0.00  0.00    +0.000 A 
ATOM     26  S   UNL     1      47.494   6.084  20.723  0.00  0.00    +0.000 S 
ATOM     27  C   UNL     1      49.104   5.537  20.658  0.00  0.00    +0.000 A 
ATOM     28  N   UNL     1      49.805   5.299  21.797  0.00  0.00    +0.000 NA
ATOM     29  C   UNL     1      50.992   4.830  21.601  0.00  0.00    +0.000 A 
ATOM     30  N   UNL     1      51.549   4.608  20.369  0.00  0.00    +0.000 N 
ATOM     31  C   UNL     1      50.928   4.957  19.188  0.00  0.00    +0.000 A 
ATOM     32  O   UNL     1      51.544   4.954  18.131  0.00  0.00    +0.000 OA
ATOM     33  C   UNL     1      49.545   5.382  19.355  0.00  0.00    +0.000 A 
ATOM     34  H   UNL     1      52.505   4.296  20.284  0.00  0.00    +0.000 HD
ENDBRANCH  22  24
ENDBRANCH  19  20
ENDBRANCH   4  19
TORSDOF 7
ENDMDL
MODEL 3
REMARK VINA RESULT:    -7.353      2.571      3.209
REMARK INTER + INTRA:         -11.727
REMARK INTER:                 -10.817
REMARK INTRA:                  -0.910
REMARK UNBOUND:                -1.365
REMARK  Name = 
REMARK  9 active torsions:
REMARK  status: ('A' for Active; 'I' for Inactive)
REMARK    1  A    between atoms: C_1  and  C_2
REMARK    2  A    between atoms: C_2  and  N_3
REMARK    3  A    between atoms: C_2  and  C_26
REMARK    4  A    between atoms: N_3  and  C_4
REMARK    5  A    between atoms: C_4  and  C_5
REMARK    6  A    between atoms: C_8  and  C_9
REMARK    7  A    between atoms: C_9  and  N_10
REMARK    8  A    between atoms: N_10  and  C_11
REMARK    9  A    between atoms: C_12  and  C_14
REMARK                            x       y       z     vdW  Elec       q    Type
REMARK                         _______ _______ _______ _____ _____    ______ ____
ROOT
ATOM      1  C   UNL     1      46.753   5.801  12.988  0.00  0.00    +0.000 A 
ATOM      2  C   UNL     1      46.916   4.853  13.994  0.00  0.00    +0.000 A 
ATOM      3  C   UNL     1      47.650   5.186  15.132  0.00  0.00    +0.000 A 
ATOM      4  C   UNL     1      48.224   6.456  15.250  0.00  0.00    +0.000 A 
ATOM      5  C   UNL     1      48.072   7.312  14.164  0.00  0.00    +0.000 A 
ATOM      6  N   UNL     1      47.360   7.015  13.047  0.00  0.00    +0.000 NA
ENDROOT
BRANCH   1   7
ATOM      7  C   UNL     1      45.834   5.511  11.802  0.00  0.00    +0.000 C 
BRANCH   7   8
ATOM      8  N   UNL     1      45.353   4.120  11.802  0.00  0.00    +0.000 NA
ATOM      9  H   UNL     1      46.151   3.493  11.742  0.00  0.00    +0.000 HD
BRANCH   8  11
ATOM     10  C   UNL     1      43.467   2.643  11.056  0.00  0.00    +0.000 C 
ATOM     11  C   UNL     1      44.431   3.782  10.709  0.00  0.00    +0.000 C 
BRANCH  11  12
ATOM     12  C   UNL     1      45.219   3.387   9.458  0.00  0.00    +0.000 A 
ATOM     13  C   UNL     1      45.590   4.363   8.517  0.00  0.00    +0.000 A 
ATOM     14  C   UNL     1      46.271   4.009   7.349  0.00  0.00    +0.000 A 
ATOM     15  C   UNL     1      46.596   2.675   7.104  0.00  0.00    +0.000 A 
ATOM     16  C   UNL     1      46.232   1.697   8.027  0.00  0.00    +0.000 A 
ATOM     17 CL   UNL     1      46.630   0.051   7.727  0.00  0.00    +0.000 Cl
ATOM     18  C   UNL     1      45.543   2.044   9.189  0.00  0.00    +0.000 A 
ENDBRANCH  11  12
ENDBRANCH   8  11
ENDBRANCH   7   8
ENDBRANCH   1   7
BRANCH   4  19
ATOM     19  C   UNL     1      48.861   6.926  16.535  0.00  0.00    +0.000 C 
BRANCH  19  20
ATOM     20  N   UNL     1      50.126   6.285  16.908  0.00  0.00    +0.000 N 
ATOM     21  C   UNL     1      51.286   6.582  16.077  0.00  0.00    +0.000 C 
ATOM     22  C   UNL     1      50.068   5.227  17.837  0.00  0.00    +0.000 C 
ATOM     23  O   UNL     1      49.007   4.908  18.369  0.00  0.00    +0.000 OA
BRANCH  22  24
ATOM     24  C   UNL     1      51.305   4.517  18.212  0.00  0.00    +0.000 A 
ATOM     25  C   UNL     1      52.296   5.055  19.017  0.00  0.00    +0.000 A 
ATOM     26  S   UNL     1      53.596   3.992  19.312  0.00  0.00    +0.000 S 
ATOM     27  C   UNL     1      52.816   2.723  18.490  0.00  0.00    +0.000 A 
ATOM     28  N   UNL     1      53.366   1.481  18.444  0.00  0.00    +0.000 NA
ATOM     29  C   UNL     1      52.638   0.601  17.841  0.00  0.00    +0.000 A 
ATOM     30  N   UNL     1      51.427   0.861  17.253  0.00  0.00    +0.000 N 
ATOM     31  C   UNL     1      50.892   2.129  17.159  0.00  0.00    +0.000 A 
ATOM     32  O   UNL     1      49.932   2.352  16.435  0.00  0.00    +0.000 OA
ATOM     33  C   UNL     1      51.621   3.132  17.924  0.00  0.00    +0.000 A 
ATOM     34  H   UNL     1      50.936   0.141  16.743  0.00  0.00    +0.000 HD
ENDBRANCH  22  24
ENDBRANCH  19  20
ENDBRANCH   4  19
TORSDOF 7
ENDMDL
MODEL 4
REMARK VINA RESULT:    -7.056      2.885      3.975
REMARK INTER + INTRA:         -11.308
REMARK INTER:                 -10.195
REMARK INTRA:                  -1.113
REMARK UNBOUND:                -1.365
REMARK  Name = 
REMARK  9 active torsions:
REMARK  status: ('A' for Active; 'I' for Inactive)
REMARK    1  A    between atoms: C_1  and  C_2
REMARK    2  A    between atoms: C_2  and  N_3
REMARK    3  A    between atoms: C_2  and  C_26
REMARK    4  A    between atoms: N_3  and  C_4
REMARK    5  A    between atoms: C_4  and  C_5
REMARK    6  A    between atoms: C_8  and  C_9
REMARK    7  A    between atoms: C_9  and  N_10
REMARK    8  A    between atoms: N_10  and  C_11
REMARK    9  A    between atoms: C_12  and  C_14
REMARK                            x       y       z     vdW  Elec       q    Type
REMARK                         _______ _______ _______ _____ _____    ______ ____
ROOT
ATOM      1  C   UNL     1      47.357   5.764  13.936  0.00  0.00    +0.000 A 
ATOM      2  C   UNL     1      47.894   7.045  13.848  0.00  0.00    +0.000 A 
ATOM      3  C   UNL     1      48.643   7.545  14.914  0.00  0.00    +0.000 A 
ATOM      4  C   UNL     1      48.838   6.767  16.059  0.00  0.00    +0.000 A 
ATOM      5  C   UNL     1      48.203   5.529  16.088  0.00  0.00    +0.000 A 
ATOM      6  N   UNL     1      47.472   5.018  15.065  0.00  0.00    +0.000 NA
ENDROOT
BRANCH   1   7
ATOM      7  C   UNL     1      46.659   5.142  12.727  0.00  0.00    +0.000 C 
BRANCH   7   8
ATOM      8  N   UNL     1      46.496   6.104  11.625  0.00  0.00    +0.000 NA
ATOM      9  H   UNL     1      46.624   7.045  11.986  0.00  0.00    +0.000 HD
BRANCH   8  11
ATOM     10  C   UNL     1      44.005   6.040  11.909  0.00  0.00    +0.000 C 
ATOM     11  C   UNL     1      45.195   6.055  10.945  0.00  0.00    +0.000 C 
BRANCH  11  12
ATOM     12  C   UNL     1      45.113   4.815  10.052  0.00  0.00    +0.000 A 
ATOM     13  C   UNL     1      44.387   3.687  10.470  0.00  0.00    +0.000 A 
ATOM     14  C   UNL     1      44.341   2.533   9.683  0.00  0.00    +0.000 A 
ATOM     15  C   UNL     1      45.017   2.489   8.464  0.00  0.00    +0.000 A 
ATOM     16  C   UNL     1      45.743   3.598   8.038  0.00  0.00    +0.000 A 
ATOM     17 CL   UNL     1      46.579   3.547   6.535  0.00  0.00    +0.000 Cl
ATOM     18  C   UNL     1      45.800   4.749   8.825  0.00  0.00    +0.000 A 
ENDBRANCH  11  12
ENDBRANCH   8  11
ENDBRANCH   7   8
ENDBRANCH   1   7
BRANCH   4  19
ATOM     19  C   UNL     1      49.792   7.183  17.152  0.00  0.00    +0.000 C 
BRANCH  19  20
ATOM     20  N   UNL     1      50.969   6.330  17.349  0.00  0.00    +0.000 N 
ATOM     21  C   UNL     1      51.979   6.347  16.298  0.00  0.00    +0.000 C 
ATOM     22  C   UNL     1      50.903   5.358  18.367  0.00  0.00    +0.000 C 
ATOM     23  O   UNL     1      49.926   5.283  19.109  0.00  0.00    +0.000 OA
BRANCH  22  24
ATOM     24  C   UNL     1      52.040   4.443  18.577  0.00  0.00    +0.000 A 
ATOM     25  C   UNL     1      53.163   4.758  19.328  0.00  0.00    +0.000 A 
ATOM     26  S   UNL     1      54.301   3.492  19.427  0.00  0.00    +0.000 S 
ATOM     27  C   UNL     1      53.273   2.428  18.588  0.00  0.00    +0.000 A 
ATOM     28  N   UNL     1      53.618   1.127  18.403  0.00  0.00    +0.000 NA
ATOM     29  C   UNL     1      52.719   0.419  17.805  0.00  0.00    +0.000 A 
ATOM     30  N   UNL     1      51.521   0.905  17.348  0.00  0.00    +0.000 N 
ATOM     31  C   UNL     1      51.183   2.241  17.395  0.00  0.00    +0.000 A 
ATOM     32  O   UNL     1      50.215   2.665  16.778  0.00  0.00    +0.000 OA
ATOM     33  C   UNL     1      52.115   3.056  18.162  0.00  0.00    +0.000 A 
ATOM     34  H   UNL     1      50.886   0.312  16.834  0.00  0.00    +0.000 HD
ENDBRANCH  22  24
ENDBRANCH  19  20
ENDBRANCH   4  19
TORSDOF 7
ENDMDL
MODEL 5
REMARK VINA RESULT:    -6.520      3.821      8.038
REMARK INTER + INTRA:         -10.554
REMARK INTER:                  -8.835
REMARK INTRA:                  -1.719
REMARK UNBOUND:                -1.365
REMARK  Name = 
REMARK  9 active torsions:
REMARK  status: ('A' for Active; 'I' for Inactive)
REMARK    1  A    between atoms: C_1  and  C_2
REMARK    2  A    between atoms: C_2  and  N_3
REMARK    3  A    between atoms: C_2  and  C_26
REMARK    4  A    between atoms: N_3  and  C_4
REMARK    5  A    between atoms: C_4  and  C_5
REMARK    6  A    between atoms: C_8  and  C_9
REMARK    7  A    between atoms: C_9  and  N_10
REMARK    8  A    between atoms: N_10  and  C_11
REMARK    9  A    between atoms: C_12  and  C_14
REMARK                            x       y       z     vdW  Elec       q    Type
REMARK                         _______ _______ _______ _____ _____    ______ ____
ROOT
ATOM      1  C   UNL     1      52.366   6.502  16.406  0.00  0.00    +0.000 A 
ATOM      2  C   UNL     1      50.986   6.548  16.586  0.00  0.00    +0.000 A 
ATOM      3  C   UNL     1      50.213   7.335  15.732  0.00  0.00    +0.000 A 
ATOM      4  C   UNL     1      50.824   8.075  14.717  0.00  0.00    +0.000 A 
ATOM      5  C   UNL     1      52.213   8.026  14.657  0.00  0.00    +0.000 A 
ATOM      6  N   UNL     1      52.989   7.266  15.472  0.00  0.00    +0.000 NA
ENDROOT
BRANCH   1   7
ATOM      7  C   UNL     1      53.215   5.537  17.233  0.00  0.00    +0.000 C 
BRANCH   7   8
ATOM      8  N   UNL     1      52.545   5.141  18.482  0.00  0.00    +0.000 NA
ATOM      9  H   UNL     1      53.121   5.423  19.271  0.00  0.00    +0.000 HD
BRANCH   8  11
ATOM     10  C   UNL     1      53.304   2.823  17.892  0.00  0.00    +0.000 C 
ATOM     11  C   UNL     1      52.277   3.702  18.613  0.00  0.00    +0.000 C 
BRANCH  11  12
ATOM     12  C   UNL     1      50.886   3.373  18.067  0.00  0.00    +0.000 A 
ATOM     13  C   UNL     1      50.702   2.269  17.217  0.00  0.00    +0.000 A 
ATOM     14  C   UNL     1      49.444   1.984  16.677  0.00  0.00    +0.000 A 
ATOM     15  C   UNL     1      48.351   2.795  16.980  0.00  0.00    +0.000 A 
ATOM     16  C   UNL     1      48.520   3.894  17.819  0.00  0.00    +0.000 A 
ATOM     17 CL   UNL     1      47.174   4.897  18.194  0.00  0.00    +0.000 Cl
ATOM     18  C   UNL     1      49.775   4.189  18.353  0.00  0.00    +0.000 A 
ENDBRANCH  11  12
ENDBRANCH   8  11
ENDBRANCH   7   8
ENDBRANCH   1   7
BRANCH   4  19
ATOM     19  C   UNL     1      50.020   8.786  13.654  0.00  0.00    +0.000 C 
BRANCH  19  20
ATOM     20  N   UNL     1      48.965   8.003  13.003  0.00  0.00    +0.000 N 
ATOM     21  C   UNL     1      49.304   7.364  11.737  0.00  0.00    +0.000 C 
ATOM     22  C   UNL     1      47.650   8.161  13.482  0.00  0.00    +0.000 C 
ATOM     23  O   UNL     1      47.411   8.871  14.457  0.00  0.00    +0.000 OA
BRANCH  22  24
ATOM     24  C   UNL     1      46.544   7.434  12.832  0.00  0.00    +0.000 A 
ATOM     25  C   UNL     1      45.656   8.009  11.936  0.00  0.00    +0.000 A 
ATOM     26  S   UNL     1      44.500   6.918  11.316  0.00  0.00    +0.000 S 
ATOM     27  C   UNL     1      45.231   5.606  12.115  0.00  0.00    +0.000 A 
ATOM     28  N   UNL     1      44.773   4.339  11.934  0.00  0.00    +0.000 NA
ATOM     29  C   UNL     1      45.458   3.435  12.552  0.00  0.00    +0.000 A 
ATOM     30  N   UNL     1      46.538   3.689  13.358  0.00  0.00    +0.000 N 
ATOM     31  C   UNL     1      46.957   4.964  13.675  0.00  0.00    +0.000 A 
ATOM     32  O   UNL     1      47.771   5.152  14.568  0.00  0.00    +0.000 OA
ATOM     33  C   UNL     1      46.288   6.009  12.913  0.00  0.00    +0.000 A 
ATOM     34  H   UNL     1      46.993   2.942  13.861  0.00  0.00    +0.000 HD
ENDBRANCH  22  24
ENDBRANCH  19  20
ENDBRANCH   4  19
TORSDOF 7
ENDMDL
MODEL 6
REMARK VINA RESULT:    -6.515      3.442      8.494
REMARK INTER + INTRA:         -10.546
REMARK INTER:                  -9.255
REMARK INTRA:                  -1.291
REMARK UNBOUND:                -1.365
REMARK  Name = 
REMARK  9 active torsions:
REMARK  status: ('A' for Active; 'I' for Inactive)
REMARK    1  A    between atoms: C_1  and  C_2
REMARK    2  A    between atoms: C_2  and  N_3
REMARK    3  A    between atoms: C_2  and  C_26
REMARK    4  A    between atoms: N_3  and  C_4
REMARK    5  A    between atoms: C_4  and  C_5
REMARK    6  A    between atoms: C_8  and  C_9
REMARK    7  A    between atoms: C_9  and  N_10
REMARK    8  A    between atoms: N_10  and  C_11
REMARK    9  A    between atoms: C_12  and  C_14
REMARK                            x       y       z     vdW  Elec       q    Type
REMARK                         _______ _______ _______ _____ _____    ______ ____
ROOT
ATOM      1  C   UNL     1      50.454   8.169  15.695  0.00  0.00    +0.000 A 
ATOM      2  C   UNL     1      49.150   8.290  16.166  0.00  0.00    +0.000 A 
ATOM      3  C   UNL     1      48.095   8.330  15.254  0.00  0.00    +0.000 A 
ATOM      4  C   UNL     1      48.353   8.261  13.882  0.00  0.00    +0.000 A 
ATOM      5  C   UNL     1      49.690   8.215  13.499  0.00  0.00    +0.000 A 
ATOM      6  N   UNL     1      50.734   8.172  14.366  0.00  0.00    +0.000 NA
ENDROOT
BRANCH   1   7
ATOM      7  C   UNL     1      51.609   7.977  16.676  0.00  0.00    +0.000 C 
BRANCH   7   8
ATOM      8  N   UNL     1      51.219   7.164  17.839  0.00  0.00    +0.000 NA
ATOM      9  H   UNL     1      51.394   7.694  18.688  0.00  0.00    +0.000 HD
BRANCH   8  11
ATOM     10  C   UNL     1      53.119   5.747  17.016  0.00  0.00    +0.000 C 
ATOM     11  C   UNL     1      51.920   5.878  17.960  0.00  0.00    +0.000 C 
BRANCH  11  12
ATOM     12  C   UNL     1      50.955   4.724  17.684  0.00  0.00    +0.000 A 
ATOM     13  C   UNL     1      51.433   3.405  17.604  0.00  0.00    +0.000 A 
ATOM     14  C   UNL     1      50.568   2.346  17.308  0.00  0.00    +0.000 A 
ATOM     15  C   UNL     1      49.212   2.589  17.092  0.00  0.00    +0.000 A 
ATOM     16  C   UNL     1      48.725   3.892  17.165  0.00  0.00    +0.000 A 
ATOM     17 CL   UNL     1      47.053   4.195  16.898  0.00  0.00    +0.000 Cl
ATOM     18  C   UNL     1      49.585   4.953  17.450  0.00  0.00    +0.000 A 
ENDBRANCH  11  12
ENDBRANCH   8  11
ENDBRANCH   7   8
ENDBRANCH   1   7
BRANCH   4  19
ATOM     19  C   UNL     1      47.244   8.108  12.869  0.00  0.00    +0.000 C 
BRANCH  19  20
ATOM     20  N   UNL     1      46.692   6.759  12.706  0.00  0.00    +0.000 N 
ATOM     21  C   UNL     1      47.591   5.642  12.970  0.00  0.00    +0.000 C 
ATOM     22  C   UNL     1      45.457   6.639  12.039  0.00  0.00    +0.000 C 
ATOM     23  O   UNL     1      44.833   7.635  11.678  0.00  0.00    +0.000 OA
BRANCH  22  24
ATOM     24  C   UNL     1      44.879   5.303  11.806  0.00  0.00    +0.000 A 
ATOM     25  C   UNL     1      44.107   4.618  12.732  0.00  0.00    +0.000 A 
ATOM     26  S   UNL     1      43.544   3.107  12.176  0.00  0.00    +0.000 S 
ATOM     27  C   UNL     1      44.194   3.375  10.626  0.00  0.00    +0.000 A 
ATOM     28  N   UNL     1      43.990   2.482   9.622  0.00  0.00    +0.000 NA
ATOM     29  C   UNL     1      44.486   2.840   8.485  0.00  0.00    +0.000 A 
ATOM     30  N   UNL     1      45.195   3.994   8.273  0.00  0.00    +0.000 N 
ATOM     31  C   UNL     1      45.540   4.864   9.286  0.00  0.00    +0.000 A 
ATOM     32  O   UNL     1      46.359   5.753   9.098  0.00  0.00    +0.000 OA
ATOM     33  C   UNL     1      44.906   4.560  10.561  0.00  0.00    +0.000 A 
ATOM     34  H   UNL     1      45.609   4.187   7.373  0.00  0.00    +0.000 HD
ENDBRANCH  22  24
ENDBRANCH  19  20
ENDBRANCH   4  19
TORSDOF 7
ENDMDL
MODEL 7
REMARK VINA RESULT:    -6.113      3.667      8.029
REMARK INTER + INTRA:          -9.980
REMARK INTER:                  -9.486
REMARK INTRA:                  -0.494
REMARK UNBOUND:                -1.365
REMARK  Name = 
REMARK  9 active torsions:
REMARK  status: ('A' for Active; 'I' for Inactive)
REMARK    1  A    between atoms: C_1  and  C_2
REMARK    2  A    between atoms: C_2  and  N_3
REMARK    3  A    between atoms: C_2  and  C_26
REMARK    4  A    between atoms: N_3  and  C_4
REMARK    5  A    between atoms: C_4  and  C_5
REMARK    6  A    between atoms: C_8  and  C_9
REMARK    7  A    between atoms: C_9  and  N_10
REMARK    8  A    between atoms: N_10  and  C_11
REMARK    9  A    between atoms: C_12  and  C_14
REMARK                            x       y       z     vdW  Elec       q    Type
REMARK                         _______ _______ _______ _____ _____    ______ ____
ROOT
ATOM      1  C   UNL     1      49.663   7.652  17.457  0.00  0.00    +0.000 A 
ATOM      2  C   UNL     1      50.201   6.848  16.456  0.00  0.00    +0.000 A 
ATOM      3  C   UNL     1      49.781   7.028  15.138  0.00  0.00    +0.000 A 
ATOM      4  C   UNL     1      48.822   7.999  14.835  0.00  0.00    +0.000 A 
ATOM      5  C   UNL     1      48.287   8.705  15.907  0.00  0.00    +0.000 A 
ATOM      6  N   UNL     1      48.680   8.552  17.198  0.00  0.00    +0.000 NA
ENDROOT
BRANCH   1   7
ATOM      7  C   UNL     1      50.213   7.573  18.881  0.00  0.00    +0.000 C 
BRANCH   7   8
ATOM      8  N   UNL     1      49.163   7.256  19.863  0.00  0.00    +0.000 NA
ATOM      9  H   UNL     1      49.302   7.827  20.693  0.00  0.00    +0.000 HD
BRANCH   8  11
ATOM     10  C   UNL     1      50.434   5.347  20.880  0.00  0.00    +0.000 C 
ATOM     11  C   UNL     1      49.114   5.850  20.288  0.00  0.00    +0.000 C 
BRANCH  11  12
ATOM     12  C   UNL     1      48.738   4.955  19.105  0.00  0.00    +0.000 A 
ATOM     13  C   UNL     1      47.481   5.084  18.490  0.00  0.00    +0.000 A 
ATOM     14  C   UNL     1      47.109   4.242  17.438  0.00  0.00    +0.000 A 
ATOM     15  C   UNL     1      47.989   3.261  16.981  0.00  0.00    +0.000 A 
ATOM     16  C   UNL     1      49.237   3.121  17.583  0.00  0.00    +0.000 A 
ATOM     17 CL   UNL     1      50.324   1.911  17.022  0.00  0.00    +0.000 Cl
ATOM     18  C   UNL     1      49.609   3.951  18.640  0.00  0.00    +0.000 A 
ENDBRANCH  11  12
ENDBRANCH   8  11
ENDBRANCH   7   8
ENDBRANCH   1   7
BRANCH   4  19
ATOM     19  C   UNL     1      48.478   8.361  13.410  0.00  0.00    +0.000 C 
BRANCH  19  20
ATOM     20  N   UNL     1      47.131   8.002  12.954  0.00  0.00    +0.000 N 
ATOM     21  C   UNL     1      46.061   8.946  13.252  0.00  0.00    +0.000 C 
ATOM     22  C   UNL     1      46.920   6.674  12.534  0.00  0.00    +0.000 C 
ATOM     23  O   UNL     1      47.849   5.871  12.480  0.00  0.00    +0.000 OA
BRANCH  22  24
ATOM     24  C   UNL     1      45.574   6.247  12.110  0.00  0.00    +0.000 A 
ATOM     25  C   UNL     1      44.687   7.054  11.413  0.00  0.00    +0.000 A 
ATOM     26  S   UNL     1      43.216   6.284  11.024  0.00  0.00    +0.000 S 
ATOM     27  C   UNL     1      43.765   4.800  11.650  0.00  0.00    +0.000 A 
ATOM     28  N   UNL     1      43.003   3.679  11.552  0.00  0.00    +0.000 NA
ATOM     29  C   UNL     1      43.568   2.613  12.013  0.00  0.00    +0.000 A 
ATOM     30  N   UNL     1      44.811   2.576  12.590  0.00  0.00    +0.000 N 
ATOM     31  C   UNL     1      45.563   3.706  12.831  0.00  0.00    +0.000 A 
ATOM     32  O   UNL     1      46.554   3.659  13.546  0.00  0.00    +0.000 OA
ATOM     33  C   UNL     1      45.019   4.913  12.226  0.00  0.00    +0.000 A 
ATOM     34  H   UNL     1      45.170   1.719  12.986  0.00  0.00    +0.000 HD
ENDBRANCH  22  24
ENDBRANCH  19  20
ENDBRANCH   4  19
TORSDOF 7
ENDMDL
MODEL 8
REMARK VINA RESULT:    -6.091      4.724      8.089
REMARK INTER + INTRA:          -9.949
REMARK INTER:                  -8.677
REMARK INTRA:                  -1.272
REMARK UNBOUND:                -1.365
REMARK  Name = 
REMARK  9 active torsions:
REMARK  status: ('A' for Active; 'I' for Inactive)
REMARK    1  A    between atoms: C_1  and  C_2
REMARK    2  A    between atoms: C_2  and  N_3
REMARK    3  A    between atoms: C_2  and  C_26
REMARK    4  A    between atoms: N_3  and  C_4
REMARK    5  A    between atoms: C_4  and  C_5
REMARK    6  A    between atoms: C_8  and  C_9
REMARK    7  A    between atoms: C_9  and  N_10
REMARK    8  A    between atoms: N_10  and  C_11
REMARK    9  A    between atoms: C_12  and  C_14
REMARK                            x       y       z     vdW  Elec       q    Type
REMARK                         _______ _______ _______ _____ _____    ______ ____
ROOT
ATOM      1  C   UNL     1      50.445   9.614  12.783  0.00  0.00    +0.000 A 
ATOM      2  C   UNL     1      49.826   9.173  11.617  0.00  0.00    +0.000 A 
ATOM      3  C   UNL     1      48.518   8.693  11.680  0.00  0.00    +0.000 A 
ATOM      4  C   UNL     1      47.846   8.645  12.905  0.00  0.00    +0.000 A 
ATOM      5  C   UNL     1      48.568   9.037  14.028  0.00  0.00    +0.000 A 
ATOM      6  N   UNL     1      49.839   9.512  13.995  0.00  0.00    +0.000 NA
ENDROOT
BRANCH   1   7
ATOM      7  C   UNL     1      51.820  10.279  12.717  0.00  0.00    +0.000 C 
BRANCH   7   8
ATOM      8  N   UNL     1      52.844   9.379  12.162  0.00  0.00    +0.000 NA
ATOM      9  H   UNL     1      53.619   9.315  12.817  0.00  0.00    +0.000 HD
BRANCH   8  11
ATOM     10  C   UNL     1      52.768  11.079  10.318  0.00  0.00    +0.000 C 
ATOM     11  C   UNL     1      53.388   9.787  10.860  0.00  0.00    +0.000 C 
BRANCH  11  12
ATOM     12  C   UNL     1      53.176   8.677   9.828  0.00  0.00    +0.000 A 
ATOM     13  C   UNL     1      53.048   7.340  10.243  0.00  0.00    +0.000 A 
ATOM     14  C   UNL     1      52.899   6.311   9.307  0.00  0.00    +0.000 A 
ATOM     15  C   UNL     1      52.871   6.603   7.944  0.00  0.00    +0.000 A 
ATOM     16  C   UNL     1      53.000   7.923   7.519  0.00  0.00    +0.000 A 
ATOM     17 CL   UNL     1      52.968   8.286   5.838  0.00  0.00    +0.000 Cl
ATOM     18  C   UNL     1      53.159   8.952   8.448  0.00  0.00    +0.000 A 
ENDBRANCH  11  12
ENDBRANCH   8  11
ENDBRANCH   7   8
ENDBRANCH   1   7
BRANCH   4  19
ATOM     19  C   UNL     1      46.376   8.316  12.995  0.00  0.00    +0.000 C 
BRANCH  19  20
ATOM     20  N   UNL     1      46.013   6.905  12.829  0.00  0.00    +0.000 N 
ATOM     21  C   UNL     1      46.952   5.917  13.347  0.00  0.00    +0.000 C 
ATOM     22  C   UNL     1      44.958   6.606  11.945  0.00  0.00    +0.000 C 
ATOM     23  O   UNL     1      44.319   7.500  11.394  0.00  0.00    +0.000 OA
BRANCH  22  24
ATOM     24  C   UNL     1      44.583   5.200  11.705  0.00  0.00    +0.000 A 
ATOM     25  C   UNL     1      43.835   4.434  12.586  0.00  0.00    +0.000 A 
ATOM     26  S   UNL     1      43.523   2.852  12.030  0.00  0.00    +0.000 S 
ATOM     27  C   UNL     1      44.257   3.177  10.529  0.00  0.00    +0.000 A 
ATOM     28  N   UNL     1      44.255   2.248   9.538  0.00  0.00    +0.000 NA
ATOM     29  C   UNL     1      44.791   2.649   8.434  0.00  0.00    +0.000 A 
ATOM     30  N   UNL     1      45.357   3.884   8.245  0.00  0.00    +0.000 N 
ATOM     31  C   UNL     1      45.500   4.809   9.258  0.00  0.00    +0.000 A 
ATOM     32  O   UNL     1      46.206   5.797   9.109  0.00  0.00    +0.000 OA
ATOM     33  C   UNL     1      44.809   4.446  10.487  0.00  0.00    +0.000 A 
ATOM     34  H   UNL     1      45.814   4.114   7.375  0.00  0.00    +0.000 HD
ENDBRANCH  22  24
ENDBRANCH  19  20
ENDBRANCH   4  19
TORSDOF 7
ENDMDL
MODEL 9
REMARK VINA RESULT:    -6.074      2.243      2.672
REMARK INTER + INTRA:          -9.925
REMARK INTER:                  -8.821
REMARK INTRA:                  -1.105
REMARK UNBOUND:                -1.365
REMARK  Name = 
REMARK  9 active torsions:
REMARK  status: ('A' for Active; 'I' for Inactive)
REMARK    1  A    between atoms: C_1  and  C_2
REMARK    2  A    between atoms: C_2  and  N_3
REMARK    3  A    between atoms: C_2  and  C_26
REMARK    4  A    between atoms: N_3  and  C_4
REMARK    5  A    between atoms: C_4  and  C_5
REMARK    6  A    between atoms: C_8  and  C_9
REMARK    7  A    between atoms: C_9  and  N_10
REMARK    8  A    between atoms: N_10  and  C_11
REMARK    9  A    between atoms: C_12  and  C_14
REMARK                            x       y       z     vdW  Elec       q    Type
REMARK                         _______ _______ _______ _____ _____    ______ ____
ROOT
ATOM      1  C   UNL     1      46.587   5.931  12.852  0.00  0.00    +0.000 A 
ATOM      2  C   UNL     1      46.367   7.301  12.745  0.00  0.00    +0.000 A 
ATOM      3  C   UNL     1      47.113   8.175  13.537  0.00  0.00    +0.000 A 
ATOM      4  C   UNL     1      48.060   7.672  14.434  0.00  0.00    +0.000 A 
ATOM      5  C   UNL     1      48.160   6.288  14.526  0.00  0.00    +0.000 A 
ATOM      6  N   UNL     1      47.450   5.416  13.765  0.00  0.00    +0.000 NA
ENDROOT
BRANCH   1   7
ATOM      7  C   UNL     1      45.888   4.966  11.894  0.00  0.00    +0.000 C 
BRANCH   7   8
ATOM      8  N   UNL     1      45.554   5.604  10.611  0.00  0.00    +0.000 NA
ATOM      9  H   UNL     1      45.253   6.560  10.785  0.00  0.00    +0.000 HD
BRANCH   8  11
ATOM     10  C   UNL     1      43.357   4.397  10.711  0.00  0.00    +0.000 C 
ATOM     11  C   UNL     1      44.498   4.934   9.841  0.00  0.00    +0.000 C 
BRANCH  11  12
ATOM     12  C   UNL     1      45.087   3.771   9.040  0.00  0.00    +0.000 A 
ATOM     13  C   UNL     1      44.878   2.445   9.457  0.00  0.00    +0.000 A 
ATOM     14  C   UNL     1      45.448   1.377   8.758  0.00  0.00    +0.000 A 
ATOM     15  C   UNL     1      46.232   1.615   7.630  0.00  0.00    +0.000 A 
ATOM     16  C   UNL     1      46.450   2.924   7.208  0.00  0.00    +0.000 A 
ATOM     17 CL   UNL     1      47.418   3.223   5.817  0.00  0.00    +0.000 Cl
ATOM     18  C   UNL     1      45.892   3.995   7.907  0.00  0.00    +0.000 A 
ENDBRANCH  11  12
ENDBRANCH   8  11
ENDBRANCH   7   8
ENDBRANCH   1   7
BRANCH   4  19
ATOM     19  C   UNL     1      49.020   8.577  15.169  0.00  0.00    +0.000 C 
BRANCH  19  20
ATOM     20  N   UNL     1      48.906   8.598  16.630  0.00  0.00    +0.000 N 
ATOM     21  C   UNL     1      48.017   9.600  17.208  0.00  0.00    +0.000 C 
ATOM     22  C   UNL     1      49.859   7.868  17.367  0.00  0.00    +0.000 C 
ATOM     23  O   UNL     1      50.706   7.180  16.801  0.00  0.00    +0.000 OA
BRANCH  22  24
ATOM     24  C   UNL     1      49.819   7.894  18.841  0.00  0.00    +0.000 A 
ATOM     25  C   UNL     1      50.565   8.763  19.623  0.00  0.00    +0.000 A 
ATOM     26  S   UNL     1      50.289   8.590  21.297  0.00  0.00    +0.000 S 
ATOM     27  C   UNL     1      49.059   7.445  21.032  0.00  0.00    +0.000 A 
ATOM     28  N   UNL     1      48.339   6.944  22.069  0.00  0.00    +0.000 NA
ATOM     29  C   UNL     1      47.398   6.132  21.718  0.00  0.00    +0.000 A 
ATOM     30  N   UNL     1      47.137   5.752  20.427  0.00  0.00    +0.000 N 
ATOM     31  C   UNL     1      47.922   6.129  19.358  0.00  0.00    +0.000 A 
ATOM     32  O   UNL     1      47.795   5.592  18.266  0.00  0.00    +0.000 OA
ATOM     33  C   UNL     1      48.923   7.134  19.689  0.00  0.00    +0.000 A 
ATOM     34  H   UNL     1      46.425   5.066  20.225  0.00  0.00    +0.000 HD
ENDBRANCH  22  24
ENDBRANCH  19  20
ENDBRANCH   4  19
TORSDOF 7
ENDMDL
