MODEL 1
REMARK VINA RESULT:    -7.888      0.000      0.000
REMARK INTER + INTRA:         -11.217
REMARK INTER:                 -10.194
REMARK INTRA:                  -1.023
REMARK UNBOUND:                -1.023
REMARK  Name = 
REMARK  6 active torsions:
REMARK  status: ('A' for Active; 'I' for Inactive)
REMARK    1  A    between atoms: C_1  and  N_2
REMARK    2  A    between atoms: N_2  and  C_3
REMARK    3  A    between atoms: C_3  and  C_4
REMARK    4  A    between atoms: C_7  and  C_8
REMARK    5  A    between atoms: C_8  and  N_9
REMARK    6  A    between atoms: C_18  and  C_20
REMARK                            x       y       z     vdW  Elec       q    Type
REMARK                         _______ _______ _______ _____ _____    ______ ____
ROOT
ATOM      1  C   UNL     1      47.319   7.430  13.689  0.00  0.00    +0.000 C 
ENDROOT
BRANCH   1   2
ATOM      2  C   UNL     1      46.568   6.490  12.790  0.00  0.00    +0.000 A 
ATOM      3  C   UNL     1      46.222   6.856  11.487  0.00  0.00    +0.000 A 
ATOM      4  C   UNL     1      45.481   5.983  10.693  0.00  0.00    +0.000 A 
ATOM      5  C   UNL     1      45.049   4.755  11.198  0.00  0.00    +0.000 A 
ATOM      6  C   UNL     1      45.436   4.364  12.482  0.00  0.00    +0.000 A 
ATOM      7  C   UNL     1      46.188   5.227  13.273  0.00  0.00    +0.000 A 
BRANCH   5   8
ATOM      8  C   UNL     1      44.145   3.867  10.380  0.00  0.00    +0.000 C 
BRANCH   8   9
ATOM      9  N   UNL     1      44.232   4.209   8.978  0.00  0.00    +0.000 N 
ATOM     10  C   UNL     1      45.171   3.431   8.312  0.00  0.00    +0.000 A 
ATOM     11  N   UNL     1      45.395   2.171   8.710  0.00  0.00    +0.000 NA
ATOM     12  C   UNL     1      46.325   1.464   8.048  0.00  0.00    +0.000 A 
ATOM     13  C   UNL     1      47.043   1.972   6.999  0.00  0.00    +0.000 A 
ATOM     14  C   UNL     1      46.749   3.272   6.665  0.00  0.00    +0.000 A 
ATOM     15  N   UNL     1      45.832   4.021   7.308  0.00  0.00    +0.000 NA
ATOM     16  H   UNL     1      44.452   5.176   8.774  0.00  0.00    +0.000 HD
ENDBRANCH   8   9
ENDBRANCH   5   8
ENDBRANCH   1   2
BRANCH   1  18
ATOM     17  C   UNL     1      49.574   7.586  12.563  0.00  0.00    +0.000 C 
ATOM     18  N   UNL     1      48.771   7.264  13.740  0.00  0.00    +0.000 N 
ATOM     19  C   UNL     1      49.502   7.179  14.942  0.00  0.00    +0.000 C 
ATOM     20  O   UNL     1      50.721   7.012  14.915  0.00  0.00    +0.000 OA
BRANCH  19  21
ATOM     21  C   UNL     1      48.853   7.425  16.243  0.00  0.00    +0.000 A 
ATOM     22  C   UNL     1      48.667   8.664  16.836  0.00  0.00    +0.000 A 
ATOM     23  S   UNL     1      48.191   8.588  18.473  0.00  0.00    +0.000 S 
ATOM     24  C   UNL     1      48.268   6.893  18.463  0.00  0.00    +0.000 A 
ATOM     25  N   UNL     1      48.116   6.180  19.608  0.00  0.00    +0.000 NA
ATOM     26  C   UNL     1      48.199   4.901  19.445  0.00  0.00    +0.000 A 
ATOM     27  N   UNL     1      48.371   4.273  18.236  0.00  0.00    +0.000 N 
ATOM     28  C   UNL     1      48.436   4.954  17.039  0.00  0.00    +0.000 A 
ATOM     29  O   UNL     1      48.340   4.369  15.966  0.00  0.00    +0.000 OA
ATOM     30  C   UNL     1      48.504   6.396  17.194  0.00  0.00    +0.000 A 
ATOM     31  H   UNL     1      48.304   3.268  18.167  0.00  0.00    +0.000 HD
ENDBRANCH  19  21
ENDBRANCH   1  18
TORSDOF 5
ENDMDL
MODEL 2
REMARK VINA RESULT:    -7.704      2.938      4.789
REMARK INTER + INTRA:         -10.979
REMARK INTER:                  -9.788
REMARK INTRA:                  -1.191
REMARK UNBOUND:                -1.023
REMARK  Name = 
REMARK  6 active torsions:
REMARK  status: ('A' for Active; 'I' for Inactive)
REMARK    1  A    between atoms: C_1  and  N_2
REMARK    2  A    between atoms: N_2  and  C_3
REMARK    3  A    between atoms: C_3  and  C_4
REMARK    4  A    between atoms: C_7  and  C_8
REMARK    5  A    between atoms: C_8  and  N_9
REMARK    6  A    between atoms: C_18  and  C_20
REMARK                            x       y       z     vdW  Elec       q    Type
REMARK                         _______ _______ _______ _____ _____    ______ ____
ROOT
ATOM      1  C   UNL     1      48.600   6.535  13.291  0.00  0.00    +0.000 C 
ENDROOT
BRANCH   1   2
ATOM      2  C   UNL     1      47.331   6.020  12.674  0.00  0.00    +0.000 A 
ATOM      3  C   UNL     1      46.570   5.030  13.302  0.00  0.00    +0.000 A 
ATOM      4  C   UNL     1      45.425   4.536  12.682  0.00  0.00    +0.000 A 
ATOM      5  C   UNL     1      45.046   4.994  11.419  0.00  0.00    +0.000 A 
ATOM      6  C   UNL     1      45.774   6.020  10.811  0.00  0.00    +0.000 A 
ATOM      7  C   UNL     1      46.910   6.527  11.434  0.00  0.00    +0.000 A 
BRANCH   5   8
ATOM      8  C   UNL     1      43.876   4.371  10.698  0.00  0.00    +0.000 C 
BRANCH   8   9
ATOM      9  N   UNL     1      43.972   4.609   9.276  0.00  0.00    +0.000 N 
ATOM     10  C   UNL     1      44.844   3.721   8.659  0.00  0.00    +0.000 A 
ATOM     11  N   UNL     1      44.979   2.478   9.141  0.00  0.00    +0.000 NA
ATOM     12  C   UNL     1      45.849   1.661   8.524  0.00  0.00    +0.000 A 
ATOM     13  C   UNL     1      46.590   2.042   7.437  0.00  0.00    +0.000 A 
ATOM     14  C   UNL     1      46.387   3.335   7.017  0.00  0.00    +0.000 A 
ATOM     15  N   UNL     1      45.534   4.191   7.612  0.00  0.00    +0.000 NA
ATOM     16  H   UNL     1      44.260   5.542   9.004  0.00  0.00    +0.000 HD
ENDBRANCH   8   9
ENDBRANCH   5   8
ENDBRANCH   1   2
BRANCH   1  18
ATOM     17  C   UNL     1      48.922   6.845  15.777  0.00  0.00    +0.000 C 
ATOM     18  N   UNL     1      48.456   7.358  14.491  0.00  0.00    +0.000 N 
ATOM     19  C   UNL     1      48.248   8.752  14.458  0.00  0.00    +0.000 C 
ATOM     20  O   UNL     1      48.107   9.383  15.505  0.00  0.00    +0.000 OA
BRANCH  19  21
ATOM     21  C   UNL     1      48.334   9.500  13.190  0.00  0.00    +0.000 A 
ATOM     22  C   UNL     1      49.498   9.970  12.603  0.00  0.00    +0.000 A 
ATOM     23  S   UNL     1      49.238  11.075  11.328  0.00  0.00    +0.000 S 
ATOM     24  C   UNL     1      47.558  11.006  11.552  0.00  0.00    +0.000 A 
ATOM     25  N   UNL     1      46.727  11.837  10.871  0.00  0.00    +0.000 NA
ATOM     26  C   UNL     1      45.476  11.668  11.145  0.00  0.00    +0.000 A 
ATOM     27  N   UNL     1      44.981  10.712  11.997  0.00  0.00    +0.000 N 
ATOM     28  C   UNL     1      45.781   9.788  12.636  0.00  0.00    +0.000 A 
ATOM     29  O   UNL     1      45.303   8.803  13.187  0.00  0.00    +0.000 OA
ATOM     30  C   UNL     1      47.202  10.043  12.478  0.00  0.00    +0.000 A 
ATOM     31  H   UNL     1      43.986  10.556  12.069  0.00  0.00    +0.000 HD
ENDBRANCH  19  21
ENDBRANCH   1  18
TORSDOF 5
ENDMDL
MODEL 3
REMARK VINA RESULT:    -7.628      2.099      2.738
REMARK INTER + INTRA:         -10.881
REMARK INTER:                  -9.802
REMARK INTRA:                  -1.079
REMARK UNBOUND:                -1.023
REMARK  Name = 
REMARK  6 active torsions:
REMARK  status: ('A' for Active; 'I' for Inactive)
REMARK    1  A    between atoms: C_1  and  N_2
REMARK    2  A    between atoms: N_2  and  C_3
REMARK    3  A    between atoms: C_3  and  C_4
REMARK    4  A    between atoms: C_7  and  C_8
REMARK    5  A    between atoms: C_8  and  N_9
REMARK    6  A    between atoms: C_18  and  C_20
REMARK                            x       y       z     vdW  Elec       q    Type
REMARK                         _______ _______ _______ _____ _____    ______ ____
ROOT
ATOM      1  C   UNL     1      48.875   6.826  13.857  0.00  0.00    +0.000 C 
ENDROOT
BRANCH   1   2
ATOM      2  C   UNL     1      47.645   6.308  13.167  0.00  0.00    +0.000 A 
ATOM      3  C   UNL     1      46.960   5.191  13.650  0.00  0.00    +0.000 A 
ATOM      4  C   UNL     1      45.852   4.703  12.961  0.00  0.00    +0.000 A 
ATOM      5  C   UNL     1      45.436   5.300  11.769  0.00  0.00    +0.000 A 
ATOM      6  C   UNL     1      46.087   6.449  11.311  0.00  0.00    +0.000 A 
ATOM      7  C   UNL     1      47.185   6.947  12.004  0.00  0.00    +0.000 A 
BRANCH   5   8
ATOM      8  C   UNL     1      44.313   4.697  10.962  0.00  0.00    +0.000 C 
BRANCH   8   9
ATOM      9  N   UNL     1      44.471   5.010   9.560  0.00  0.00    +0.000 N 
ATOM     10  C   UNL     1      45.163   4.014   8.882  0.00  0.00    +0.000 A 
ATOM     11  N   UNL     1      45.050   2.738   9.276  0.00  0.00    +0.000 NA
ATOM     12  C   UNL     1      45.753   1.813   8.602  0.00  0.00    +0.000 A 
ATOM     13  C   UNL     1      46.568   2.118   7.545  0.00  0.00    +0.000 A 
ATOM     14  C   UNL     1      46.623   3.450   7.216  0.00  0.00    +0.000 A 
ATOM     15  N   UNL     1      45.945   4.413   7.870  0.00  0.00    +0.000 NA
ATOM     16  H   UNL     1      44.937   5.886   9.354  0.00  0.00    +0.000 HD
ENDBRANCH   8   9
ENDBRANCH   5   8
ENDBRANCH   1   2
BRANCH   1  18
ATOM     17  C   UNL     1      47.831   8.931  14.782  0.00  0.00    +0.000 C 
ATOM     18  N   UNL     1      48.660   7.743  14.974  0.00  0.00    +0.000 N 
ATOM     19  C   UNL     1      48.872   7.391  16.323  0.00  0.00    +0.000 C 
ATOM     20  O   UNL     1      48.698   8.221  17.215  0.00  0.00    +0.000 OA
BRANCH  19  21
ATOM     21  C   UNL     1      49.169   5.998  16.703  0.00  0.00    +0.000 A 
ATOM     22  C   UNL     1      48.235   5.041  17.070  0.00  0.00    +0.000 A 
ATOM     23  S   UNL     1      48.913   3.639  17.769  0.00  0.00    +0.000 S 
ATOM     24  C   UNL     1      50.478   4.285  17.656  0.00  0.00    +0.000 A 
ATOM     25  N   UNL     1      51.539   3.650  18.216  0.00  0.00    +0.000 NA
ATOM     26  C   UNL     1      52.665   4.261  18.048  0.00  0.00    +0.000 A 
ATOM     27  N   UNL     1      52.831   5.419  17.330  0.00  0.00    +0.000 N 
ATOM     28  C   UNL     1      51.797   6.045  16.667  0.00  0.00    +0.000 A 
ATOM     29  O   UNL     1      52.009   6.925  15.840  0.00  0.00    +0.000 OA
ATOM     30  C   UNL     1      50.492   5.480  16.959  0.00  0.00    +0.000 A 
ATOM     31  H   UNL     1      53.756   5.774  17.137  0.00  0.00    +0.000 HD
ENDBRANCH  19  21
ENDBRANCH   1  18
TORSDOF 5
ENDMDL
MODEL 4
REMARK VINA RESULT:    -7.483      1.961      2.524
REMARK INTER + INTRA:         -10.694
REMARK INTER:                  -9.519
REMARK INTRA:                  -1.175
REMARK UNBOUND:                -1.023
REMARK  Name = 
REMARK  6 active torsions:
REMARK  status: ('A' for Active; 'I' for Inactive)
REMARK    1  A    between atoms: C_1  and  N_2
REMARK    2  A    between atoms: N_2  and  C_3
REMARK    3  A    between atoms: C_3  and  C_4
REMARK    4  A    between atoms: C_7  and  C_8
REMARK    5  A    between atoms: C_8  and  N_9
REMARK    6  A    between atoms: C_18  and  C_20
REMARK                            x       y       z     vdW  Elec       q    Type
REMARK                         _______ _______ _______ _____ _____    ______ ____
ROOT
ATOM      1  C   UNL     1      49.445   7.199  14.606  0.00  0.00    +0.000 C 
ENDROOT
BRANCH   1   2
ATOM      2  C   UNL     1      48.306   6.673  13.780  0.00  0.00    +0.000 A 
ATOM      3  C   UNL     1      48.009   7.215  12.528  0.00  0.00    +0.000 A 
ATOM      4  C   UNL     1      46.915   6.741  11.806  0.00  0.00    +0.000 A 
ATOM      5  C   UNL     1      46.088   5.750  12.338  0.00  0.00    +0.000 A 
ATOM      6  C   UNL     1      46.412   5.169  13.567  0.00  0.00    +0.000 A 
ATOM      7  C   UNL     1      47.511   5.630  14.284  0.00  0.00    +0.000 A 
BRANCH   5   8
ATOM      8  C   UNL     1      44.837   5.325  11.609  0.00  0.00    +0.000 C 
BRANCH   8   9
ATOM      9  N   UNL     1      44.921   5.678  10.210  0.00  0.00    +0.000 N 
ATOM     10  C   UNL     1      45.260   4.587   9.420  0.00  0.00    +0.000 A 
ATOM     11  N   UNL     1      44.865   3.357   9.779  0.00  0.00    +0.000 NA
ATOM     12  C   UNL     1      45.233   2.331   8.994  0.00  0.00    +0.000 A 
ATOM     13  C   UNL     1      45.982   2.489   7.859  0.00  0.00    +0.000 A 
ATOM     14  C   UNL     1      46.342   3.784   7.573  0.00  0.00    +0.000 A 
ATOM     15  N   UNL     1      46.005   4.841   8.337  0.00  0.00    +0.000 NA
ATOM     16  H   UNL     1      45.571   6.421   9.982  0.00  0.00    +0.000 HD
ENDBRANCH   8   9
ENDBRANCH   5   8
ENDBRANCH   1   2
BRANCH   1  18
ATOM     17  C   UNL     1      48.085   9.093  15.574  0.00  0.00    +0.000 C 
ATOM     18  N   UNL     1      49.091   8.047  15.742  0.00  0.00    +0.000 N 
ATOM     19  C   UNL     1      49.360   7.705  17.083  0.00  0.00    +0.000 C 
ATOM     20  O   UNL     1      49.060   8.477  17.993  0.00  0.00    +0.000 OA
BRANCH  19  21
ATOM     21  C   UNL     1      49.874   6.368  17.434  0.00  0.00    +0.000 A 
ATOM     22  C   UNL     1      51.195   5.959  17.349  0.00  0.00    +0.000 A 
ATOM     23  S   UNL     1      51.414   4.273  17.506  0.00  0.00    +0.000 S 
ATOM     24  C   UNL     1      49.741   4.024  17.638  0.00  0.00    +0.000 A 
ATOM     25  N   UNL     1      49.220   2.770  17.652  0.00  0.00    +0.000 NA
ATOM     26  C   UNL     1      47.932   2.738  17.758  0.00  0.00    +0.000 A 
ATOM     27  N   UNL     1      47.128   3.841  17.901  0.00  0.00    +0.000 N 
ATOM     28  C   UNL     1      47.624   5.125  17.986  0.00  0.00    +0.000 A 
ATOM     29  O   UNL     1      46.920   6.057  18.358  0.00  0.00    +0.000 OA
ATOM     30  C   UNL     1      49.047   5.218  17.715  0.00  0.00    +0.000 A 
ATOM     31  H   UNL     1      46.145   3.736  18.102  0.00  0.00    +0.000 HD
ENDBRANCH  19  21
ENDBRANCH   1  18
TORSDOF 5
ENDMDL
MODEL 5
REMARK VINA RESULT:    -7.175      3.510      8.131
REMARK INTER + INTRA:         -10.296
REMARK INTER:                  -9.354
REMARK INTRA:                  -0.942
REMARK UNBOUND:                -1.023
REMARK  Name = 
REMARK  6 active torsions:
REMARK  status: ('A' for Active; 'I' for Inactive)
REMARK    1  A    between atoms: C_1  and  N_2
REMARK    2  A    between atoms: N_2  and  C_3
REMARK    3  A    between atoms: C_3  and  C_4
REMARK    4  A    between atoms: C_7  and  C_8
REMARK    5  A    between atoms: C_8  and  N_9
REMARK    6  A    between atoms: C_18  and  C_20
REMARK                            x       y       z     vdW  Elec       q    Type
REMARK                         _______ _______ _______ _____ _____    ______ ____
ROOT
ATOM      1  C   UNL     1      47.799   6.980  12.244  0.00  0.00    +0.000 C 
ENDROOT
BRANCH   1   2
ATOM      2  C   UNL     1      48.246   6.683  13.647  0.00  0.00    +0.000 A 
ATOM      3  C   UNL     1      49.323   7.360  14.222  0.00  0.00    +0.000 A 
ATOM      4  C   UNL     1      49.747   7.029  15.507  0.00  0.00    +0.000 A 
ATOM      5  C   UNL     1      49.127   5.998  16.217  0.00  0.00    +0.000 A 
ATOM      6  C   UNL     1      48.017   5.354  15.666  0.00  0.00    +0.000 A 
ATOM      7  C   UNL     1      47.582   5.692  14.389  0.00  0.00    +0.000 A 
BRANCH   5   8
ATOM      8  C   UNL     1      49.665   5.560  17.556  0.00  0.00    +0.000 C 
BRANCH   8   9
ATOM      9  N   UNL     1      51.087   5.308  17.474  0.00  0.00    +0.000 N 
ATOM     10  C   UNL     1      51.377   3.951  17.538  0.00  0.00    +0.000 A 
ATOM     11  N   UNL     1      50.508   3.060  17.039  0.00  0.00    +0.000 NA
ATOM     12  C   UNL     1      50.822   1.759  17.141  0.00  0.00    +0.000 A 
ATOM     13  C   UNL     1      51.978   1.313  17.725  0.00  0.00    +0.000 A 
ATOM     14  C   UNL     1      52.805   2.297  18.210  0.00  0.00    +0.000 A 
ATOM     15  N   UNL     1      52.524   3.613  18.139  0.00  0.00    +0.000 NA
ATOM     16  H   UNL     1      51.655   5.765  18.177  0.00  0.00    +0.000 HD
ENDBRANCH   8   9
ENDBRANCH   5   8
ENDBRANCH   1   2
BRANCH   1  18
ATOM     17  C   UNL     1      46.621   9.212  12.189  0.00  0.00    +0.000 C 
ATOM     18  N   UNL     1      46.568   7.755  12.101  0.00  0.00    +0.000 N 
ATOM     19  C   UNL     1      45.392   7.247  11.513  0.00  0.00    +0.000 C 
ATOM     20  O   UNL     1      44.380   7.944  11.448  0.00  0.00    +0.000 OA
BRANCH  19  21
ATOM     21  C   UNL     1      45.387   5.933  10.843  0.00  0.00    +0.000 A 
ATOM     22  C   UNL     1      45.783   5.687   9.538  0.00  0.00    +0.000 A 
ATOM     23  S   UNL     1      45.349   4.141   8.959  0.00  0.00    +0.000 S 
ATOM     24  C   UNL     1      44.566   3.766  10.416  0.00  0.00    +0.000 A 
ATOM     25  N   UNL     1      43.839   2.627  10.547  0.00  0.00    +0.000 NA
ATOM     26  C   UNL     1      43.303   2.476  11.713  0.00  0.00    +0.000 A 
ATOM     27  N   UNL     1      43.470   3.336  12.770  0.00  0.00    +0.000 N 
ATOM     28  C   UNL     1      44.275   4.454  12.709  0.00  0.00    +0.000 A 
ATOM     29  O   UNL     1      44.602   5.060  13.723  0.00  0.00    +0.000 OA
ATOM     30  C   UNL     1      44.768   4.743  11.375  0.00  0.00    +0.000 A 
ATOM     31  H   UNL     1      43.123   3.093  13.687  0.00  0.00    +0.000 HD
ENDBRANCH  19  21
ENDBRANCH   1  18
TORSDOF 5
ENDMDL
MODEL 6
REMARK VINA RESULT:    -6.952      1.549      2.286
REMARK INTER + INTRA:         -10.008
REMARK INTER:                  -8.882
REMARK INTRA:                  -1.126
REMARK UNBOUND:                -1.023
REMARK  Name = 
REMARK  6 active torsions:
REMARK  status: ('A' for Active; 'I' for Inactive)
REMARK    1  A    between atoms: C_1  and  N_2
REMARK    2  A    between atoms: N_2  and  C_3
REMARK    3  A    between atoms: C_3  and  C_4
REMARK    4  A    between atoms: C_7  and  C_8
REMARK    5  A    between atoms: C_8  and  N_9
REMARK    6  A    between atoms: C_18  and  C_20
REMARK                            x       y       z     vdW  Elec       q    Type
REMARK                         _______ _______ _______ _____ _____    ______ ____
ROOT
ATOM      1  C   UNL     1      48.105   7.782  14.341  0.00  0.00    +0.000 C 
ENDROOT
BRANCH   1   2
ATOM      2  C   UNL     1      47.297   6.906  13.426  0.00  0.00    +0.000 A 
ATOM      3  C   UNL     1      46.879   7.360  12.172  0.00  0.00    +0.000 A 
ATOM      4  C   UNL     1      46.089   6.544  11.365  0.00  0.00    +0.000 A 
ATOM      5  C   UNL     1      45.677   5.287  11.812  0.00  0.00    +0.000 A 
ATOM      6  C   UNL     1      46.135   4.809  13.042  0.00  0.00    +0.000 A 
ATOM      7  C   UNL     1      46.937   5.615  13.844  0.00  0.00    +0.000 A 
BRANCH   5   8
ATOM      8  C   UNL     1      44.723   4.458  10.989  0.00  0.00    +0.000 C 
BRANCH   8   9
ATOM      9  N   UNL     1      44.754   4.873   9.605  0.00  0.00    +0.000 N 
ATOM     10  C   UNL     1      45.410   3.948   8.801  0.00  0.00    +0.000 A 
ATOM     11  N   UNL     1      45.360   2.644   9.110  0.00  0.00    +0.000 NA
ATOM     12  C   UNL     1      46.026   1.790   8.315  0.00  0.00    +0.000 A 
ATOM     13  C   UNL     1      46.740   2.192   7.218  0.00  0.00    +0.000 A 
ATOM     14  C   UNL     1      46.737   3.546   6.983  0.00  0.00    +0.000 A 
ATOM     15  N   UNL     1      46.093   4.440   7.760  0.00  0.00    +0.000 NA
ATOM     16  H   UNL     1      45.180   5.774   9.425  0.00  0.00    +0.000 HD
ENDBRANCH   8   9
ENDBRANCH   5   8
ENDBRANCH   1   2
BRANCH   1  18
ATOM     17  C   UNL     1      50.465   8.135  13.517  0.00  0.00    +0.000 C 
ATOM     18  N   UNL     1      49.533   7.486  14.435  0.00  0.00    +0.000 N 
ATOM     19  C   UNL     1      50.136   6.916  15.574  0.00  0.00    +0.000 C 
ATOM     20  O   UNL     1      51.341   6.666  15.579  0.00  0.00    +0.000 OA
BRANCH  19  21
ATOM     21  C   UNL     1      49.375   6.737  16.825  0.00  0.00    +0.000 A 
ATOM     22  C   UNL     1      48.745   5.571  17.231  0.00  0.00    +0.000 A 
ATOM     23  S   UNL     1      47.678   5.779  18.547  0.00  0.00    +0.000 S 
ATOM     24  C   UNL     1      47.979   7.448  18.586  0.00  0.00    +0.000 A 
ATOM     25  N   UNL     1      47.266   8.269  19.399  0.00  0.00    +0.000 NA
ATOM     26  C   UNL     1      47.608   9.512  19.321  0.00  0.00    +0.000 A 
ATOM     27  N   UNL     1      48.628   9.998  18.541  0.00  0.00    +0.000 N 
ATOM     28  C   UNL     1      49.437   9.188  17.773  0.00  0.00    +0.000 A 
ATOM     29  O   UNL     1      50.483   9.606  17.288  0.00  0.00    +0.000 OA
ATOM     30  C   UNL     1      48.989   7.809  17.711  0.00  0.00    +0.000 A 
ATOM     31  H   UNL     1      48.920  10.961  18.622  0.00  0.00    +0.000 HD
ENDBRANCH  19  21
ENDBRANCH   1  18
TORSDOF 5
ENDMDL
MODEL 7
REMARK VINA RESULT:    -6.864      1.361      1.875
REMARK INTER + INTRA:          -9.894
REMARK INTER:                  -8.640
REMARK INTRA:                  -1.253
REMARK UNBOUND:                -1.023
REMARK  Name = 
REMARK  6 active torsions:
REMARK  status: ('A' for Active; 'I' for Inactive)
REMARK    1  A    between atoms: C_1  and  N_2
REMARK    2  A    between atoms: N_2  and  C_3
REMARK    3  A    between atoms: C_3  and  C_4
REMARK    4  A    between atoms: C_7  and  C_8
REMARK    5  A    between atoms: C_8  and  N_9
REMARK    6  A    between atoms: C_18  and  C_20
REMARK                            x       y       z     vdW  Elec       q    Type
REMARK                         _______ _______ _______ _____ _____    ______ ____
ROOT
ATOM      1  C   UNL     1      49.219   9.023  13.910  0.00  0.00    +0.000 C 
ENDROOT
BRANCH   1   2
ATOM      2  C   UNL     1      48.117   8.244  13.250  0.00  0.00    +0.000 A 
ATOM      3  C   UNL     1      46.794   8.693  13.281  0.00  0.00    +0.000 A 
ATOM      4  C   UNL     1      45.785   7.925  12.704  0.00  0.00    +0.000 A 
ATOM      5  C   UNL     1      46.077   6.689  12.122  0.00  0.00    +0.000 A 
ATOM      6  C   UNL     1      47.405   6.262  12.043  0.00  0.00    +0.000 A 
ATOM      7  C   UNL     1      48.416   7.033  12.606  0.00  0.00    +0.000 A 
BRANCH   5   8
ATOM      8  C   UNL     1      44.968   5.806  11.607  0.00  0.00    +0.000 C 
BRANCH   8   9
ATOM      9  N   UNL     1      44.865   5.907  10.168  0.00  0.00    +0.000 N 
ATOM     10  C   UNL     1      45.120   4.692   9.544  0.00  0.00    +0.000 A 
ATOM     11  N   UNL     1      44.797   3.546  10.161  0.00  0.00    +0.000 NA
ATOM     12  C   UNL     1      45.080   2.397   9.527  0.00  0.00    +0.000 A 
ATOM     13  C   UNL     1      45.675   2.349   8.294  0.00  0.00    +0.000 A 
ATOM     14  C   UNL     1      45.972   3.572   7.742  0.00  0.00    +0.000 A 
ATOM     15  N   UNL     1      45.716   4.749   8.347  0.00  0.00    +0.000 NA
ATOM     16  H   UNL     1      45.467   6.595   9.732  0.00  0.00    +0.000 HD
ENDBRANCH   8   9
ENDBRANCH   5   8
ENDBRANCH   1   2
BRANCH   1  18
ATOM     17  C   UNL     1      51.648   8.431  13.564  0.00  0.00    +0.000 C 
ATOM     18  N   UNL     1      50.404   8.266  14.310  0.00  0.00    +0.000 N 
ATOM     19  C   UNL     1      50.557   7.674  15.580  0.00  0.00    +0.000 C 
ATOM     20  O   UNL     1      51.569   7.026  15.844  0.00  0.00    +0.000 OA
BRANCH  19  21
ATOM     21  C   UNL     1      49.583   7.930  16.657  0.00  0.00    +0.000 A 
ATOM     22  C   UNL     1      49.572   9.035  17.494  0.00  0.00    +0.000 A 
ATOM     23  S   UNL     1      48.534   8.878  18.840  0.00  0.00    +0.000 S 
ATOM     24  C   UNL     1      48.102   7.303  18.380  0.00  0.00    +0.000 A 
ATOM     25  N   UNL     1      47.340   6.523  19.188  0.00  0.00    +0.000 NA
ATOM     26  C   UNL     1      47.093   5.351  18.705  0.00  0.00    +0.000 A 
ATOM     27  N   UNL     1      47.497   4.909  17.470  0.00  0.00    +0.000 N 
ATOM     28  C   UNL     1      48.192   5.701  16.580  0.00  0.00    +0.000 A 
ATOM     29  O   UNL     1      48.324   5.377  15.405  0.00  0.00    +0.000 OA
ATOM     30  C   UNL     1      48.624   6.967  17.144  0.00  0.00    +0.000 A 
ATOM     31  H   UNL     1      47.165   4.028  17.106  0.00  0.00    +0.000 HD
ENDBRANCH  19  21
ENDBRANCH   1  18
TORSDOF 5
ENDMDL
MODEL 8
REMARK VINA RESULT:    -6.714      3.056      4.461
REMARK INTER + INTRA:          -9.700
REMARK INTER:                  -8.425
REMARK INTRA:                  -1.275
REMARK UNBOUND:                -1.023
REMARK  Name = 
REMARK  6 active torsions:
REMARK  status: ('A' for Active; 'I' for Inactive)
REMARK    1  A    between atoms: C_1  and  N_2
REMARK    2  A    between atoms: N_2  and  C_3
REMARK    3  A    between atoms: C_3  and  C_4
REMARK    4  A    between atoms: C_7  and  C_8
REMARK    5  A    between atoms: C_8  and  N_9
REMARK    6  A    between atoms: C_18  and  C_20
REMARK                            x       y       z     vdW  Elec       q    Type
REMARK                         _______ _______ _______ _____ _____    ______ ____
ROOT
ATOM      1  C   UNL     1      49.814   8.039  16.888  0.00  0.00    +0.000 C 
ENDROOT
BRANCH   1   2
ATOM      2  C   UNL     1      49.000   7.921  15.631  0.00  0.00    +0.000 A 
ATOM      3  C   UNL     1      48.548   9.055  14.951  0.00  0.00    +0.000 A 
ATOM      4  C   UNL     1      47.753   8.915  13.816  0.00  0.00    +0.000 A 
ATOM      5  C   UNL     1      47.371   7.649  13.367  0.00  0.00    +0.000 A 
ATOM      6  C   UNL     1      47.863   6.512  14.014  0.00  0.00    +0.000 A 
ATOM      7  C   UNL     1      48.669   6.648  15.139  0.00  0.00    +0.000 A 
BRANCH   5   8
ATOM      8  C   UNL     1      46.412   7.505  12.212  0.00  0.00    +0.000 C 
BRANCH   8   9
ATOM      9  N   UNL     1      46.495   6.177  11.647  0.00  0.00    +0.000 N 
ATOM     10  C   UNL     1      45.254   5.554  11.603  0.00  0.00    +0.000 A 
ATOM     11  N   UNL     1      44.146   6.288  11.430  0.00  0.00    +0.000 NA
ATOM     12  C   UNL     1      42.968   5.644  11.414  0.00  0.00    +0.000 A 
ATOM     13  C   UNL     1      42.855   4.288  11.564  0.00  0.00    +0.000 A 
ATOM     14  C   UNL     1      44.043   3.619  11.739  0.00  0.00    +0.000 A 
ATOM     15  N   UNL     1      45.246   4.226  11.773  0.00  0.00    +0.000 NA
ATOM     16  H   UNL     1      47.129   5.539  12.114  0.00  0.00    +0.000 HD
ENDBRANCH   8   9
ENDBRANCH   5   8
ENDBRANCH   1   2
BRANCH   1  18
ATOM     17  C   UNL     1      48.021   9.086  18.326  0.00  0.00    +0.000 C 
ATOM     18  N   UNL     1      49.070   8.085  18.146  0.00  0.00    +0.000 N 
ATOM     19  C   UNL     1      49.018   7.013  19.058  0.00  0.00    +0.000 C 
ATOM     20  O   UNL     1      48.395   7.126  20.114  0.00  0.00    +0.000 OA
BRANCH  19  21
ATOM     21  C   UNL     1      49.584   5.696  18.712  0.00  0.00    +0.000 A 
ATOM     22  C   UNL     1      50.922   5.343  18.786  0.00  0.00    +0.000 A 
ATOM     23  S   UNL     1      51.299   3.871  18.007  0.00  0.00    +0.000 S 
ATOM     24  C   UNL     1      49.693   3.681  17.494  0.00  0.00    +0.000 A 
ATOM     25  N   UNL     1      49.345   2.682  16.642  0.00  0.00    +0.000 NA
ATOM     26  C   UNL     1      48.088   2.663  16.342  0.00  0.00    +0.000 A 
ATOM     27  N   UNL     1      47.145   3.518  16.854  0.00  0.00    +0.000 N 
ATOM     28  C   UNL     1      47.439   4.485  17.793  0.00  0.00    +0.000 A 
ATOM     29  O   UNL     1      46.553   5.063  18.412  0.00  0.00    +0.000 OA
ATOM     30  C   UNL     1      48.861   4.643  18.038  0.00  0.00    +0.000 A 
ATOM     31  H   UNL     1      46.164   3.367  16.671  0.00  0.00    +0.000 HD
ENDBRANCH  19  21
ENDBRANCH   1  18
TORSDOF 5
ENDMDL
MODEL 9
REMARK VINA RESULT:    -6.107      3.412      5.291
REMARK INTER + INTRA:          -8.915
REMARK INTER:                  -7.823
REMARK INTRA:                  -1.091
REMARK UNBOUND:                -1.023
REMARK  Name = 
REMARK  6 active torsions:
REMARK  status: ('A' for Active; 'I' for Inactive)
REMARK    1  A    between atoms: C_1  and  N_2
REMARK    2  A    between atoms: N_2  and  C_3
REMARK    3  A    between atoms: C_3  and  C_4
REMARK    4  A    between atoms: C_7  and  C_8
REMARK    5  A    between atoms: C_8  and  N_9
REMARK    6  A    between atoms: C_18  and  C_20
REMARK                            x       y       z     vdW  Elec       q    Type
REMARK                         _______ _______ _______ _____ _____    ______ ____
ROOT
ATOM      1  C   UNL     1      50.546   7.630  17.960  0.00  0.00    +0.000 C 
ENDROOT
BRANCH   1   2
ATOM      2  C   UNL     1      49.801   7.794  16.667  0.00  0.00    +0.000 A 
ATOM      3  C   UNL     1      48.672   8.613  16.580  0.00  0.00    +0.000 A 
ATOM      4  C   UNL     1      47.972   8.706  15.379  0.00  0.00    +0.000 A 
ATOM      5  C   UNL     1      48.365   7.961  14.267  0.00  0.00    +0.000 A 
ATOM      6  C   UNL     1      49.522   7.181  14.334  0.00  0.00    +0.000 A 
ATOM      7  C   UNL     1      50.233   7.096  15.527  0.00  0.00    +0.000 A 
BRANCH   5   8
ATOM      8  C   UNL     1      47.534   7.970  13.008  0.00  0.00    +0.000 C 
BRANCH   8   9
ATOM      9  N   UNL     1      46.134   7.794  13.322  0.00  0.00    +0.000 N 
ATOM     10  C   UNL     1      45.709   6.493  13.081  0.00  0.00    +0.000 A 
ATOM     11  N   UNL     1      46.565   5.473  13.238  0.00  0.00    +0.000 NA
ATOM     12  C   UNL     1      46.114   4.236  12.975  0.00  0.00    +0.000 A 
ATOM     13  C   UNL     1      44.834   3.979  12.561  0.00  0.00    +0.000 A 
ATOM     14  C   UNL     1      44.031   5.085  12.426  0.00  0.00    +0.000 A 
ATOM     15  N   UNL     1      44.444   6.345  12.667  0.00  0.00    +0.000 NA
ATOM     16  H   UNL     1      45.493   8.409  12.834  0.00  0.00    +0.000 HD
ENDBRANCH   8   9
ENDBRANCH   5   8
ENDBRANCH   1   2
BRANCH   1  18
ATOM     17  C   UNL     1      49.351   8.389  20.051  0.00  0.00    +0.000 C 
ATOM     18  N   UNL     1      49.744   7.316  19.141  0.00  0.00    +0.000 N 
ATOM     19  C   UNL     1      49.000   6.127  19.283  0.00  0.00    +0.000 C 
ATOM     20  O   UNL     1      48.367   5.911  20.316  0.00  0.00    +0.000 OA
BRANCH  19  21
ATOM     21  C   UNL     1      48.850   5.189  18.155  0.00  0.00    +0.000 A 
ATOM     22  C   UNL     1      47.721   5.044  17.365  0.00  0.00    +0.000 A 
ATOM     23  S   UNL     1      47.741   3.658  16.368  0.00  0.00    +0.000 S 
ATOM     24  C   UNL     1      49.239   3.172  17.000  0.00  0.00    +0.000 A 
ATOM     25  N   UNL     1      49.776   1.967  16.678  0.00  0.00    +0.000 NA
ATOM     26  C   UNL     1      50.919   1.736  17.234  0.00  0.00    +0.000 A 
ATOM     27  N   UNL     1      51.593   2.620  18.039  0.00  0.00    +0.000 N 
ATOM     28  C   UNL     1      51.130   3.889  18.314  0.00  0.00    +0.000 A 
ATOM     29  O   UNL     1      51.854   4.737  18.823  0.00  0.00    +0.000 OA
ATOM     30  C   UNL     1      49.779   4.130  17.839  0.00  0.00    +0.000 A 
ATOM     31  H   UNL     1      52.537   2.423  18.338  0.00  0.00    +0.000 HD
ENDBRANCH  19  21
ENDBRANCH   1  18
TORSDOF 5
ENDMDL
