MODEL 1
REMARK VINA RESULT:    -7.670      0.000      0.000
REMARK INTER + INTRA:         -12.675
REMARK INTER:                 -11.706
REMARK INTRA:                  -0.969
REMARK UNBOUND:                -0.969
REMARK  Name = 
REMARK  10 active torsions:
REMARK  status: ('A' for Active; 'I' for Inactive)
REMARK    1  A    between atoms: C_1  and  O_2
REMARK    2  A    between atoms: O_2  and  C_3
REMARK    3  A    between atoms: C_3  and  C_4
REMARK    4  A    between atoms: C_4  and  O_5
REMARK    5  A    between atoms: O_5  and  C_6
REMARK    6  A    between atoms: C_10  and  C_11
REMARK    7  A    between atoms: C_11  and  C_12
REMARK    8  A    between atoms: C_15  and  C_16
REMARK    9  A    between atoms: C_16  and  N_17
REMARK   10  A    between atoms: C_18  and  C_20
REMARK                            x       y       z     vdW  Elec       q    Type
REMARK                         _______ _______ _______ _____ _____    ______ ____
ROOT
ATOM      1  C   UNL     1      44.895   6.344  11.361  0.00  0.00    +0.000 A 
ATOM      2  C   UNL     1      46.063   5.720  11.810  0.00  0.00    +0.000 A 
ATOM      3  C   UNL     1      46.985   6.410  12.604  0.00  0.00    +0.000 A 
ATOM      4  C   UNL     1      46.795   7.762  12.923  0.00  0.00    +0.000 A 
ATOM      5  C   UNL     1      45.668   8.406  12.394  0.00  0.00    +0.000 A 
ATOM      6  C   UNL     1      44.722   7.707  11.629  0.00  0.00    +0.000 A 
ENDROOT
BRANCH   1   7
ATOM      7  C   UNL     1      43.826   5.521  10.677  0.00  0.00    +0.000 C 
BRANCH   7  12
ATOM      8  C   UNL     1      45.712   3.733   8.069  0.00  0.00    +0.000 A 
ATOM      9  C   UNL     1      45.537   2.375   8.340  0.00  0.00    +0.000 A 
ATOM     10  C   UNL     1      44.701   2.035   9.396  0.00  0.00    +0.000 A 
ATOM     11  C   UNL     1      44.085   3.037  10.137  0.00  0.00    +0.000 A 
ATOM     12  C   UNL     1      44.339   4.376   9.828  0.00  0.00    +0.000 A 
ATOM     13  N   UNL     1      45.135   4.713   8.793  0.00  0.00    +0.000 NA
BRANCH   8  14
ATOM     14  O   UNL     1      46.521   4.106   7.017  0.00  0.00    +0.000 OA
BRANCH  14  15
ATOM     15  C   UNL     1      46.693   3.017   6.091  0.00  0.00    +0.000 C 
BRANCH  15  16
ATOM     16  C   UNL     1      48.075   2.412   6.297  0.00  0.00    +0.000 C 
BRANCH  16  18
ATOM     17  C   UNL     1      47.136   1.138   4.557  0.00  0.00    +0.000 C 
ATOM     18  O   UNL     1      48.222   1.262   5.463  0.00  0.00    +0.000 OA
ENDBRANCH  16  18
ENDBRANCH  15  16
ENDBRANCH  14  15
ENDBRANCH   8  14
ENDBRANCH   7  12
ENDBRANCH   1   7
BRANCH   4  19
ATOM     19  C   UNL     1      47.744   8.530  13.819  0.00  0.00    +0.000 C 
BRANCH  19  20
ATOM     20  N   UNL     1      48.032   7.853  15.062  0.00  0.00    +0.000 N 
ATOM     21  C   UNL     1      49.296   7.392  15.356  0.00  0.00    +0.000 C 
ATOM     22  O   UNL     1      50.249   7.535  14.598  0.00  0.00    +0.000 OA
ATOM     23  H   UNL     1      47.258   7.371  15.505  0.00  0.00    +0.000 HD
BRANCH  21  24
ATOM     24  C   UNL     1      49.451   6.754  16.672  0.00  0.00    +0.000 A 
ATOM     25  C   UNL     1      50.190   7.382  17.665  0.00  0.00    +0.000 A 
ATOM     26  S   UNL     1      50.278   6.489  19.117  0.00  0.00    +0.000 S 
ATOM     27  C   UNL     1      49.349   5.221  18.460  0.00  0.00    +0.000 A 
ATOM     28  N   UNL     1      49.079   4.095  19.182  0.00  0.00    +0.000 NA
ATOM     29  C   UNL     1      48.389   3.217  18.556  0.00  0.00    +0.000 A 
ATOM     30  N   UNL     1      47.921   3.355  17.272  0.00  0.00    +0.000 N 
ATOM     31  C   UNL     1      48.124   4.486  16.528  0.00  0.00    +0.000 A 
ATOM     32  O   UNL     1      47.620   4.619  15.412  0.00  0.00    +0.000 OA
ATOM     33  C   UNL     1      48.943   5.496  17.168  0.00  0.00    +0.000 A 
ATOM     34  H   UNL     1      47.353   2.635  16.847  0.00  0.00    +0.000 HD
ENDBRANCH  21  24
ENDBRANCH  19  20
ENDBRANCH   4  19
TORSDOF 9
ENDMDL
MODEL 2
REMARK VINA RESULT:    -7.480      1.596      2.000
REMARK INTER + INTRA:         -12.385
REMARK INTER:                 -11.559
REMARK INTRA:                  -0.826
REMARK UNBOUND:                -0.969
REMARK  Name = 
REMARK  10 active torsions:
REMARK  status: ('A' for Active; 'I' for Inactive)
REMARK    1  A    between atoms: C_1  and  O_2
REMARK    2  A    between atoms: O_2  and  C_3
REMARK    3  A    between atoms: C_3  and  C_4
REMARK    4  A    between atoms: C_4  and  O_5
REMARK    5  A    between atoms: O_5  and  C_6
REMARK    6  A    between atoms: C_10  and  C_11
REMARK    7  A    between atoms: C_11  and  C_12
REMARK    8  A    between atoms: C_15  and  C_16
REMARK    9  A    between atoms: C_16  and  N_17
REMARK   10  A    between atoms: C_18  and  C_20
REMARK                            x       y       z     vdW  Elec       q    Type
REMARK                         _______ _______ _______ _____ _____    ______ ____
ROOT
ATOM      1  C   UNL     1      45.309   5.919  11.760  0.00  0.00    +0.000 A 
ATOM      2  C   UNL     1      45.917   7.177  11.699  0.00  0.00    +0.000 A 
ATOM      3  C   UNL     1      47.026   7.476  12.498  0.00  0.00    +0.000 A 
ATOM      4  C   UNL     1      47.523   6.547  13.422  0.00  0.00    +0.000 A 
ATOM      5  C   UNL     1      46.853   5.321  13.541  0.00  0.00    +0.000 A 
ATOM      6  C   UNL     1      45.765   5.004  12.715  0.00  0.00    +0.000 A 
ENDROOT
BRANCH   1   7
ATOM      7  C   UNL     1      44.244   5.557  10.748  0.00  0.00    +0.000 C 
BRANCH   7  12
ATOM      8  C   UNL     1      45.770   3.659   7.987  0.00  0.00    +0.000 A 
ATOM      9  C   UNL     1      45.478   2.318   8.242  0.00  0.00    +0.000 A 
ATOM     10  C   UNL     1      44.683   2.035   9.345  0.00  0.00    +0.000 A 
ATOM     11  C   UNL     1      44.219   3.074  10.145  0.00  0.00    +0.000 A 
ATOM     12  C   UNL     1      44.585   4.389   9.845  0.00  0.00    +0.000 A 
ATOM     13  N   UNL     1      45.342   4.672   8.766  0.00  0.00    +0.000 NA
BRANCH   8  14
ATOM     14  O   UNL     1      46.543   3.977   6.890  0.00  0.00    +0.000 OA
BRANCH  14  15
ATOM     15  C   UNL     1      47.350   2.855   6.488  0.00  0.00    +0.000 C 
BRANCH  15  16
ATOM     16  C   UNL     1      47.012   2.500   5.045  0.00  0.00    +0.000 C 
BRANCH  16  18
ATOM     17  C   UNL     1      46.843   0.568   3.713  0.00  0.00    +0.000 C 
ATOM     18  O   UNL     1      47.594   1.239   4.715  0.00  0.00    +0.000 OA
ENDBRANCH  16  18
ENDBRANCH  15  16
ENDBRANCH  14  15
ENDBRANCH   8  14
ENDBRANCH   7  12
ENDBRANCH   1   7
BRANCH   4  19
ATOM     19  C   UNL     1      48.750   6.814  14.269  0.00  0.00    +0.000 C 
BRANCH  19  20
ATOM     20  N   UNL     1      48.448   7.027  15.665  0.00  0.00    +0.000 N 
ATOM     21  C   UNL     1      49.241   6.506  16.662  0.00  0.00    +0.000 C 
ATOM     22  O   UNL     1      50.250   5.848  16.434  0.00  0.00    +0.000 OA
ATOM     23  H   UNL     1      47.475   7.192  15.897  0.00  0.00    +0.000 HD
BRANCH  21  24
ATOM     24  C   UNL     1      48.832   6.834  18.037  0.00  0.00    +0.000 A 
ATOM     25  C   UNL     1      48.603   8.155  18.396  0.00  0.00    +0.000 A 
ATOM     26  S   UNL     1      48.156   8.349  20.032  0.00  0.00    +0.000 S 
ATOM     27  C   UNL     1      48.278   6.675  20.323  0.00  0.00    +0.000 A 
ATOM     28  N   UNL     1      48.059   6.154  21.565  0.00  0.00    +0.000 NA
ATOM     29  C   UNL     1      48.205   4.885  21.642  0.00  0.00    +0.000 A 
ATOM     30  N   UNL     1      48.536   4.067  20.589  0.00  0.00    +0.000 N 
ATOM     31  C   UNL     1      48.715   4.537  19.315  0.00  0.00    +0.000 A 
ATOM     32  O   UNL     1      48.925   3.772  18.373  0.00  0.00    +0.000 OA
ATOM     33  C   UNL     1      48.611   5.976  19.177  0.00  0.00    +0.000 A 
ATOM     34  H   UNL     1      48.604   3.066  20.711  0.00  0.00    +0.000 HD
ENDBRANCH  21  24
ENDBRANCH  19  20
ENDBRANCH   4  19
TORSDOF 9
ENDMDL
MODEL 3
REMARK VINA RESULT:    -7.335      3.028      8.697
REMARK INTER + INTRA:         -12.163
REMARK INTER:                 -10.443
REMARK INTRA:                  -1.720
REMARK UNBOUND:                -0.969
REMARK  Name = 
REMARK  10 active torsions:
REMARK  status: ('A' for Active; 'I' for Inactive)
REMARK    1  A    between atoms: C_1  and  O_2
REMARK    2  A    between atoms: O_2  and  C_3
REMARK    3  A    between atoms: C_3  and  C_4
REMARK    4  A    between atoms: C_4  and  O_5
REMARK    5  A    between atoms: O_5  and  C_6
REMARK    6  A    between atoms: C_10  and  C_11
REMARK    7  A    between atoms: C_11  and  C_12
REMARK    8  A    between atoms: C_15  and  C_16
REMARK    9  A    between atoms: C_16  and  N_17
REMARK   10  A    between atoms: C_18  and  C_20
REMARK                            x       y       z     vdW  Elec       q    Type
REMARK                         _______ _______ _______ _____ _____    ______ ____
ROOT
ATOM      1  C   UNL     1      49.415   8.342  15.826  0.00  0.00    +0.000 A 
ATOM      2  C   UNL     1      48.302   9.078  15.405  0.00  0.00    +0.000 A 
ATOM      3  C   UNL     1      47.788   8.925  14.113  0.00  0.00    +0.000 A 
ATOM      4  C   UNL     1      48.406   8.076  13.185  0.00  0.00    +0.000 A 
ATOM      5  C   UNL     1      49.574   7.410  13.584  0.00  0.00    +0.000 A 
ATOM      6  C   UNL     1      50.070   7.532  14.892  0.00  0.00    +0.000 A 
ENDROOT
BRANCH   1   7
ATOM      7  C   UNL     1      49.825   8.377  17.281  0.00  0.00    +0.000 C 
BRANCH   7  12
ATOM      8  C   UNL     1      47.962   5.584  18.791  0.00  0.00    +0.000 A 
ATOM      9  C   UNL     1      47.447   6.076  19.991  0.00  0.00    +0.000 A 
ATOM     10  C   UNL     1      47.672   7.416  20.282  0.00  0.00    +0.000 A 
ATOM     11  C   UNL     1      48.393   8.203  19.390  0.00  0.00    +0.000 A 
ATOM     12  C   UNL     1      48.908   7.627  18.226  0.00  0.00    +0.000 A 
ATOM     13  N   UNL     1      48.678   6.332  17.929  0.00  0.00    +0.000 NA
BRANCH   8  14
ATOM     14  O   UNL     1      47.743   4.263  18.463  0.00  0.00    +0.000 OA
BRANCH  14  15
ATOM     15  C   UNL     1      47.206   4.147  17.132  0.00  0.00    +0.000 C 
BRANCH  15  16
ATOM     16  C   UNL     1      48.014   3.108  16.366  0.00  0.00    +0.000 C 
BRANCH  16  18
ATOM     17  C   UNL     1      47.184   4.377  14.567  0.00  0.00    +0.000 C 
ATOM     18  O   UNL     1      47.595   3.089  15.001  0.00  0.00    +0.000 OA
ENDBRANCH  16  18
ENDBRANCH  15  16
ENDBRANCH  14  15
ENDBRANCH   8  14
ENDBRANCH   7  12
ENDBRANCH   1   7
BRANCH   4  19
ATOM     19  C   UNL     1      47.853   7.846  11.794  0.00  0.00    +0.000 C 
BRANCH  19  20
ATOM     20  N   UNL     1      47.033   6.661  11.693  0.00  0.00    +0.000 N 
ATOM     21  C   UNL     1      45.660   6.725  11.785  0.00  0.00    +0.000 C 
ATOM     22  O   UNL     1      45.052   7.777  11.944  0.00  0.00    +0.000 OA
ATOM     23  H   UNL     1      47.467   5.786  11.962  0.00  0.00    +0.000 HD
BRANCH  21  24
ATOM     24  C   UNL     1      44.953   5.445  11.627  0.00  0.00    +0.000 A 
ATOM     25  C   UNL     1      44.178   4.947  12.666  0.00  0.00    +0.000 A 
ATOM     26  S   UNL     1      43.449   3.445  12.314  0.00  0.00    +0.000 S 
ATOM     27  C   UNL     1      44.163   3.396  10.768  0.00  0.00    +0.000 A 
ATOM     28  N   UNL     1      43.977   2.331   9.936  0.00  0.00    +0.000 NA
ATOM     29  C   UNL     1      44.589   2.420   8.815  0.00  0.00    +0.000 A 
ATOM     30  N   UNL     1      45.366   3.484   8.427  0.00  0.00    +0.000 N 
ATOM     31  C   UNL     1      45.541   4.596   9.207  0.00  0.00    +0.000 A 
ATOM     32  O   UNL     1      46.171   5.573   8.799  0.00  0.00    +0.000 OA
ATOM     33  C   UNL     1      44.910   4.530  10.510  0.00  0.00    +0.000 A 
ATOM     34  H   UNL     1      45.797   3.505   7.513  0.00  0.00    +0.000 HD
ENDBRANCH  21  24
ENDBRANCH  19  20
ENDBRANCH   4  19
TORSDOF 9
ENDMDL
MODEL 4
REMARK VINA RESULT:    -7.235      1.576      2.307
REMARK INTER + INTRA:         -12.011
REMARK INTER:                 -10.439
REMARK INTRA:                  -1.571
REMARK UNBOUND:                -0.969
REMARK  Name = 
REMARK  10 active torsions:
REMARK  status: ('A' for Active; 'I' for Inactive)
REMARK    1  A    between atoms: C_1  and  O_2
REMARK    2  A    between atoms: O_2  and  C_3
REMARK    3  A    between atoms: C_3  and  C_4
REMARK    4  A    between atoms: C_4  and  O_5
REMARK    5  A    between atoms: O_5  and  C_6
REMARK    6  A    between atoms: C_10  and  C_11
REMARK    7  A    between atoms: C_11  and  C_12
REMARK    8  A    between atoms: C_15  and  C_16
REMARK    9  A    between atoms: C_16  and  N_17
REMARK   10  A    between atoms: C_18  and  C_20
REMARK                            x       y       z     vdW  Elec       q    Type
REMARK                         _______ _______ _______ _____ _____    ______ ____
ROOT
ATOM      1  C   UNL     1      45.816   7.431  11.792  0.00  0.00    +0.000 A 
ATOM      2  C   UNL     1      46.985   6.671  11.690  0.00  0.00    +0.000 A 
ATOM      3  C   UNL     1      48.109   6.976  12.465  0.00  0.00    +0.000 A 
ATOM      4  C   UNL     1      48.117   8.085  13.322  0.00  0.00    +0.000 A 
ATOM      5  C   UNL     1      46.973   8.896  13.352  0.00  0.00    +0.000 A 
ATOM      6  C   UNL     1      45.831   8.570  12.605  0.00  0.00    +0.000 A 
ENDROOT
BRANCH   1   7
ATOM      7  C   UNL     1      44.558   6.961  11.096  0.00  0.00    +0.000 C 
BRANCH   7  12
ATOM      8  C   UNL     1      43.873   3.353  10.830  0.00  0.00    +0.000 A 
ATOM      9  C   UNL     1      43.494   2.944  12.110  0.00  0.00    +0.000 A 
ATOM     10  C   UNL     1      43.398   3.923  13.092  0.00  0.00    +0.000 A 
ATOM     11  C   UNL     1      43.682   5.247  12.776  0.00  0.00    +0.000 A 
ATOM     12  C   UNL     1      44.091   5.572  11.480  0.00  0.00    +0.000 A 
ATOM     13  N   UNL     1      44.169   4.631  10.517  0.00  0.00    +0.000 NA
BRANCH   8  14
ATOM     14  O   UNL     1      43.962   2.412   9.827  0.00  0.00    +0.000 OA
BRANCH  14  15
ATOM     15  C   UNL     1      44.839   2.862   8.778  0.00  0.00    +0.000 C 
BRANCH  15  16
ATOM     16  C   UNL     1      45.826   1.747   8.452  0.00  0.00    +0.000 C 
BRANCH  16  18
ATOM     17  C   UNL     1      46.534   3.505   7.058  0.00  0.00    +0.000 C 
ATOM     18  O   UNL     1      46.893   2.271   7.661  0.00  0.00    +0.000 OA
ENDBRANCH  16  18
ENDBRANCH  15  16
ENDBRANCH  14  15
ENDBRANCH   8  14
ENDBRANCH   7  12
ENDBRANCH   1   7
BRANCH   4  19
ATOM     19  C   UNL     1      49.295   8.420  14.213  0.00  0.00    +0.000 C 
BRANCH  19  20
ATOM     20  N   UNL     1      49.331   7.643  15.430  0.00  0.00    +0.000 N 
ATOM     21  C   UNL     1      48.730   8.086  16.587  0.00  0.00    +0.000 C 
ATOM     22  O   UNL     1      48.122   9.148  16.655  0.00  0.00    +0.000 OA
ATOM     23  H   UNL     1      50.115   7.008  15.538  0.00  0.00    +0.000 HD
BRANCH  21  24
ATOM     24  C   UNL     1      48.816   7.174  17.737  0.00  0.00    +0.000 A 
ATOM     25  C   UNL     1      49.131   7.670  18.995  0.00  0.00    +0.000 A 
ATOM     26  S   UNL     1      49.206   6.468  20.204  0.00  0.00    +0.000 S 
ATOM     27  C   UNL     1      48.844   5.238  19.083  0.00  0.00    +0.000 A 
ATOM     28  N   UNL     1      48.794   3.928  19.462  0.00  0.00    +0.000 NA
ATOM     29  C   UNL     1      48.532   3.110  18.512  0.00  0.00    +0.000 A 
ATOM     30  N   UNL     1      48.297   3.471  17.208  0.00  0.00    +0.000 N 
ATOM     31  C   UNL     1      48.287   4.775  16.791  0.00  0.00    +0.000 A 
ATOM     32  O   UNL     1      47.988   5.078  15.635  0.00  0.00    +0.000 OA
ATOM     33  C   UNL     1      48.627   5.744  17.815  0.00  0.00    +0.000 A 
ATOM     34  H   UNL     1      48.063   2.777  16.511  0.00  0.00    +0.000 HD
ENDBRANCH  21  24
ENDBRANCH  19  20
ENDBRANCH   4  19
TORSDOF 9
ENDMDL
MODEL 5
REMARK VINA RESULT:    -6.860      1.806      2.248
REMARK INTER + INTRA:         -11.439
REMARK INTER:                 -10.368
REMARK INTRA:                  -1.070
REMARK UNBOUND:                -0.969
REMARK  Name = 
REMARK  10 active torsions:
REMARK  status: ('A' for Active; 'I' for Inactive)
REMARK    1  A    between atoms: C_1  and  O_2
REMARK    2  A    between atoms: O_2  and  C_3
REMARK    3  A    between atoms: C_3  and  C_4
REMARK    4  A    between atoms: C_4  and  O_5
REMARK    5  A    between atoms: O_5  and  C_6
REMARK    6  A    between atoms: C_10  and  C_11
REMARK    7  A    between atoms: C_11  and  C_12
REMARK    8  A    between atoms: C_15  and  C_16
REMARK    9  A    between atoms: C_16  and  N_17
REMARK   10  A    between atoms: C_18  and  C_20
REMARK                            x       y       z     vdW  Elec       q    Type
REMARK                         _______ _______ _______ _____ _____    ______ ____
ROOT
ATOM      1  C   UNL     1      45.290   6.564  11.647  0.00  0.00    +0.000 A 
ATOM      2  C   UNL     1      46.430   5.779  11.845  0.00  0.00    +0.000 A 
ATOM      3  C   UNL     1      47.437   6.188  12.726  0.00  0.00    +0.000 A 
ATOM      4  C   UNL     1      47.361   7.420  13.389  0.00  0.00    +0.000 A 
ATOM      5  C   UNL     1      46.259   8.242  13.116  0.00  0.00    +0.000 A 
ATOM      6  C   UNL     1      45.229   7.818  12.263  0.00  0.00    +0.000 A 
ENDROOT
BRANCH   1   7
ATOM      7  C   UNL     1      44.131   6.007  10.848  0.00  0.00    +0.000 C 
BRANCH   7  12
ATOM      8  C   UNL     1      45.572   3.859   8.228  0.00  0.00    +0.000 A 
ATOM      9  C   UNL     1      45.284   2.549   8.612  0.00  0.00    +0.000 A 
ATOM     10  C   UNL     1      44.520   2.371   9.759  0.00  0.00    +0.000 A 
ATOM     11  C   UNL     1      44.082   3.480  10.474  0.00  0.00    +0.000 A 
ATOM     12  C   UNL     1      44.443   4.760  10.046  0.00  0.00    +0.000 A 
ATOM     13  N   UNL     1      45.170   4.941   8.924  0.00  0.00    +0.000 NA
BRANCH   8  14
ATOM     14  O   UNL     1      46.314   4.073   7.086  0.00  0.00    +0.000 OA
BRANCH  14  15
ATOM     15  C   UNL     1      47.101   2.913   6.761  0.00  0.00    +0.000 C 
BRANCH  15  16
ATOM     16  C   UNL     1      47.336   2.886   5.256  0.00  0.00    +0.000 C 
BRANCH  16  18
ATOM     17  C   UNL     1      47.275   0.610   5.845  0.00  0.00    +0.000 C 
ATOM     18  O   UNL     1      47.625   1.550   4.841  0.00  0.00    +0.000 OA
ENDBRANCH  16  18
ENDBRANCH  15  16
ENDBRANCH  14  15
ENDBRANCH   8  14
ENDBRANCH   7  12
ENDBRANCH   1   7
BRANCH   4  19
ATOM     19  C   UNL     1      48.406   7.876  14.386  0.00  0.00    +0.000 C 
BRANCH  19  20
ATOM     20  N   UNL     1      48.229   7.306  15.702  0.00  0.00    +0.000 N 
ATOM     21  C   UNL     1      49.203   6.529  16.288  0.00  0.00    +0.000 C 
ATOM     22  O   UNL     1      50.274   6.284  15.745  0.00  0.00    +0.000 OA
ATOM     23  H   UNL     1      47.274   7.138  15.998  0.00  0.00    +0.000 HD
BRANCH  21  24
ATOM     24  C   UNL     1      48.900   6.046  17.644  0.00  0.00    +0.000 A 
ATOM     25  C   UNL     1      49.058   4.702  17.954  0.00  0.00    +0.000 A 
ATOM     26  S   UNL     1      48.642   4.320  19.565  0.00  0.00    +0.000 S 
ATOM     27  C   UNL     1      48.214   5.935  19.897  0.00  0.00    +0.000 A 
ATOM     28  N   UNL     1      47.724   6.300  21.117  0.00  0.00    +0.000 NA
ATOM     29  C   UNL     1      47.425   7.541  21.219  0.00  0.00    +0.000 A 
ATOM     30  N   UNL     1      47.581   8.471  20.221  0.00  0.00    +0.000 N 
ATOM     31  C   UNL     1      48.116   8.162  18.999  0.00  0.00    +0.000 A 
ATOM     32  O   UNL     1      48.327   9.031  18.152  0.00  0.00    +0.000 OA
ATOM     33  C   UNL     1      48.427   6.760  18.808  0.00  0.00    +0.000 A 
ATOM     34  H   UNL     1      47.355   9.444  20.378  0.00  0.00    +0.000 HD
ENDBRANCH  21  24
ENDBRANCH  19  20
ENDBRANCH   4  19
TORSDOF 9
ENDMDL
MODEL 6
REMARK VINA RESULT:    -6.642      1.561      2.056
REMARK INTER + INTRA:         -11.106
REMARK INTER:                  -9.795
REMARK INTRA:                  -1.311
REMARK UNBOUND:                -0.969
REMARK  Name = 
REMARK  10 active torsions:
REMARK  status: ('A' for Active; 'I' for Inactive)
REMARK    1  A    between atoms: C_1  and  O_2
REMARK    2  A    between atoms: O_2  and  C_3
REMARK    3  A    between atoms: C_3  and  C_4
REMARK    4  A    between atoms: C_4  and  O_5
REMARK    5  A    between atoms: O_5  and  C_6
REMARK    6  A    between atoms: C_10  and  C_11
REMARK    7  A    between atoms: C_11  and  C_12
REMARK    8  A    between atoms: C_15  and  C_16
REMARK    9  A    between atoms: C_16  and  N_17
REMARK   10  A    between atoms: C_18  and  C_20
REMARK                            x       y       z     vdW  Elec       q    Type
REMARK                         _______ _______ _______ _____ _____    ______ ____
ROOT
ATOM      1  C   UNL     1      45.245   7.031  12.194  0.00  0.00    +0.000 A 
ATOM      2  C   UNL     1      45.385   8.386  12.509  0.00  0.00    +0.000 A 
ATOM      3  C   UNL     1      46.510   8.848  13.203  0.00  0.00    +0.000 A 
ATOM      4  C   UNL     1      47.497   7.960  13.653  0.00  0.00    +0.000 A 
ATOM      5  C   UNL     1      47.304   6.593  13.412  0.00  0.00    +0.000 A 
ATOM      6  C   UNL     1      46.197   6.131  12.684  0.00  0.00    +0.000 A 
ENDROOT
BRANCH   1   7
ATOM      7  C   UNL     1      44.126   6.592  11.275  0.00  0.00    +0.000 C 
BRANCH   7  12
ATOM      8  C   UNL     1      44.743   3.215   9.945  0.00  0.00    +0.000 A 
ATOM      9  C   UNL     1      44.043   2.345  10.781  0.00  0.00    +0.000 A 
ATOM     10  C   UNL     1      43.277   2.909  11.794  0.00  0.00    +0.000 A 
ATOM     11  C   UNL     1      43.239   4.291  11.941  0.00  0.00    +0.000 A 
ATOM     12  C   UNL     1      43.998   5.094  11.087  0.00  0.00    +0.000 A 
ATOM     13  N   UNL     1      44.730   4.555  10.091  0.00  0.00    +0.000 NA
BRANCH   8  14
ATOM     14  O   UNL     1      45.501   2.691   8.919  0.00  0.00    +0.000 OA
BRANCH  14  15
ATOM     15  C   UNL     1      45.342   3.466   7.716  0.00  0.00    +0.000 C 
BRANCH  15  16
ATOM     16  C   UNL     1      46.667   3.482   6.965  0.00  0.00    +0.000 C 
BRANCH  16  18
ATOM     17  C   UNL     1      47.429   1.346   6.338  0.00  0.00    +0.000 C 
ATOM     18  O   UNL     1      47.445   2.346   7.346  0.00  0.00    +0.000 OA
ENDBRANCH  16  18
ENDBRANCH  15  16
ENDBRANCH  14  15
ENDBRANCH   8  14
ENDBRANCH   7  12
ENDBRANCH   1   7
BRANCH   4  19
ATOM     19  C   UNL     1      48.750   8.426  14.363  0.00  0.00    +0.000 C 
BRANCH  19  20
ATOM     20  N   UNL     1      49.484   7.353  14.993  0.00  0.00    +0.000 N 
ATOM     21  C   UNL     1      49.821   7.396  16.328  0.00  0.00    +0.000 C 
ATOM     22  O   UNL     1      49.514   8.330  17.061  0.00  0.00    +0.000 OA
ATOM     23  H   UNL     1      50.081   6.798  14.391  0.00  0.00    +0.000 HD
BRANCH  21  24
ATOM     24  C   UNL     1      50.535   6.218  16.841  0.00  0.00    +0.000 A 
ATOM     25  C   UNL     1      51.860   6.329  17.241  0.00  0.00    +0.000 A 
ATOM     26  S   UNL     1      52.532   4.859  17.790  0.00  0.00    +0.000 S 
ATOM     27  C   UNL     1      51.082   4.018  17.490  0.00  0.00    +0.000 A 
ATOM     28  N   UNL     1      50.984   2.674  17.710  0.00  0.00    +0.000 NA
ATOM     29  C   UNL     1      49.843   2.171  17.421  0.00  0.00    +0.000 A 
ATOM     30  N   UNL     1      48.769   2.882  16.944  0.00  0.00    +0.000 N 
ATOM     31  C   UNL     1      48.804   4.238  16.756  0.00  0.00    +0.000 A 
ATOM     32  O   UNL     1      47.801   4.864  16.411  0.00  0.00    +0.000 OA
ATOM     33  C   UNL     1      50.088   4.856  17.019  0.00  0.00    +0.000 A 
ATOM     34  H   UNL     1      47.884   2.427  16.767  0.00  0.00    +0.000 HD
ENDBRANCH  21  24
ENDBRANCH  19  20
ENDBRANCH   4  19
TORSDOF 9
ENDMDL
MODEL 7
REMARK VINA RESULT:    -6.625      3.850      8.571
REMARK INTER + INTRA:         -11.080
REMARK INTER:                  -9.743
REMARK INTRA:                  -1.337
REMARK UNBOUND:                -0.969
REMARK  Name = 
REMARK  10 active torsions:
REMARK  status: ('A' for Active; 'I' for Inactive)
REMARK    1  A    between atoms: C_1  and  O_2
REMARK    2  A    between atoms: O_2  and  C_3
REMARK    3  A    between atoms: C_3  and  C_4
REMARK    4  A    between atoms: C_4  and  O_5
REMARK    5  A    between atoms: O_5  and  C_6
REMARK    6  A    between atoms: C_10  and  C_11
REMARK    7  A    between atoms: C_11  and  C_12
REMARK    8  A    between atoms: C_15  and  C_16
REMARK    9  A    between atoms: C_16  and  N_17
REMARK   10  A    between atoms: C_18  and  C_20
REMARK                            x       y       z     vdW  Elec       q    Type
REMARK                         _______ _______ _______ _____ _____    ______ ____
ROOT
ATOM      1  C   UNL     1      49.230   8.168  16.083  0.00  0.00    +0.000 A 
ATOM      2  C   UNL     1      49.828   7.263  15.201  0.00  0.00    +0.000 A 
ATOM      3  C   UNL     1      49.528   7.290  13.834  0.00  0.00    +0.000 A 
ATOM      4  C   UNL     1      48.579   8.183  13.319  0.00  0.00    +0.000 A 
ATOM      5  C   UNL     1      47.918   9.026  14.223  0.00  0.00    +0.000 A 
ATOM      6  C   UNL     1      48.244   9.029  15.588  0.00  0.00    +0.000 A 
ENDROOT
BRANCH   1   7
ATOM      7  C   UNL     1      49.719   8.249  17.512  0.00  0.00    +0.000 C 
BRANCH   7  12
ATOM      8  C   UNL     1      48.169   5.077  18.557  0.00  0.00    +0.000 A 
ATOM      9  C   UNL     1      48.782   4.735  19.763  0.00  0.00    +0.000 A 
ATOM     10  C   UNL     1      49.705   5.631  20.288  0.00  0.00    +0.000 A 
ATOM     11  C   UNL     1      49.986   6.810  19.606  0.00  0.00    +0.000 A 
ATOM     12  C   UNL     1      49.358   7.064  18.384  0.00  0.00    +0.000 A 
ATOM     13  N   UNL     1      48.448   6.208  17.877  0.00  0.00    +0.000 NA
BRANCH   8  14
ATOM     14  O   UNL     1      47.235   4.219  18.014  0.00  0.00    +0.000 OA
BRANCH  14  15
ATOM     15  C   UNL     1      47.610   3.830  16.680  0.00  0.00    +0.000 C 
BRANCH  15  16
ATOM     16  C   UNL     1      48.143   2.404  16.718  0.00  0.00    +0.000 C 
BRANCH  16  18
ATOM     17  C   UNL     1      50.440   2.414  17.226  0.00  0.00    +0.000 C 
ATOM     18  O   UNL     1      49.470   2.376  16.190  0.00  0.00    +0.000 OA
ENDBRANCH  16  18
ENDBRANCH  15  16
ENDBRANCH  14  15
ENDBRANCH   8  14
ENDBRANCH   7  12
ENDBRANCH   1   7
BRANCH   4  19
ATOM     19  C   UNL     1      48.264   8.276  11.841  0.00  0.00    +0.000 C 
BRANCH  19  20
ATOM     20  N   UNL     1      47.581   7.111  11.327  0.00  0.00    +0.000 N 
ATOM     21  C   UNL     1      46.209   7.008  11.357  0.00  0.00    +0.000 C 
ATOM     22  O   UNL     1      45.485   7.891  11.804  0.00  0.00    +0.000 OA
ATOM     23  H   UNL     1      48.103   6.242  11.332  0.00  0.00    +0.000 HD
BRANCH  21  24
ATOM     24  C   UNL     1      45.650   5.783  10.765  0.00  0.00    +0.000 A 
ATOM     25  C   UNL     1      45.831   5.519   9.415  0.00  0.00    +0.000 A 
ATOM     26  S   UNL     1      45.100   4.065   8.900  0.00  0.00    +0.000 S 
ATOM     27  C   UNL     1      44.495   3.750  10.460  0.00  0.00    +0.000 A 
ATOM     28  N   UNL     1      43.723   2.653  10.712  0.00  0.00    +0.000 NA
ATOM     29  C   UNL     1      43.321   2.554  11.924  0.00  0.00    +0.000 A 
ATOM     30  N   UNL     1      43.627   3.440  12.927  0.00  0.00    +0.000 N 
ATOM     31  C   UNL     1      44.438   4.526  12.734  0.00  0.00    +0.000 A 
ATOM     32  O   UNL     1      44.767   5.256  13.670  0.00  0.00    +0.000 OA
ATOM     33  C   UNL     1      44.883   4.718  11.369  0.00  0.00    +0.000 A 
ATOM     34  H   UNL     1      43.302   3.285  13.872  0.00  0.00    +0.000 HD
ENDBRANCH  21  24
ENDBRANCH  19  20
ENDBRANCH   4  19
TORSDOF 9
ENDMDL
MODEL 8
REMARK VINA RESULT:    -6.581      2.372      2.926
REMARK INTER + INTRA:         -11.013
REMARK INTER:                  -9.654
REMARK INTRA:                  -1.359
REMARK UNBOUND:                -0.969
REMARK  Name = 
REMARK  10 active torsions:
REMARK  status: ('A' for Active; 'I' for Inactive)
REMARK    1  A    between atoms: C_1  and  O_2
REMARK    2  A    between atoms: O_2  and  C_3
REMARK    3  A    between atoms: C_3  and  C_4
REMARK    4  A    between atoms: C_4  and  O_5
REMARK    5  A    between atoms: O_5  and  C_6
REMARK    6  A    between atoms: C_10  and  C_11
REMARK    7  A    between atoms: C_11  and  C_12
REMARK    8  A    between atoms: C_15  and  C_16
REMARK    9  A    between atoms: C_16  and  N_17
REMARK   10  A    between atoms: C_18  and  C_20
REMARK                            x       y       z     vdW  Elec       q    Type
REMARK                         _______ _______ _______ _____ _____    ______ ____
ROOT
ATOM      1  C   UNL     1      45.927   6.679  12.840  0.00  0.00    +0.000 A 
ATOM      2  C   UNL     1      46.128   8.042  12.602  0.00  0.00    +0.000 A 
ATOM      3  C   UNL     1      47.420   8.577  12.543  0.00  0.00    +0.000 A 
ATOM      4  C   UNL     1      48.545   7.776  12.779  0.00  0.00    +0.000 A 
ATOM      5  C   UNL     1      48.332   6.429  13.107  0.00  0.00    +0.000 A 
ATOM      6  C   UNL     1      47.040   5.882  13.129  0.00  0.00    +0.000 A 
ENDROOT
BRANCH   1   7
ATOM      7  C   UNL     1      44.538   6.095  12.700  0.00  0.00    +0.000 C 
BRANCH   7  12
ATOM      8  C   UNL     1      44.995   4.309   9.513  0.00  0.00    +0.000 A 
ATOM      9  C   UNL     1      44.417   3.052   9.697  0.00  0.00    +0.000 A 
ATOM     10  C   UNL     1      43.788   2.809  10.912  0.00  0.00    +0.000 A 
ATOM     11  C   UNL     1      43.762   3.801  11.885  0.00  0.00    +0.000 A 
ATOM     12  C   UNL     1      44.396   5.022  11.640  0.00  0.00    +0.000 A 
ATOM     13  N   UNL     1      44.992   5.272  10.456  0.00  0.00    +0.000 NA
BRANCH   8  14
ATOM     14  O   UNL     1      45.612   4.591   8.313  0.00  0.00    +0.000 OA
BRANCH  14  15
ATOM     15  C   UNL     1      45.441   3.508   7.380  0.00  0.00    +0.000 C 
BRANCH  15  16
ATOM     16  C   UNL     1      46.704   3.381   6.539  0.00  0.00    +0.000 C 
BRANCH  16  18
ATOM     17  C   UNL     1      46.955   1.235   7.469  0.00  0.00    +0.000 C 
ATOM     18  O   UNL     1      47.601   2.461   7.161  0.00  0.00    +0.000 OA
ENDBRANCH  16  18
ENDBRANCH  15  16
ENDBRANCH  14  15
ENDBRANCH   8  14
ENDBRANCH   7  12
ENDBRANCH   1   7
BRANCH   4  19
ATOM     19  C   UNL     1      49.960   8.305  12.677  0.00  0.00    +0.000 C 
BRANCH  19  20
ATOM     20  N   UNL     1      50.876   7.675  13.599  0.00  0.00    +0.000 N 
ATOM     21  C   UNL     1      51.663   8.416  14.452  0.00  0.00    +0.000 C 
ATOM     22  O   UNL     1      51.630   9.640  14.492  0.00  0.00    +0.000 OA
ATOM     23  H   UNL     1      51.225   6.760  13.336  0.00  0.00    +0.000 HD
BRANCH  21  24
ATOM     24  C   UNL     1      52.521   7.640  15.360  0.00  0.00    +0.000 A 
ATOM     25  C   UNL     1      53.883   7.901  15.422  0.00  0.00    +0.000 A 
ATOM     26  S   UNL     1      54.723   6.892  16.513  0.00  0.00    +0.000 S 
ATOM     27  C   UNL     1      53.297   6.055  16.924  0.00  0.00    +0.000 A 
ATOM     28  N   UNL     1      53.319   5.009  17.801  0.00  0.00    +0.000 NA
ATOM     29  C   UNL     1      52.179   4.461  18.000  0.00  0.00    +0.000 A 
ATOM     30  N   UNL     1      51.002   4.862  17.418  0.00  0.00    +0.000 N 
ATOM     31  C   UNL     1      50.923   5.935  16.572  0.00  0.00    +0.000 A 
ATOM     32  O   UNL     1      49.841   6.328  16.132  0.00  0.00    +0.000 OA
ATOM     33  C   UNL     1      52.192   6.567  16.270  0.00  0.00    +0.000 A 
ATOM     34  H   UNL     1      50.129   4.404  17.643  0.00  0.00    +0.000 HD
ENDBRANCH  21  24
ENDBRANCH  19  20
ENDBRANCH   4  19
TORSDOF 9
ENDMDL
MODEL 9
REMARK VINA RESULT:    -6.344      1.932      2.629
REMARK INTER + INTRA:         -10.651
REMARK INTER:                  -9.617
REMARK INTRA:                  -1.034
REMARK UNBOUND:                -0.969
REMARK  Name = 
REMARK  10 active torsions:
REMARK  status: ('A' for Active; 'I' for Inactive)
REMARK    1  A    between atoms: C_1  and  O_2
REMARK    2  A    between atoms: O_2  and  C_3
REMARK    3  A    between atoms: C_3  and  C_4
REMARK    4  A    between atoms: C_4  and  O_5
REMARK    5  A    between atoms: O_5  and  C_6
REMARK    6  A    between atoms: C_10  and  C_11
REMARK    7  A    between atoms: C_11  and  C_12
REMARK    8  A    between atoms: C_15  and  C_16
REMARK    9  A    between atoms: C_16  and  N_17
REMARK   10  A    between atoms: C_18  and  C_20
REMARK                            x       y       z     vdW  Elec       q    Type
REMARK                         _______ _______ _______ _____ _____    ______ ____
ROOT
ATOM      1  C   UNL     1      45.705   7.043  12.564  0.00  0.00    +0.000 A 
ATOM      2  C   UNL     1      45.937   8.336  13.041  0.00  0.00    +0.000 A 
ATOM      3  C   UNL     1      47.119   8.647  13.723  0.00  0.00    +0.000 A 
ATOM      4  C   UNL     1      48.076   7.661  13.999  0.00  0.00    +0.000 A 
ATOM      5  C   UNL     1      47.794   6.348  13.597  0.00  0.00    +0.000 A 
ATOM      6  C   UNL     1      46.628   6.040  12.880  0.00  0.00    +0.000 A 
ENDROOT
BRANCH   1   7
ATOM      7  C   UNL     1      44.519   6.783  11.662  0.00  0.00    +0.000 C 
BRANCH   7  12
ATOM      8  C   UNL     1      44.397   3.445  10.114  0.00  0.00    +0.000 A 
ATOM      9  C   UNL     1      43.809   2.608  11.064  0.00  0.00    +0.000 A 
ATOM     10  C   UNL     1      43.373   3.191  12.247  0.00  0.00    +0.000 A 
ATOM     11  C   UNL     1      43.538   4.558  12.444  0.00  0.00    +0.000 A 
ATOM     12  C   UNL     1      44.170   5.323  11.461  0.00  0.00    +0.000 A 
ATOM     13  N   UNL     1      44.581   4.767  10.302  0.00  0.00    +0.000 NA
BRANCH   8  14
ATOM     14  O   UNL     1      44.828   2.903   8.921  0.00  0.00    +0.000 OA
BRANCH  14  15
ATOM     15  C   UNL     1      45.405   3.916   8.077  0.00  0.00    +0.000 C 
BRANCH  15  16
ATOM     16  C   UNL     1      46.112   3.236   6.911  0.00  0.00    +0.000 C 
BRANCH  16  18
ATOM     17  C   UNL     1      47.635   1.444   6.915  0.00  0.00    +0.000 C 
ATOM     18  O   UNL     1      47.398   2.779   7.333  0.00  0.00    +0.000 OA
ENDBRANCH  16  18
ENDBRANCH  15  16
ENDBRANCH  14  15
ENDBRANCH   8  14
ENDBRANCH   7  12
ENDBRANCH   1   7
BRANCH   4  19
ATOM     19  C   UNL     1      49.387   7.967  14.691  0.00  0.00    +0.000 C 
BRANCH  19  20
ATOM     20  N   UNL     1      49.652   7.111  15.823  0.00  0.00    +0.000 N 
ATOM     21  C   UNL     1      49.881   7.627  17.079  0.00  0.00    +0.000 C 
ATOM     22  O   UNL     1      49.865   8.829  17.317  0.00  0.00    +0.000 OA
ATOM     23  H   UNL     1      50.062   6.206  15.621  0.00  0.00    +0.000 HD
BRANCH  21  24
ATOM     24  C   UNL     1      50.100   6.635  18.143  0.00  0.00    +0.000 A 
ATOM     25  C   UNL     1      51.297   5.935  18.205  0.00  0.00    +0.000 A 
ATOM     26  S   UNL     1      51.367   4.815  19.491  0.00  0.00    +0.000 S 
ATOM     27  C   UNL     1      49.789   5.210  19.996  0.00  0.00    +0.000 A 
ATOM     28  N   UNL     1      49.202   4.571  21.049  0.00  0.00    +0.000 NA
ATOM     29  C   UNL     1      48.008   4.955  21.304  0.00  0.00    +0.000 A 
ATOM     30  N   UNL     1      47.335   5.935  20.617  0.00  0.00    +0.000 N 
ATOM     31  C   UNL     1      47.900   6.639  19.588  0.00  0.00    +0.000 A 
ATOM     32  O   UNL     1      47.306   7.572  19.046  0.00  0.00    +0.000 OA
ATOM     33  C   UNL     1      49.236   6.213  19.221  0.00  0.00    +0.000 A 
ATOM     34  H   UNL     1      46.402   6.214  20.892  0.00  0.00    +0.000 HD
ENDBRANCH  21  24
ENDBRANCH  19  20
ENDBRANCH   4  19
TORSDOF 9
ENDMDL
