MODEL 1
REMARK VINA RESULT:    -7.370      0.000      0.000
REMARK INTER + INTRA:         -11.892
REMARK INTER:                 -10.386
REMARK INTRA:                  -1.506
REMARK UNBOUND:                -1.506
REMARK  Name = 
REMARK  9 active torsions:
REMARK  status: ('A' for Active; 'I' for Inactive)
REMARK    1  A    between atoms: C_1  and  C_2
REMARK    2  A    between atoms: C_2  and  C_3
REMARK    3  A    between atoms: C_2  and  N_9
REMARK    4  A    between atoms: N_9  and  C_10
REMARK    5  A    between atoms: N_9  and  C_11
REMARK    6  A    between atoms: C_11  and  C_12
REMARK    7  A    between atoms: C_15  and  C_16
REMARK    8  A    between atoms: C_16  and  N_17
REMARK    9  A    between atoms: C_18  and  C_20
REMARK                            x       y       z     vdW  Elec       q    Type
REMARK                         _______ _______ _______ _____ _____    ______ ____
ROOT
ATOM      1  C   UNL     1      49.911   6.985  16.212  0.00  0.00    +0.000 A 
ATOM      2  C   UNL     1      50.700   7.650  15.271  0.00  0.00    +0.000 A 
ATOM      3  C   UNL     1      50.253   7.954  13.997  0.00  0.00    +0.000 A 
ATOM      4  C   UNL     1      49.017   7.496  13.572  0.00  0.00    +0.000 A 
ATOM      5  C   UNL     1      48.267   6.686  14.432  0.00  0.00    +0.000 A 
ATOM      6  C   UNL     1      48.702   6.447  15.745  0.00  0.00    +0.000 A 
ENDROOT
BRANCH   1   7
ATOM      7  C   UNL     1      50.341   6.755  17.654  0.00  0.00    +0.000 C 
BRANCH   7   8
ATOM      8  N   UNL     1      49.350   6.231  18.640  0.00  0.00    +0.000 NA
ATOM      9  C   UNL     1      49.036   7.259  19.634  0.00  0.00    +0.000 C 
BRANCH   8  11
ATOM     10  C   UNL     1      48.859   4.495  20.467  0.00  0.00    +0.000 C 
ATOM     11  C   UNL     1      49.661   4.904  19.223  0.00  0.00    +0.000 C 
BRANCH  11  12
ATOM     12  C   UNL     1      49.591   3.775  18.198  0.00  0.00    +0.000 A 
ATOM     13  C   UNL     1      48.397   3.464  17.537  0.00  0.00    +0.000 A 
ATOM     14  C   UNL     1      48.404   2.470  16.572  0.00  0.00    +0.000 A 
ATOM     15  N   UNL     1      49.498   1.754  16.236  0.00  0.00    +0.000 NA
ATOM     16  C   UNL     1      50.639   2.054  16.890  0.00  0.00    +0.000 A 
ATOM     17  C   UNL     1      50.734   3.038  17.863  0.00  0.00    +0.000 A 
ENDBRANCH  11  12
ENDBRANCH   8  11
ENDBRANCH   7   8
ENDBRANCH   1   7
BRANCH   4  18
ATOM     18  C   UNL     1      48.586   7.828  12.178  0.00  0.00    +0.000 C 
BRANCH  18  19
ATOM     19  N   UNL     1      47.808   6.754  11.619  0.00  0.00    +0.000 N 
ATOM     20  C   UNL     1      46.452   6.867  11.489  0.00  0.00    +0.000 C 
ATOM     21  O   UNL     1      45.846   7.887  11.809  0.00  0.00    +0.000 OA
ATOM     22  H   UNL     1      48.234   5.833  11.596  0.00  0.00    +0.000 HD
BRANCH  20  23
ATOM     23  C   UNL     1      45.761   5.738  10.860  0.00  0.00    +0.000 A 
ATOM     24  C   UNL     1      45.865   5.577   9.486  0.00  0.00    +0.000 A 
ATOM     25  S   UNL     1      45.058   4.202   8.893  0.00  0.00    +0.000 S 
ATOM     26  C   UNL     1      44.486   3.800  10.452  0.00  0.00    +0.000 A 
ATOM     27  N   UNL     1      43.696   2.713  10.642  0.00  0.00    +0.000 NA
ATOM     28  C   UNL     1      43.314   2.546  11.861  0.00  0.00    +0.000 A 
ATOM     29  N   UNL     1      43.664   3.358  12.911  0.00  0.00    +0.000 N 
ATOM     30  C   UNL     1      44.518   4.429  12.777  0.00  0.00    +0.000 A 
ATOM     31  O   UNL     1      44.900   5.069  13.753  0.00  0.00    +0.000 OA
ATOM     32  C   UNL     1      44.941   4.684  11.414  0.00  0.00    +0.000 A 
ATOM     33  H   UNL     1      43.347   3.149  13.846  0.00  0.00    +0.000 HD
ENDBRANCH  20  23
ENDBRANCH  18  19
ENDBRANCH   4  18
TORSDOF 7
ENDMDL
MODEL 2
REMARK VINA RESULT:    -6.959      1.498      2.184
REMARK INTER + INTRA:         -11.313
REMARK INTER:                  -9.861
REMARK INTRA:                  -1.453
REMARK UNBOUND:                -1.506
REMARK  Name = 
REMARK  9 active torsions:
REMARK  status: ('A' for Active; 'I' for Inactive)
REMARK    1  A    between atoms: C_1  and  C_2
REMARK    2  A    between atoms: C_2  and  C_3
REMARK    3  A    between atoms: C_2  and  N_9
REMARK    4  A    between atoms: N_9  and  C_10
REMARK    5  A    between atoms: N_9  and  C_11
REMARK    6  A    between atoms: C_11  and  C_12
REMARK    7  A    between atoms: C_15  and  C_16
REMARK    8  A    between atoms: C_16  and  N_17
REMARK    9  A    between atoms: C_18  and  C_20
REMARK                            x       y       z     vdW  Elec       q    Type
REMARK                         _______ _______ _______ _____ _____    ______ ____
ROOT
ATOM      1  C   UNL     1      49.100   7.626  16.152  0.00  0.00    +0.000 A 
ATOM      2  C   UNL     1      48.850   6.488  15.380  0.00  0.00    +0.000 A 
ATOM      3  C   UNL     1      48.360   6.552  14.088  0.00  0.00    +0.000 A 
ATOM      4  C   UNL     1      47.989   7.774  13.551  0.00  0.00    +0.000 A 
ATOM      5  C   UNL     1      48.071   8.916  14.353  0.00  0.00    +0.000 A 
ATOM      6  C   UNL     1      48.637   8.846  15.636  0.00  0.00    +0.000 A 
ENDROOT
BRANCH   1   7
ATOM      7  C   UNL     1      49.756   7.579  17.525  0.00  0.00    +0.000 C 
BRANCH   7   8
ATOM      8  N   UNL     1      49.289   6.575  18.527  0.00  0.00    +0.000 NA
ATOM      9  C   UNL     1      48.748   7.254  19.705  0.00  0.00    +0.000 C 
BRANCH   8  11
ATOM     10  C   UNL     1      50.425   5.143  20.330  0.00  0.00    +0.000 C 
ATOM     11  C   UNL     1      50.245   5.488  18.844  0.00  0.00    +0.000 C 
BRANCH  11  12
ATOM     12  C   UNL     1      49.959   4.203  18.071  0.00  0.00    +0.000 A 
ATOM     13  C   UNL     1      48.672   3.899  17.614  0.00  0.00    +0.000 A 
ATOM     14  C   UNL     1      48.480   2.749  16.864  0.00  0.00    +0.000 A 
ATOM     15  N   UNL     1      49.463   1.876  16.560  0.00  0.00    +0.000 NA
ATOM     16  C   UNL     1      50.697   2.174  17.018  0.00  0.00    +0.000 A 
ATOM     17  C   UNL     1      50.990   3.304  17.766  0.00  0.00    +0.000 A 
ENDBRANCH  11  12
ENDBRANCH   8  11
ENDBRANCH   7   8
ENDBRANCH   1   7
BRANCH   4  18
ATOM     18  C   UNL     1      47.440   7.790  12.158  0.00  0.00    +0.000 C 
BRANCH  18  19
ATOM     19  N   UNL     1      46.792   6.541  11.854  0.00  0.00    +0.000 N 
ATOM     20  C   UNL     1      45.441   6.398  12.012  0.00  0.00    +0.000 C 
ATOM     21  O   UNL     1      44.724   7.323  12.386  0.00  0.00    +0.000 OA
ATOM     22  H   UNL     1      47.377   5.714  11.802  0.00  0.00    +0.000 HD
BRANCH  20  23
ATOM     23  C   UNL     1      44.874   5.103  11.625  0.00  0.00    +0.000 A 
ATOM     24  C   UNL     1      44.124   4.402  12.557  0.00  0.00    +0.000 A 
ATOM     25  S   UNL     1      43.484   2.940  11.964  0.00  0.00    +0.000 S 
ATOM     26  C   UNL     1      44.241   3.164  10.449  0.00  0.00    +0.000 A 
ATOM     27  N   UNL     1      44.108   2.238   9.465  0.00  0.00    +0.000 NA
ATOM     28  C   UNL     1      44.754   2.520   8.386  0.00  0.00    +0.000 A 
ATOM     29  N   UNL     1      45.507   3.652   8.195  0.00  0.00    +0.000 N 
ATOM     30  C   UNL     1      45.611   4.650   9.138  0.00  0.00    +0.000 A 
ATOM     31  O   UNL     1      46.200   5.700   8.897  0.00  0.00    +0.000 OA
ATOM     32  C   UNL     1      44.936   4.358  10.388  0.00  0.00    +0.000 A 
ATOM     33  H   UNL     1      45.964   3.818   7.312  0.00  0.00    +0.000 HD
ENDBRANCH  20  23
ENDBRANCH  18  19
ENDBRANCH   4  18
TORSDOF 7
ENDMDL
MODEL 3
REMARK VINA RESULT:    -6.451      1.614      1.809
REMARK INTER + INTRA:         -10.597
REMARK INTER:                  -8.516
REMARK INTRA:                  -2.081
REMARK UNBOUND:                -1.506
REMARK  Name = 
REMARK  9 active torsions:
REMARK  status: ('A' for Active; 'I' for Inactive)
REMARK    1  A    between atoms: C_1  and  C_2
REMARK    2  A    between atoms: C_2  and  C_3
REMARK    3  A    between atoms: C_2  and  N_9
REMARK    4  A    between atoms: N_9  and  C_10
REMARK    5  A    between atoms: N_9  and  C_11
REMARK    6  A    between atoms: C_11  and  C_12
REMARK    7  A    between atoms: C_15  and  C_16
REMARK    8  A    between atoms: C_16  and  N_17
REMARK    9  A    between atoms: C_18  and  C_20
REMARK                            x       y       z     vdW  Elec       q    Type
REMARK                         _______ _______ _______ _____ _____    ______ ____
ROOT
ATOM      1  C   UNL     1      49.755   7.675  17.208  0.00  0.00    +0.000 A 
ATOM      2  C   UNL     1      50.103   6.856  16.131  0.00  0.00    +0.000 A 
ATOM      3  C   UNL     1      49.760   7.150  14.824  0.00  0.00    +0.000 A 
ATOM      4  C   UNL     1      48.945   8.237  14.552  0.00  0.00    +0.000 A 
ATOM      5  C   UNL     1      48.442   8.986  15.621  0.00  0.00    +0.000 A 
ATOM      6  C   UNL     1      48.857   8.718  16.936  0.00  0.00    +0.000 A 
ENDROOT
BRANCH   1   7
ATOM      7  C   UNL     1      50.231   7.432  18.633  0.00  0.00    +0.000 C 
BRANCH   7   8
ATOM      8  N   UNL     1      49.299   6.812  19.622  0.00  0.00    +0.000 NA
ATOM      9  C   UNL     1      49.328   7.562  20.879  0.00  0.00    +0.000 C 
BRANCH   8  11
ATOM     10  C   UNL     1      48.980   4.771  21.146  0.00  0.00    +0.000 C 
ATOM     11  C   UNL     1      49.423   5.345  19.792  0.00  0.00    +0.000 C 
BRANCH  11  12
ATOM     12  C   UNL     1      48.739   4.559  18.676  0.00  0.00    +0.000 A 
ATOM     13  C   UNL     1      47.490   4.942  18.176  0.00  0.00    +0.000 A 
ATOM     14  C   UNL     1      46.942   4.230  17.121  0.00  0.00    +0.000 A 
ATOM     15  N   UNL     1      47.532   3.159  16.549  0.00  0.00    +0.000 NA
ATOM     16  C   UNL     1      48.729   2.792  17.050  0.00  0.00    +0.000 A 
ATOM     17  C   UNL     1      49.362   3.447  18.095  0.00  0.00    +0.000 A 
ENDBRANCH  11  12
ENDBRANCH   8  11
ENDBRANCH   7   8
ENDBRANCH   1   7
BRANCH   4  18
ATOM     18  C   UNL     1      48.580   8.501  13.125  0.00  0.00    +0.000 C 
BRANCH  18  19
ATOM     19  N   UNL     1      47.608   7.544  12.665  0.00  0.00    +0.000 N 
ATOM     20  C   UNL     1      46.270   7.776  12.821  0.00  0.00    +0.000 C 
ATOM     21  O   UNL     1      45.839   8.810  13.326  0.00  0.00    +0.000 OA
ATOM     22  H   UNL     1      47.932   6.597  12.493  0.00  0.00    +0.000 HD
BRANCH  20  23
ATOM     23  C   UNL     1      45.365   6.762  12.271  0.00  0.00    +0.000 A 
ATOM     24  C   UNL     1      44.273   7.182  11.526  0.00  0.00    +0.000 A 
ATOM     25  S   UNL     1      43.333   5.905  10.907  0.00  0.00    +0.000 S 
ATOM     26  C   UNL     1      44.324   4.738  11.666  0.00  0.00    +0.000 A 
ATOM     27  N   UNL     1      44.050   3.414  11.548  0.00  0.00    +0.000 NA
ATOM     28  C   UNL     1      44.860   2.649  12.195  0.00  0.00    +0.000 A 
ATOM     29  N   UNL     1      45.931   3.087  12.935  0.00  0.00    +0.000 N 
ATOM     30  C   UNL     1      46.287   4.414  13.023  0.00  0.00    +0.000 A 
ATOM     31  O   UNL     1      47.313   4.764  13.600  0.00  0.00    +0.000 OA
ATOM     32  C   UNL     1      45.379   5.319  12.347  0.00  0.00    +0.000 A 
ATOM     33  H   UNL     1      46.539   2.426  13.394  0.00  0.00    +0.000 HD
ENDBRANCH  20  23
ENDBRANCH  18  19
ENDBRANCH   4  18
TORSDOF 7
ENDMDL
MODEL 4
REMARK VINA RESULT:    -6.164      3.682      8.830
REMARK INTER + INTRA:         -10.193
REMARK INTER:                  -9.682
REMARK INTRA:                  -0.511
REMARK UNBOUND:                -1.506
REMARK  Name = 
REMARK  9 active torsions:
REMARK  status: ('A' for Active; 'I' for Inactive)
REMARK    1  A    between atoms: C_1  and  C_2
REMARK    2  A    between atoms: C_2  and  C_3
REMARK    3  A    between atoms: C_2  and  N_9
REMARK    4  A    between atoms: N_9  and  C_10
REMARK    5  A    between atoms: N_9  and  C_11
REMARK    6  A    between atoms: C_11  and  C_12
REMARK    7  A    between atoms: C_15  and  C_16
REMARK    8  A    between atoms: C_16  and  N_17
REMARK    9  A    between atoms: C_18  and  C_20
REMARK                            x       y       z     vdW  Elec       q    Type
REMARK                         _______ _______ _______ _____ _____    ______ ____
ROOT
ATOM      1  C   UNL     1      45.726   5.116  11.722  0.00  0.00    +0.000 A 
ATOM      2  C   UNL     1      46.188   6.336  11.223  0.00  0.00    +0.000 A 
ATOM      3  C   UNL     1      47.137   7.101  11.876  0.00  0.00    +0.000 A 
ATOM      4  C   UNL     1      47.585   6.723  13.131  0.00  0.00    +0.000 A 
ATOM      5  C   UNL     1      47.022   5.593  13.735  0.00  0.00    +0.000 A 
ATOM      6  C   UNL     1      46.114   4.787  13.030  0.00  0.00    +0.000 A 
ENDROOT
BRANCH   1   7
ATOM      7  C   UNL     1      44.777   4.203  10.957  0.00  0.00    +0.000 C 
BRANCH   7   8
ATOM      8  N   UNL     1      45.070   3.871   9.531  0.00  0.00    +0.000 NA
ATOM      9  C   UNL     1      44.028   4.421   8.662  0.00  0.00    +0.000 C 
BRANCH   8  11
ATOM     10  C   UNL     1      44.222   1.467   9.228  0.00  0.00    +0.000 C 
ATOM     11  C   UNL     1      45.399   2.453   9.254  0.00  0.00    +0.000 C 
BRANCH  11  12
ATOM     12  C   UNL     1      46.221   2.273   7.980  0.00  0.00    +0.000 A 
ATOM     13  C   UNL     1      46.711   1.018   7.601  0.00  0.00    +0.000 A 
ATOM     14  C   UNL     1      47.399   0.900   6.404  0.00  0.00    +0.000 A 
ATOM     15  N   UNL     1      47.652   1.935   5.575  0.00  0.00    +0.000 NA
ATOM     16  C   UNL     1      47.185   3.142   5.959  0.00  0.00    +0.000 A 
ATOM     17  C   UNL     1      46.478   3.358   7.132  0.00  0.00    +0.000 A 
ENDBRANCH  11  12
ENDBRANCH   8  11
ENDBRANCH   7   8
ENDBRANCH   1   7
BRANCH   4  18
ATOM     18  C   UNL     1      48.594   7.596  13.810  0.00  0.00    +0.000 C 
BRANCH  18  19
ATOM     19  N   UNL     1      48.466   7.499  15.240  0.00  0.00    +0.000 N 
ATOM     20  C   UNL     1      49.497   7.025  16.003  0.00  0.00    +0.000 C 
ATOM     21  O   UNL     1      50.575   6.693  15.515  0.00  0.00    +0.000 OA
ATOM     22  H   UNL     1      47.528   7.514  15.626  0.00  0.00    +0.000 HD
BRANCH  20  23
ATOM     23  C   UNL     1      49.284   7.016  17.453  0.00  0.00    +0.000 A 
ATOM     24  C   UNL     1      49.215   8.229  18.121  0.00  0.00    +0.000 A 
ATOM     25  S   UNL     1      48.915   8.078  19.790  0.00  0.00    +0.000 S 
ATOM     26  C   UNL     1      48.927   6.372  19.690  0.00  0.00    +0.000 A 
ATOM     27  N   UNL     1      48.744   5.612  20.800  0.00  0.00    +0.000 NA
ATOM     28  C   UNL     1      48.805   4.343  20.584  0.00  0.00    +0.000 A 
ATOM     29  N   UNL     1      49.015   3.765  19.358  0.00  0.00    +0.000 N 
ATOM     30  C   UNL     1      49.134   4.494  18.196  0.00  0.00    +0.000 A 
ATOM     31  O   UNL     1      49.210   3.946  17.100  0.00  0.00    +0.000 OA
ATOM     32  C   UNL     1      49.116   5.930  18.393  0.00  0.00    +0.000 A 
ATOM     33  H   UNL     1      49.025   2.760  19.261  0.00  0.00    +0.000 HD
ENDBRANCH  20  23
ENDBRANCH  18  19
ENDBRANCH   4  18
TORSDOF 7
ENDMDL
MODEL 5
REMARK VINA RESULT:    -6.153      3.457      8.378
REMARK INTER + INTRA:         -10.178
REMARK INTER:                  -9.490
REMARK INTRA:                  -0.688
REMARK UNBOUND:                -1.506
REMARK  Name = 
REMARK  9 active torsions:
REMARK  status: ('A' for Active; 'I' for Inactive)
REMARK    1  A    between atoms: C_1  and  C_2
REMARK    2  A    between atoms: C_2  and  C_3
REMARK    3  A    between atoms: C_2  and  N_9
REMARK    4  A    between atoms: N_9  and  C_10
REMARK    5  A    between atoms: N_9  and  C_11
REMARK    6  A    between atoms: C_11  and  C_12
REMARK    7  A    between atoms: C_15  and  C_16
REMARK    8  A    between atoms: C_16  and  N_17
REMARK    9  A    between atoms: C_18  and  C_20
REMARK                            x       y       z     vdW  Elec       q    Type
REMARK                         _______ _______ _______ _____ _____    ______ ____
ROOT
ATOM      1  C   UNL     1      47.352   6.770  12.604  0.00  0.00    +0.000 A 
ATOM      2  C   UNL     1      47.730   8.040  13.045  0.00  0.00    +0.000 A 
ATOM      3  C   UNL     1      48.308   8.263  14.281  0.00  0.00    +0.000 A 
ATOM      4  C   UNL     1      48.429   7.220  15.185  0.00  0.00    +0.000 A 
ATOM      5  C   UNL     1      47.911   5.967  14.840  0.00  0.00    +0.000 A 
ATOM      6  C   UNL     1      47.392   5.740  13.555  0.00  0.00    +0.000 A 
ENDROOT
BRANCH   1   7
ATOM      7  C   UNL     1      46.832   6.491  11.200  0.00  0.00    +0.000 C 
BRANCH   7   8
ATOM      8  N   UNL     1      45.360   6.501  10.948  0.00  0.00    +0.000 NA
ATOM      9  C   UNL     1      44.729   7.593  11.693  0.00  0.00    +0.000 C 
BRANCH   8  11
ATOM     10  C   UNL     1      43.144   5.238  11.239  0.00  0.00    +0.000 C 
ATOM     11  C   UNL     1      44.672   5.196  11.094  0.00  0.00    +0.000 C 
BRANCH  11  12
ATOM     12  C   UNL     1      45.036   4.208   9.989  0.00  0.00    +0.000 A 
ATOM     13  C   UNL     1      44.796   2.837  10.131  0.00  0.00    +0.000 A 
ATOM     14  C   UNL     1      45.088   1.991   9.072  0.00  0.00    +0.000 A 
ATOM     15  N   UNL     1      45.619   2.405   7.902  0.00  0.00    +0.000 NA
ATOM     16  C   UNL     1      45.858   3.727   7.784  0.00  0.00    +0.000 A 
ATOM     17  C   UNL     1      45.590   4.653   8.781  0.00  0.00    +0.000 A 
ENDBRANCH  11  12
ENDBRANCH   8  11
ENDBRANCH   7   8
ENDBRANCH   1   7
BRANCH   4  18
ATOM     18  C   UNL     1      49.037   7.514  16.520  0.00  0.00    +0.000 C 
BRANCH  18  19
ATOM     19  N   UNL     1      50.119   6.605  16.795  0.00  0.00    +0.000 N 
ATOM     20  C   UNL     1      50.107   5.823  17.916  0.00  0.00    +0.000 C 
ATOM     21  O   UNL     1      49.173   5.837  18.715  0.00  0.00    +0.000 OA
ATOM     22  H   UNL     1      50.995   6.763  16.308  0.00  0.00    +0.000 HD
BRANCH  20  23
ATOM     23  C   UNL     1      51.230   4.894  18.074  0.00  0.00    +0.000 A 
ATOM     24  C   UNL     1      52.420   5.375  18.599  0.00  0.00    +0.000 A 
ATOM     25  S   UNL     1      53.624   4.185  18.775  0.00  0.00    +0.000 S 
ATOM     26  C   UNL     1      52.612   2.987  18.096  0.00  0.00    +0.000 A 
ATOM     27  N   UNL     1      53.055   1.714  17.938  0.00  0.00    +0.000 NA
ATOM     28  C   UNL     1      52.199   0.923  17.387  0.00  0.00    +0.000 A 
ATOM     29  N   UNL     1      50.934   1.286  16.996  0.00  0.00    +0.000 N 
ATOM     30  C   UNL     1      50.419   2.546  17.201  0.00  0.00    +0.000 A 
ATOM     31  O   UNL     1      49.248   2.810  16.942  0.00  0.00    +0.000 OA
ATOM     32  C   UNL     1      51.360   3.485  17.779  0.00  0.00    +0.000 A 
ATOM     33  H   UNL     1      50.308   0.604  16.594  0.00  0.00    +0.000 HD
ENDBRANCH  20  23
ENDBRANCH  18  19
ENDBRANCH   4  18
TORSDOF 7
ENDMDL
MODEL 6
REMARK VINA RESULT:    -6.120      2.033      2.738
REMARK INTER + INTRA:         -10.131
REMARK INTER:                  -8.365
REMARK INTRA:                  -1.766
REMARK UNBOUND:                -1.506
REMARK  Name = 
REMARK  9 active torsions:
REMARK  status: ('A' for Active; 'I' for Inactive)
REMARK    1  A    between atoms: C_1  and  C_2
REMARK    2  A    between atoms: C_2  and  C_3
REMARK    3  A    between atoms: C_2  and  N_9
REMARK    4  A    between atoms: N_9  and  C_10
REMARK    5  A    between atoms: N_9  and  C_11
REMARK    6  A    between atoms: C_11  and  C_12
REMARK    7  A    between atoms: C_15  and  C_16
REMARK    8  A    between atoms: C_16  and  N_17
REMARK    9  A    between atoms: C_18  and  C_20
REMARK                            x       y       z     vdW  Elec       q    Type
REMARK                         _______ _______ _______ _____ _____    ______ ____
ROOT
ATOM      1  C   UNL     1      50.584   7.576  17.343  0.00  0.00    +0.000 A 
ATOM      2  C   UNL     1      49.311   8.129  17.502  0.00  0.00    +0.000 A 
ATOM      3  C   UNL     1      48.537   8.547  16.435  0.00  0.00    +0.000 A 
ATOM      4  C   UNL     1      49.061   8.530  15.153  0.00  0.00    +0.000 A 
ATOM      5  C   UNL     1      50.392   8.136  14.975  0.00  0.00    +0.000 A 
ATOM      6  C   UNL     1      51.141   7.647  16.057  0.00  0.00    +0.000 A 
ENDROOT
BRANCH   1   7
ATOM      7  C   UNL     1      51.395   6.997  18.494  0.00  0.00    +0.000 C 
BRANCH   7   8
ATOM      8  N   UNL     1      51.149   5.590  18.930  0.00  0.00    +0.000 NA
ATOM      9  C   UNL     1      52.138   5.194  19.934  0.00  0.00    +0.000 C 
BRANCH   8  11
ATOM     10  C   UNL     1      51.815   3.324  17.924  0.00  0.00    +0.000 C 
ATOM     11  C   UNL     1      50.965   4.601  17.842  0.00  0.00    +0.000 C 
BRANCH  11  12
ATOM     12  C   UNL     1      49.504   4.208  17.637  0.00  0.00    +0.000 A 
ATOM     13  C   UNL     1      48.727   4.795  16.632  0.00  0.00    +0.000 A 
ATOM     14  C   UNL     1      47.425   4.358  16.450  0.00  0.00    +0.000 A 
ATOM     15  N   UNL     1      46.838   3.405  17.205  0.00  0.00    +0.000 NA
ATOM     16  C   UNL     1      47.594   2.858  18.179  0.00  0.00    +0.000 A 
ATOM     17  C   UNL     1      48.908   3.220  18.431  0.00  0.00    +0.000 A 
ENDBRANCH  11  12
ENDBRANCH   8  11
ENDBRANCH   7   8
ENDBRANCH   1   7
BRANCH   4  18
ATOM     18  C   UNL     1      48.195   9.015  14.033  0.00  0.00    +0.000 C 
BRANCH  18  19
ATOM     19  N   UNL     1      47.197   8.032  13.702  0.00  0.00    +0.000 N 
ATOM     20  C   UNL     1      47.499   6.978  12.886  0.00  0.00    +0.000 C 
ATOM     21  O   UNL     1      48.626   6.806  12.427  0.00  0.00    +0.000 OA
ATOM     22  H   UNL     1      46.226   8.288  13.846  0.00  0.00    +0.000 HD
BRANCH  20  23
ATOM     23  C   UNL     1      46.427   6.006  12.654  0.00  0.00    +0.000 A 
ATOM     24  C   UNL     1      46.664   4.672  12.952  0.00  0.00    +0.000 A 
ATOM     25  S   UNL     1      45.323   3.659  12.683  0.00  0.00    +0.000 S 
ATOM     26  C   UNL     1      44.388   4.965  12.100  0.00  0.00    +0.000 A 
ATOM     27  N   UNL     1      43.114   4.769  11.675  0.00  0.00    +0.000 NA
ATOM     28  C   UNL     1      42.537   5.834  11.234  0.00  0.00    +0.000 A 
ATOM     29  N   UNL     1      43.112   7.079  11.197  0.00  0.00    +0.000 N 
ATOM     30  C   UNL     1      44.373   7.337  11.683  0.00  0.00    +0.000 A 
ATOM     31  O   UNL     1      44.818   8.481  11.738  0.00  0.00    +0.000 OA
ATOM     32  C   UNL     1      45.081   6.161  12.150  0.00  0.00    +0.000 A 
ATOM     33  H   UNL     1      42.587   7.874  10.862  0.00  0.00    +0.000 HD
ENDBRANCH  20  23
ENDBRANCH  18  19
ENDBRANCH   4  18
TORSDOF 7
ENDMDL
MODEL 7
REMARK VINA RESULT:    -6.111      3.508      8.551
REMARK INTER + INTRA:         -10.118
REMARK INTER:                  -9.789
REMARK INTRA:                  -0.329
REMARK UNBOUND:                -1.506
REMARK  Name = 
REMARK  9 active torsions:
REMARK  status: ('A' for Active; 'I' for Inactive)
REMARK    1  A    between atoms: C_1  and  C_2
REMARK    2  A    between atoms: C_2  and  C_3
REMARK    3  A    between atoms: C_2  and  N_9
REMARK    4  A    between atoms: N_9  and  C_10
REMARK    5  A    between atoms: N_9  and  C_11
REMARK    6  A    between atoms: C_11  and  C_12
REMARK    7  A    between atoms: C_15  and  C_16
REMARK    8  A    between atoms: C_16  and  N_17
REMARK    9  A    between atoms: C_18  and  C_20
REMARK                            x       y       z     vdW  Elec       q    Type
REMARK                         _______ _______ _______ _____ _____    ______ ____
ROOT
ATOM      1  C   UNL     1      45.482   6.741  12.114  0.00  0.00    +0.000 A 
ATOM      2  C   UNL     1      45.842   5.707  12.982  0.00  0.00    +0.000 A 
ATOM      3  C   UNL     1      46.932   5.787  13.831  0.00  0.00    +0.000 A 
ATOM      4  C   UNL     1      47.783   6.877  13.760  0.00  0.00    +0.000 A 
ATOM      5  C   UNL     1      47.547   7.855  12.788  0.00  0.00    +0.000 A 
ATOM      6  C   UNL     1      46.397   7.796  11.984  0.00  0.00    +0.000 A 
ENDROOT
BRANCH   1   7
ATOM      7  C   UNL     1      44.216   6.721  11.268  0.00  0.00    +0.000 C 
BRANCH   7   8
ATOM      8  N   UNL     1      43.507   5.427  11.041  0.00  0.00    +0.000 NA
ATOM      9  C   UNL     1      42.232   5.420  11.760  0.00  0.00    +0.000 C 
BRANCH   8  11
ATOM     10  C   UNL     1      43.622   3.022  11.931  0.00  0.00    +0.000 C 
ATOM     11  C   UNL     1      44.318   4.203  11.240  0.00  0.00    +0.000 C 
BRANCH  11  12
ATOM     12  C   UNL     1      44.968   3.706   9.951  0.00  0.00    +0.000 A 
ATOM     13  C   UNL     1      45.035   2.342   9.649  0.00  0.00    +0.000 A 
ATOM     14  C   UNL     1      45.580   1.948   8.437  0.00  0.00    +0.000 A 
ATOM     15  N   UNL     1      46.080   2.806   7.523  0.00  0.00    +0.000 NA
ATOM     16  C   UNL     1      46.021   4.118   7.832  0.00  0.00    +0.000 A 
ATOM     17  C   UNL     1      45.485   4.609   9.013  0.00  0.00    +0.000 A 
ENDBRANCH  11  12
ENDBRANCH   8  11
ENDBRANCH   7   8
ENDBRANCH   1   7
BRANCH   4  18
ATOM     18  C   UNL     1      48.963   6.907  14.680  0.00  0.00    +0.000 C 
BRANCH  18  19
ATOM     19  N   UNL     1      48.534   6.925  16.054  0.00  0.00    +0.000 N 
ATOM     20  C   UNL     1      49.124   6.112  16.982  0.00  0.00    +0.000 C 
ATOM     21  O   UNL     1      50.053   5.360  16.697  0.00  0.00    +0.000 OA
ATOM     22  H   UNL     1      47.623   7.327  16.252  0.00  0.00    +0.000 HD
BRANCH  20  23
ATOM     23  C   UNL     1      48.648   6.246  18.361  0.00  0.00    +0.000 A 
ATOM     24  C   UNL     1      48.626   5.118  19.169  0.00  0.00    +0.000 A 
ATOM     25  S   UNL     1      48.100   5.423  20.759  0.00  0.00    +0.000 S 
ATOM     26  C   UNL     1      47.824   7.072  20.408  0.00  0.00    +0.000 A 
ATOM     27  N   UNL     1      47.340   7.911  21.358  0.00  0.00    +0.000 NA
ATOM     28  C   UNL     1      47.152   9.118  20.948  0.00  0.00    +0.000 A 
ATOM     29  N   UNL     1      47.422   9.567  19.679  0.00  0.00    +0.000 N 
ATOM     30  C   UNL     1      47.980   8.770  18.706  0.00  0.00    +0.000 A 
ATOM     31  O   UNL     1      48.312   9.227  17.616  0.00  0.00    +0.000 OA
ATOM     32  C   UNL     1      48.169   7.389  19.106  0.00  0.00    +0.000 A 
ATOM     33  H   UNL     1      47.274  10.535  19.438  0.00  0.00    +0.000 HD
ENDBRANCH  20  23
ENDBRANCH  18  19
ENDBRANCH   4  18
TORSDOF 7
ENDMDL
MODEL 8
REMARK VINA RESULT:    -6.013      2.035      2.769
REMARK INTER + INTRA:          -9.980
REMARK INTER:                  -8.033
REMARK INTRA:                  -1.947
REMARK UNBOUND:                -1.506
REMARK  Name = 
REMARK  9 active torsions:
REMARK  status: ('A' for Active; 'I' for Inactive)
REMARK    1  A    between atoms: C_1  and  C_2
REMARK    2  A    between atoms: C_2  and  C_3
REMARK    3  A    between atoms: C_2  and  N_9
REMARK    4  A    between atoms: N_9  and  C_10
REMARK    5  A    between atoms: N_9  and  C_11
REMARK    6  A    between atoms: C_11  and  C_12
REMARK    7  A    between atoms: C_15  and  C_16
REMARK    8  A    between atoms: C_16  and  N_17
REMARK    9  A    between atoms: C_18  and  C_20
REMARK                            x       y       z     vdW  Elec       q    Type
REMARK                         _______ _______ _______ _____ _____    ______ ____
ROOT
ATOM      1  C   UNL     1      51.539   7.312  16.923  0.00  0.00    +0.000 A 
ATOM      2  C   UNL     1      50.651   8.152  17.598  0.00  0.00    +0.000 A 
ATOM      3  C   UNL     1      49.576   8.762  16.975  0.00  0.00    +0.000 A 
ATOM      4  C   UNL     1      49.413   8.641  15.605  0.00  0.00    +0.000 A 
ATOM      5  C   UNL     1      50.377   7.942  14.871  0.00  0.00    +0.000 A 
ATOM      6  C   UNL     1      51.421   7.269  15.525  0.00  0.00    +0.000 A 
ENDROOT
BRANCH   1   7
ATOM      7  C   UNL     1      52.649   6.536  17.618  0.00  0.00    +0.000 C 
BRANCH   7   8
ATOM      8  N   UNL     1      52.296   5.399  18.520  0.00  0.00    +0.000 NA
ATOM      9  C   UNL     1      53.132   5.432  19.721  0.00  0.00    +0.000 C 
BRANCH   8  11
ATOM     10  C   UNL     1      52.905   2.907  18.612  0.00  0.00    +0.000 C 
ATOM     11  C   UNL     1      52.217   4.066  17.877  0.00  0.00    +0.000 C 
BRANCH  11  12
ATOM     12  C   UNL     1      50.787   3.655  17.538  0.00  0.00    +0.000 A 
ATOM     13  C   UNL     1      50.491   2.371  17.066  0.00  0.00    +0.000 A 
ATOM     14  C   UNL     1      49.168   2.030  16.832  0.00  0.00    +0.000 A 
ATOM     15  N   UNL     1      48.130   2.875  17.010  0.00  0.00    +0.000 NA
ATOM     16  C   UNL     1      48.431   4.114  17.452  0.00  0.00    +0.000 A 
ATOM     17  C   UNL     1      49.721   4.545  17.724  0.00  0.00    +0.000 A 
ENDBRANCH  11  12
ENDBRANCH   8  11
ENDBRANCH   7   8
ENDBRANCH   1   7
BRANCH   4  18
ATOM     18  C   UNL     1      48.250   9.339  14.972  0.00  0.00    +0.000 C 
BRANCH  18  19
ATOM     19  N   UNL     1      47.331   8.384  14.410  0.00  0.00    +0.000 N 
ATOM     20  C   UNL     1      47.120   8.326  13.061  0.00  0.00    +0.000 C 
ATOM     21  O   UNL     1      47.718   9.055  12.273  0.00  0.00    +0.000 OA
ATOM     22  H   UNL     1      46.651   7.968  15.038  0.00  0.00    +0.000 HD
BRANCH  20  23
ATOM     23  C   UNL     1      46.205   7.284  12.588  0.00  0.00    +0.000 A 
ATOM     24  C   UNL     1      45.127   7.655  11.798  0.00  0.00    +0.000 A 
ATOM     25  S   UNL     1      44.174   6.344  11.278  0.00  0.00    +0.000 S 
ATOM     26  C   UNL     1      45.138   5.231  12.145  0.00  0.00    +0.000 A 
ATOM     27  N   UNL     1      44.845   3.906  12.136  0.00  0.00    +0.000 NA
ATOM     28  C   UNL     1      45.637   3.187  12.855  0.00  0.00    +0.000 A 
ATOM     29  N   UNL     1      46.706   3.670  13.567  0.00  0.00    +0.000 N 
ATOM     30  C   UNL     1      47.083   4.994  13.547  0.00  0.00    +0.000 A 
ATOM     31  O   UNL     1      48.108   5.377  14.104  0.00  0.00    +0.000 OA
ATOM     32  C   UNL     1      46.195   5.852  12.787  0.00  0.00    +0.000 A 
ATOM     33  H   UNL     1      47.299   3.041  14.087  0.00  0.00    +0.000 HD
ENDBRANCH  20  23
ENDBRANCH  18  19
ENDBRANCH   4  18
TORSDOF 7
ENDMDL
MODEL 9
REMARK VINA RESULT:    -5.578      2.005      2.897
REMARK INTER + INTRA:          -9.367
REMARK INTER:                  -8.214
REMARK INTRA:                  -1.153
REMARK UNBOUND:                -1.506
REMARK  Name = 
REMARK  9 active torsions:
REMARK  status: ('A' for Active; 'I' for Inactive)
REMARK    1  A    between atoms: C_1  and  C_2
REMARK    2  A    between atoms: C_2  and  C_3
REMARK    3  A    between atoms: C_2  and  N_9
REMARK    4  A    between atoms: N_9  and  C_10
REMARK    5  A    between atoms: N_9  and  C_11
REMARK    6  A    between atoms: C_11  and  C_12
REMARK    7  A    between atoms: C_15  and  C_16
REMARK    8  A    between atoms: C_16  and  N_17
REMARK    9  A    between atoms: C_18  and  C_20
REMARK                            x       y       z     vdW  Elec       q    Type
REMARK                         _______ _______ _______ _____ _____    ______ ____
ROOT
ATOM      1  C   UNL     1      48.695   8.018  16.357  0.00  0.00    +0.000 A 
ATOM      2  C   UNL     1      48.553   9.121  15.512  0.00  0.00    +0.000 A 
ATOM      3  C   UNL     1      48.167   9.007  14.188  0.00  0.00    +0.000 A 
ATOM      4  C   UNL     1      48.015   7.753  13.619  0.00  0.00    +0.000 A 
ATOM      5  C   UNL     1      48.309   6.623  14.390  0.00  0.00    +0.000 A 
ATOM      6  C   UNL     1      48.629   6.754  15.751  0.00  0.00    +0.000 A 
ENDROOT
BRANCH   1   7
ATOM      7  C   UNL     1      48.995   8.135  17.844  0.00  0.00    +0.000 C 
BRANCH   7   8
ATOM      8  N   UNL     1      50.297   7.629  18.372  0.00  0.00    +0.000 NA
ATOM      9  C   UNL     1      50.841   8.567  19.355  0.00  0.00    +0.000 C 
BRANCH   8  11
ATOM     10  C   UNL     1      52.500   8.096  17.139  0.00  0.00    +0.000 C 
ATOM     11  C   UNL     1      51.279   7.190  17.352  0.00  0.00    +0.000 C 
BRANCH  11  12
ATOM     12  C   UNL     1      51.760   5.758  17.569  0.00  0.00    +0.000 A 
ATOM     13  C   UNL     1      50.856   4.695  17.680  0.00  0.00    +0.000 A 
ATOM     14  C   UNL     1      51.348   3.407  17.815  0.00  0.00    +0.000 A 
ATOM     15  N   UNL     1      52.663   3.105  17.871  0.00  0.00    +0.000 NA
ATOM     16  C   UNL     1      53.523   4.140  17.778  0.00  0.00    +0.000 A 
ATOM     17  C   UNL     1      53.128   5.461  17.630  0.00  0.00    +0.000 A 
ENDBRANCH  11  12
ENDBRANCH   8  11
ENDBRANCH   7   8
ENDBRANCH   1   7
BRANCH   4  18
ATOM     18  C   UNL     1      47.622   7.679  12.177  0.00  0.00    +0.000 C 
BRANCH  18  19
ATOM     19  N   UNL     1      46.931   6.447  11.903  0.00  0.00    +0.000 N 
ATOM     20  C   UNL     1      45.568   6.376  11.984  0.00  0.00    +0.000 C 
ATOM     21  O   UNL     1      44.877   7.353  12.260  0.00  0.00    +0.000 OA
ATOM     22  H   UNL     1      47.476   5.591  11.934  0.00  0.00    +0.000 HD
BRANCH  20  23
ATOM     23  C   UNL     1      44.961   5.088  11.634  0.00  0.00    +0.000 A 
ATOM     24  C   UNL     1      44.224   4.418  12.600  0.00  0.00    +0.000 A 
ATOM     25  S   UNL     1      43.535   2.963  12.049  0.00  0.00    +0.000 S 
ATOM     26  C   UNL     1      44.249   3.146  10.508  0.00  0.00    +0.000 A 
ATOM     27  N   UNL     1      44.066   2.209   9.544  0.00  0.00    +0.000 NA
ATOM     28  C   UNL     1      44.685   2.460   8.442  0.00  0.00    +0.000 A 
ATOM     29  N   UNL     1      45.457   3.571   8.211  0.00  0.00    +0.000 N 
ATOM     30  C   UNL     1      45.612   4.581   9.134  0.00  0.00    +0.000 A 
ATOM     31  O   UNL     1      46.216   5.614   8.859  0.00  0.00    +0.000 OA
ATOM     32  C   UNL     1      44.969   4.323  10.408  0.00  0.00    +0.000 A 
ATOM     33  H   UNL     1      45.891   3.714   7.311  0.00  0.00    +0.000 HD
ENDBRANCH  20  23
ENDBRANCH  18  19
ENDBRANCH   4  18
TORSDOF 7
ENDMDL
