MODEL 1
REMARK VINA RESULT:    -7.708      0.000      0.000
REMARK INTER + INTRA:         -10.738
REMARK INTER:                  -9.961
REMARK INTRA:                  -0.777
REMARK UNBOUND:                -0.777
REMARK  Name = 
REMARK  5 active torsions:
REMARK  status: ('A' for Active; 'I' for Inactive)
REMARK    1  A    between atoms: C_2  and  C_5
REMARK    2  A    between atoms: C_9  and  C_10
REMARK    3  A    between atoms: C_10  and  C_11
REMARK    4  A    between atoms: C_11  and  C_12
REMARK    5  A    between atoms: C_16  and  C_17
REMARK                            x       y       z     vdW  Elec       q    Type
REMARK                         _______ _______ _______ _____ _____    ______ ____
ROOT
ATOM      1  C   UNL     1      43.742   3.847  11.484  0.00  0.00    +0.000 C 
ENDROOT
BRANCH   1   2
ATOM      2  C   UNL     1      44.985   4.362  12.180  0.00  0.00    +0.000 A 
ATOM      3  C   UNL     1      45.706   3.524  13.036  0.00  0.00    +0.000 A 
ATOM      4  C   UNL     1      46.859   3.988  13.671  0.00  0.00    +0.000 A 
ATOM      5  C   UNL     1      47.314   5.292  13.446  0.00  0.00    +0.000 A 
ATOM      6  C   UNL     1      46.628   6.161  12.585  0.00  0.00    +0.000 A 
ATOM      7  C   UNL     1      45.443   5.676  12.000  0.00  0.00    +0.000 A 
BRANCH   6   8
ATOM      8  C   UNL     1      47.155   7.492  12.195  0.00  0.00    +0.000 A 
ATOM      9  C   UNL     1      46.369   8.650  12.336  0.00  0.00    +0.000 A 
ATOM     10  C   UNL     1      46.904   9.926  12.127  0.00  0.00    +0.000 A 
ATOM     11  C   UNL     1      48.242  10.073  11.776  0.00  0.00    +0.000 A 
ATOM     12  C   UNL     1      49.034   8.945  11.597  0.00  0.00    +0.000 A 
ATOM     13  C   UNL     1      48.491   7.670  11.788  0.00  0.00    +0.000 A 
ENDBRANCH   6   8
ENDBRANCH   1   2
BRANCH   1  14
ATOM     14  C   UNL     1      43.976   2.604  10.616  0.00  0.00    +0.000 C 
BRANCH  14  19
ATOM     15  C   UNL     1      46.277   2.135   7.776  0.00  0.00    +0.000 A 
ATOM     16  C   UNL     1      46.232   3.388   7.184  0.00  0.00    +0.000 A 
ATOM     17  N   UNL     1      45.498   4.412   7.677  0.00  0.00    +0.000 NA
ATOM     18  C   UNL     1      44.786   4.138   8.793  0.00  0.00    +0.000 A 
ATOM     19  C   UNL     1      44.807   2.892   9.403  0.00  0.00    +0.000 A 
ATOM     20  N   UNL     1      45.560   1.877   8.909  0.00  0.00    +0.000 NA
BRANCH  15  22
ATOM     21  F   UNL     1      46.874   0.878   5.817  0.00  0.00    +0.000 F 
ATOM     22  C   UNL     1      47.114   1.041   7.151  0.00  0.00    +0.000 C 
ATOM     23  F   UNL     1      46.900  -0.184   7.709  0.00  0.00    +0.000 F 
ATOM     24  F   UNL     1      48.454   1.271   7.251  0.00  0.00    +0.000 F 
ENDBRANCH  15  22
ENDBRANCH  14  19
ENDBRANCH   1  14
TORSDOF 5
ENDMDL
MODEL 2
REMARK VINA RESULT:    -7.677      4.114      7.147
REMARK INTER + INTRA:         -10.698
REMARK INTER:                  -9.790
REMARK INTRA:                  -0.908
REMARK UNBOUND:                -0.777
REMARK  Name = 
REMARK  5 active torsions:
REMARK  status: ('A' for Active; 'I' for Inactive)
REMARK    1  A    between atoms: C_2  and  C_5
REMARK    2  A    between atoms: C_9  and  C_10
REMARK    3  A    between atoms: C_10  and  C_11
REMARK    4  A    between atoms: C_11  and  C_12
REMARK    5  A    between atoms: C_16  and  C_17
REMARK                            x       y       z     vdW  Elec       q    Type
REMARK                         _______ _______ _______ _____ _____    ______ ____
ROOT
ATOM      1  C   UNL     1      44.397   6.640  11.334  0.00  0.00    +0.000 C 
ENDROOT
BRANCH   1   2
ATOM      2  C   UNL     1      44.315   5.166  10.998  0.00  0.00    +0.000 A 
ATOM      3  C   UNL     1      43.458   4.329  11.720  0.00  0.00    +0.000 A 
ATOM      4  C   UNL     1      43.369   2.972  11.407  0.00  0.00    +0.000 A 
ATOM      5  C   UNL     1      44.124   2.437  10.357  0.00  0.00    +0.000 A 
ATOM      6  C   UNL     1      44.986   3.243   9.600  0.00  0.00    +0.000 A 
ATOM      7  C   UNL     1      45.088   4.596   9.975  0.00  0.00    +0.000 A 
BRANCH   6   8
ATOM      8  C   UNL     1      45.685   2.757   8.385  0.00  0.00    +0.000 A 
ATOM      9  C   UNL     1      45.993   3.633   7.329  0.00  0.00    +0.000 A 
ATOM     10  C   UNL     1      46.790   3.229   6.253  0.00  0.00    +0.000 A 
ATOM     11  C   UNL     1      47.303   1.937   6.211  0.00  0.00    +0.000 A 
ATOM     12  C   UNL     1      46.987   1.038   7.223  0.00  0.00    +0.000 A 
ATOM     13  C   UNL     1      46.174   1.440   8.288  0.00  0.00    +0.000 A 
ENDBRANCH   6   8
ENDBRANCH   1   2
BRANCH   1  14
ATOM     14  C   UNL     1      45.004   6.938  12.712  0.00  0.00    +0.000 C 
BRANCH  14  19
ATOM     15  C   UNL     1      48.458   8.134  12.244  0.00  0.00    +0.000 A 
ATOM     16  C   UNL     1      49.183   7.056  12.728  0.00  0.00    +0.000 A 
ATOM     17  N   UNL     1      48.605   5.923  13.189  0.00  0.00    +0.000 NA
ATOM     18  C   UNL     1      47.253   5.903  13.163  0.00  0.00    +0.000 A 
ATOM     19  C   UNL     1      46.502   6.970  12.690  0.00  0.00    +0.000 A 
ATOM     20  N   UNL     1      47.093   8.095  12.215  0.00  0.00    +0.000 NA
BRANCH  15  22
ATOM     21  F   UNL     1      49.613  10.173  12.777  0.00  0.00    +0.000 F 
ATOM     22  C   UNL     1      49.184   9.368  11.760  0.00  0.00    +0.000 C 
ATOM     23  F   UNL     1      48.415  10.168  10.967  0.00  0.00    +0.000 F 
ATOM     24  F   UNL     1      50.302   9.081  11.033  0.00  0.00    +0.000 F 
ENDBRANCH  15  22
ENDBRANCH  14  19
ENDBRANCH   1  14
TORSDOF 5
ENDMDL
MODEL 3
REMARK VINA RESULT:    -7.630      4.588      7.473
REMARK INTER + INTRA:         -10.638
REMARK INTER:                  -9.824
REMARK INTRA:                  -0.814
REMARK UNBOUND:                -0.777
REMARK  Name = 
REMARK  5 active torsions:
REMARK  status: ('A' for Active; 'I' for Inactive)
REMARK    1  A    between atoms: C_2  and  C_5
REMARK    2  A    between atoms: C_9  and  C_10
REMARK    3  A    between atoms: C_10  and  C_11
REMARK    4  A    between atoms: C_11  and  C_12
REMARK    5  A    between atoms: C_16  and  C_17
REMARK                            x       y       z     vdW  Elec       q    Type
REMARK                         _______ _______ _______ _____ _____    ______ ____
ROOT
ATOM      1  C   UNL     1      45.967   6.860  12.905  0.00  0.00    +0.000 C 
ENDROOT
BRANCH   1   2
ATOM      2  C   UNL     1      45.090   5.875  12.158  0.00  0.00    +0.000 A 
ATOM      3  C   UNL     1      43.739   5.744  12.495  0.00  0.00    +0.000 A 
ATOM      4  C   UNL     1      42.924   4.848  11.803  0.00  0.00    +0.000 A 
ATOM      5  C   UNL     1      43.445   4.082  10.754  0.00  0.00    +0.000 A 
ATOM      6  C   UNL     1      44.792   4.191  10.376  0.00  0.00    +0.000 A 
ATOM      7  C   UNL     1      45.596   5.069  11.127  0.00  0.00    +0.000 A 
BRANCH   6   8
ATOM      8  C   UNL     1      45.349   3.520   9.177  0.00  0.00    +0.000 A 
ATOM      9  C   UNL     1      45.878   4.267   8.110  0.00  0.00    +0.000 A 
ATOM     10  C   UNL     1      46.552   3.652   7.049  0.00  0.00    +0.000 A 
ATOM     11  C   UNL     1      46.716   2.271   7.034  0.00  0.00    +0.000 A 
ATOM     12  C   UNL     1      46.174   1.502   8.057  0.00  0.00    +0.000 A 
ATOM     13  C   UNL     1      45.485   2.120   9.107  0.00  0.00    +0.000 A 
ENDBRANCH   6   8
ENDBRANCH   1   2
BRANCH   1  14
ATOM     14  C   UNL     1      47.448   6.461  12.967  0.00  0.00    +0.000 C 
BRANCH  14  19
ATOM     15  C   UNL     1      48.173   4.809  16.180  0.00  0.00    +0.000 A 
ATOM     16  C   UNL     1      48.863   5.810  16.846  0.00  0.00    +0.000 A 
ATOM     17  N   UNL     1      49.095   7.031  16.312  0.00  0.00    +0.000 NA
ATOM     18  C   UNL     1      48.618   7.222  15.061  0.00  0.00    +0.000 A 
ATOM     19  C   UNL     1      47.929   6.237  14.368  0.00  0.00    +0.000 A 
ATOM     20  N   UNL     1      47.689   5.021  14.920  0.00  0.00    +0.000 NA
BRANCH  15  22
ATOM     21  F   UNL     1      48.789   3.274  17.922  0.00  0.00    +0.000 F 
ATOM     22  C   UNL     1      47.970   3.468  16.846  0.00  0.00    +0.000 C 
ATOM     23  F   UNL     1      48.210   2.413  16.016  0.00  0.00    +0.000 F 
ATOM     24  F   UNL     1      46.704   3.292  17.321  0.00  0.00    +0.000 F 
ENDBRANCH  15  22
ENDBRANCH  14  19
ENDBRANCH   1  14
TORSDOF 5
ENDMDL
MODEL 4
REMARK VINA RESULT:    -7.345      4.946      7.725
REMARK INTER + INTRA:         -10.269
REMARK INTER:                  -9.697
REMARK INTRA:                  -0.572
REMARK UNBOUND:                -0.777
REMARK  Name = 
REMARK  5 active torsions:
REMARK  status: ('A' for Active; 'I' for Inactive)
REMARK    1  A    between atoms: C_2  and  C_5
REMARK    2  A    between atoms: C_9  and  C_10
REMARK    3  A    between atoms: C_10  and  C_11
REMARK    4  A    between atoms: C_11  and  C_12
REMARK    5  A    between atoms: C_16  and  C_17
REMARK                            x       y       z     vdW  Elec       q    Type
REMARK                         _______ _______ _______ _____ _____    ______ ____
ROOT
ATOM      1  C   UNL     1      46.263   7.210  12.402  0.00  0.00    +0.000 C 
ENDROOT
BRANCH   1   2
ATOM      2  C   UNL     1      45.316   6.290  11.659  0.00  0.00    +0.000 A 
ATOM      3  C   UNL     1      43.937   6.388  11.868  0.00  0.00    +0.000 A 
ATOM      4  C   UNL     1      43.059   5.552  11.177  0.00  0.00    +0.000 A 
ATOM      5  C   UNL     1      43.547   4.617  10.257  0.00  0.00    +0.000 A 
ATOM      6  C   UNL     1      44.923   4.494  10.010  0.00  0.00    +0.000 A 
ATOM      7  C   UNL     1      45.782   5.320  10.759  0.00  0.00    +0.000 A 
BRANCH   6   8
ATOM      8  C   UNL     1      45.474   3.632   8.936  0.00  0.00    +0.000 A 
ATOM      9  C   UNL     1      46.144   4.190   7.832  0.00  0.00    +0.000 A 
ATOM     10  C   UNL     1      46.808   3.389   6.898  0.00  0.00    +0.000 A 
ATOM     11  C   UNL     1      46.823   2.006   7.050  0.00  0.00    +0.000 A 
ATOM     12  C   UNL     1      46.142   1.423   8.112  0.00  0.00    +0.000 A 
ATOM     13  C   UNL     1      45.462   2.227   9.034  0.00  0.00    +0.000 A 
ENDBRANCH   6   8
ENDBRANCH   1   2
BRANCH   1  14
ATOM     14  C   UNL     1      47.622   6.579  12.733  0.00  0.00    +0.000 C 
BRANCH  14  19
ATOM     15  C   UNL     1      48.393   5.448  16.154  0.00  0.00    +0.000 A 
ATOM     16  C   UNL     1      47.492   4.404  16.301  0.00  0.00    +0.000 A 
ATOM     17  N   UNL     1      46.641   4.018  15.323  0.00  0.00    +0.000 NA
ATOM     18  C   UNL     1      46.709   4.729  14.174  0.00  0.00    +0.000 A 
ATOM     19  C   UNL     1      47.596   5.782  14.002  0.00  0.00    +0.000 A 
ATOM     20  N   UNL     1      48.456   6.149  14.984  0.00  0.00    +0.000 NA
BRANCH  15  22
ATOM     21  F   UNL     1      50.561   6.160  16.906  0.00  0.00    +0.000 F 
ATOM     22  C   UNL     1      49.299   5.822  17.305  0.00  0.00    +0.000 C 
ATOM     23  F   UNL     1      49.465   4.815  18.208  0.00  0.00    +0.000 F 
ATOM     24  F   UNL     1      48.847   6.894  18.015  0.00  0.00    +0.000 F 
ENDBRANCH  15  22
ENDBRANCH  14  19
ENDBRANCH   1  14
TORSDOF 5
ENDMDL
MODEL 5
REMARK VINA RESULT:    -7.284      1.496      2.420
REMARK INTER + INTRA:         -10.190
REMARK INTER:                  -9.170
REMARK INTRA:                  -1.021
REMARK UNBOUND:                -0.777
REMARK  Name = 
REMARK  5 active torsions:
REMARK  status: ('A' for Active; 'I' for Inactive)
REMARK    1  A    between atoms: C_2  and  C_5
REMARK    2  A    between atoms: C_9  and  C_10
REMARK    3  A    between atoms: C_10  and  C_11
REMARK    4  A    between atoms: C_11  and  C_12
REMARK    5  A    between atoms: C_16  and  C_17
REMARK                            x       y       z     vdW  Elec       q    Type
REMARK                         _______ _______ _______ _____ _____    ______ ____
ROOT
ATOM      1  C   UNL     1      43.710   5.758  12.375  0.00  0.00    +0.000 C 
ENDROOT
BRANCH   1   2
ATOM      2  C   UNL     1      45.134   5.824  12.886  0.00  0.00    +0.000 A 
ATOM      3  C   UNL     1      45.639   4.799  13.692  0.00  0.00    +0.000 A 
ATOM      4  C   UNL     1      46.954   4.848  14.155  0.00  0.00    +0.000 A 
ATOM      5  C   UNL     1      47.787   5.917  13.806  0.00  0.00    +0.000 A 
ATOM      6  C   UNL     1      47.325   6.961  12.991  0.00  0.00    +0.000 A 
ATOM      7  C   UNL     1      45.979   6.903  12.582  0.00  0.00    +0.000 A 
BRANCH   6   8
ATOM      8  C   UNL     1      48.211   8.030  12.470  0.00  0.00    +0.000 A 
ATOM      9  C   UNL     1      49.548   7.758  12.128  0.00  0.00    +0.000 A 
ATOM     10  C   UNL     1      50.347   8.710  11.485  0.00  0.00    +0.000 A 
ATOM     11  C   UNL     1      49.824   9.958  11.165  0.00  0.00    +0.000 A 
ATOM     12  C   UNL     1      48.516  10.268  11.521  0.00  0.00    +0.000 A 
ATOM     13  C   UNL     1      47.726   9.320  12.180  0.00  0.00    +0.000 A 
ENDBRANCH   6   8
ENDBRANCH   1   2
BRANCH   1  14
ATOM     14  C   UNL     1      43.590   5.757  10.845  0.00  0.00    +0.000 C 
BRANCH  14  19
ATOM     15  C   UNL     1      45.345   3.359   8.666  0.00  0.00    +0.000 A 
ATOM     16  C   UNL     1      44.901   2.152   9.183  0.00  0.00    +0.000 A 
ATOM     17  N   UNL     1      44.024   2.065  10.210  0.00  0.00    +0.000 NA
ATOM     18  C   UNL     1      43.606   3.243  10.724  0.00  0.00    +0.000 A 
ATOM     19  C   UNL     1      44.038   4.466  10.230  0.00  0.00    +0.000 A 
ATOM     20  N   UNL     1      44.904   4.542   9.189  0.00  0.00    +0.000 NA
BRANCH  15  22
ATOM     21  F   UNL     1      47.047   4.529   7.438  0.00  0.00    +0.000 F 
ATOM     22  C   UNL     1      46.336   3.366   7.525  0.00  0.00    +0.000 C 
ATOM     23  F   UNL     1      45.750   3.210   6.304  0.00  0.00    +0.000 F 
ATOM     24  F   UNL     1      47.271   2.378   7.622  0.00  0.00    +0.000 F 
ENDBRANCH  15  22
ENDBRANCH  14  19
ENDBRANCH   1  14
TORSDOF 5
ENDMDL
MODEL 6
REMARK VINA RESULT:    -7.215      3.890      6.987
REMARK INTER + INTRA:         -10.101
REMARK INTER:                  -9.315
REMARK INTRA:                  -0.786
REMARK UNBOUND:                -0.777
REMARK  Name = 
REMARK  5 active torsions:
REMARK  status: ('A' for Active; 'I' for Inactive)
REMARK    1  A    between atoms: C_2  and  C_5
REMARK    2  A    between atoms: C_9  and  C_10
REMARK    3  A    between atoms: C_10  and  C_11
REMARK    4  A    between atoms: C_11  and  C_12
REMARK    5  A    between atoms: C_16  and  C_17
REMARK                            x       y       z     vdW  Elec       q    Type
REMARK                         _______ _______ _______ _____ _____    ______ ____
ROOT
ATOM      1  C   UNL     1      44.571   6.411  11.659  0.00  0.00    +0.000 C 
ENDROOT
BRANCH   1   2
ATOM      2  C   UNL     1      44.409   4.976  11.200  0.00  0.00    +0.000 A 
ATOM      3  C   UNL     1      43.497   4.133  11.844  0.00  0.00    +0.000 A 
ATOM      4  C   UNL     1      43.334   2.815  11.418  0.00  0.00    +0.000 A 
ATOM      5  C   UNL     1      44.070   2.325  10.333  0.00  0.00    +0.000 A 
ATOM      6  C   UNL     1      44.987   3.140   9.652  0.00  0.00    +0.000 A 
ATOM      7  C   UNL     1      45.161   4.449  10.138  0.00  0.00    +0.000 A 
BRANCH   6   8
ATOM      8  C   UNL     1      45.671   2.717   8.406  0.00  0.00    +0.000 A 
ATOM      9  C   UNL     1      45.904   3.630   7.362  0.00  0.00    +0.000 A 
ATOM     10  C   UNL     1      46.687   3.291   6.254  0.00  0.00    +0.000 A 
ATOM     11  C   UNL     1      47.261   2.027   6.166  0.00  0.00    +0.000 A 
ATOM     12  C   UNL     1      47.021   1.091   7.166  0.00  0.00    +0.000 A 
ATOM     13  C   UNL     1      46.221   1.428   8.263  0.00  0.00    +0.000 A 
ENDBRANCH   6   8
ENDBRANCH   1   2
BRANCH   1  14
ATOM     14  C   UNL     1      45.973   6.990  11.425  0.00  0.00    +0.000 C 
BRANCH  14  19
ATOM     15  C   UNL     1      47.522   5.591  14.461  0.00  0.00    +0.000 A 
ATOM     16  C   UNL     1      48.530   6.513  14.698  0.00  0.00    +0.000 A 
ATOM     17  N   UNL     1      48.730   7.605  13.924  0.00  0.00    +0.000 NA
ATOM     18  C   UNL     1      47.884   7.744  12.878  0.00  0.00    +0.000 A 
ATOM     19  C   UNL     1      46.870   6.834  12.614  0.00  0.00    +0.000 A 
ATOM     20  N   UNL     1      46.669   5.751  13.407  0.00  0.00    +0.000 NA
BRANCH  15  22
ATOM     21  F   UNL     1      48.327   4.341  16.349  0.00  0.00    +0.000 F 
ATOM     22  C   UNL     1      47.377   4.391  15.369  0.00  0.00    +0.000 C 
ATOM     23  F   UNL     1      47.479   3.202  14.708  0.00  0.00    +0.000 F 
ATOM     24  F   UNL     1      46.182   4.356  16.023  0.00  0.00    +0.000 F 
ENDBRANCH  15  22
ENDBRANCH  14  19
ENDBRANCH   1  14
TORSDOF 5
ENDMDL
MODEL 7
REMARK VINA RESULT:    -7.199      4.863      7.744
REMARK INTER + INTRA:         -10.081
REMARK INTER:                  -9.204
REMARK INTRA:                  -0.877
REMARK UNBOUND:                -0.777
REMARK  Name = 
REMARK  5 active torsions:
REMARK  status: ('A' for Active; 'I' for Inactive)
REMARK    1  A    between atoms: C_2  and  C_5
REMARK    2  A    between atoms: C_9  and  C_10
REMARK    3  A    between atoms: C_10  and  C_11
REMARK    4  A    between atoms: C_11  and  C_12
REMARK    5  A    between atoms: C_16  and  C_17
REMARK                            x       y       z     vdW  Elec       q    Type
REMARK                         _______ _______ _______ _____ _____    ______ ____
ROOT
ATOM      1  C   UNL     1      48.787   6.935  13.577  0.00  0.00    +0.000 C 
ENDROOT
BRANCH   1   2
ATOM      2  C   UNL     1      47.432   7.058  12.910  0.00  0.00    +0.000 A 
ATOM      3  C   UNL     1      46.691   8.237  13.040  0.00  0.00    +0.000 A 
ATOM      4  C   UNL     1      45.448   8.360  12.418  0.00  0.00    +0.000 A 
ATOM      5  C   UNL     1      44.936   7.311  11.646  0.00  0.00    +0.000 A 
ATOM      6  C   UNL     1      45.652   6.116  11.480  0.00  0.00    +0.000 A 
ATOM      7  C   UNL     1      46.879   6.008  12.161  0.00  0.00    +0.000 A 
BRANCH   6   8
ATOM      8  C   UNL     1      45.225   5.043  10.549  0.00  0.00    +0.000 A 
ATOM      9  C   UNL     1      45.622   5.056   9.200  0.00  0.00    +0.000 A 
ATOM     10  C   UNL     1      45.365   3.973   8.352  0.00  0.00    +0.000 A 
ATOM     11  C   UNL     1      44.707   2.848   8.837  0.00  0.00    +0.000 A 
ATOM     12  C   UNL     1      44.271   2.821  10.157  0.00  0.00    +0.000 A 
ATOM     13  C   UNL     1      44.514   3.913  10.997  0.00  0.00    +0.000 A 
ENDBRANCH   6   8
ENDBRANCH   1   2
BRANCH   1  14
ATOM     14  C   UNL     1      48.888   7.649  14.931  0.00  0.00    +0.000 C 
BRANCH  14  19
ATOM     15  C   UNL     1      48.449   4.557  16.885  0.00  0.00    +0.000 A 
ATOM     16  C   UNL     1      48.795   4.991  18.156  0.00  0.00    +0.000 A 
ATOM     17  N   UNL     1      49.150   6.267  18.431  0.00  0.00    +0.000 NA
ATOM     18  C   UNL     1      49.162   7.111  17.374  0.00  0.00    +0.000 A 
ATOM     19  C   UNL     1      48.827   6.703  16.091  0.00  0.00    +0.000 A 
ATOM     20  N   UNL     1      48.457   5.424  15.831  0.00  0.00    +0.000 NA
BRANCH  15  22
ATOM     21  F   UNL     1      47.028   2.699  17.436  0.00  0.00    +0.000 F 
ATOM     22  C   UNL     1      48.078   3.108  16.664  0.00  0.00    +0.000 C 
ATOM     23  F   UNL     1      49.093   2.244  16.949  0.00  0.00    +0.000 F 
ATOM     24  F   UNL     1      47.706   2.841  15.380  0.00  0.00    +0.000 F 
ENDBRANCH  15  22
ENDBRANCH  14  19
ENDBRANCH   1  14
TORSDOF 5
ENDMDL
MODEL 8
REMARK VINA RESULT:    -6.897      2.874      5.104
REMARK INTER + INTRA:          -9.691
REMARK INTER:                  -8.799
REMARK INTRA:                  -0.892
REMARK UNBOUND:                -0.777
REMARK  Name = 
REMARK  5 active torsions:
REMARK  status: ('A' for Active; 'I' for Inactive)
REMARK    1  A    between atoms: C_2  and  C_5
REMARK    2  A    between atoms: C_9  and  C_10
REMARK    3  A    between atoms: C_10  and  C_11
REMARK    4  A    between atoms: C_11  and  C_12
REMARK    5  A    between atoms: C_16  and  C_17
REMARK                            x       y       z     vdW  Elec       q    Type
REMARK                         _______ _______ _______ _____ _____    ______ ____
ROOT
ATOM      1  C   UNL     1      46.483   6.722  11.801  0.00  0.00    +0.000 C 
ENDROOT
BRANCH   1   2
ATOM      2  C   UNL     1      47.484   6.866  12.929  0.00  0.00    +0.000 A 
ATOM      3  C   UNL     1      48.379   7.940  12.938  0.00  0.00    +0.000 A 
ATOM      4  C   UNL     1      49.295   8.085  13.981  0.00  0.00    +0.000 A 
ATOM      5  C   UNL     1      49.318   7.166  15.036  0.00  0.00    +0.000 A 
ATOM      6  C   UNL     1      48.429   6.081  15.072  0.00  0.00    +0.000 A 
ATOM      7  C   UNL     1      47.552   5.939  13.980  0.00  0.00    +0.000 A 
BRANCH   6   8
ATOM      8  C   UNL     1      48.310   5.175  16.240  0.00  0.00    +0.000 A 
ATOM      9  C   UNL     1      47.279   4.221  16.313  0.00  0.00    +0.000 A 
ATOM     10  C   UNL     1      47.248   3.255  17.325  0.00  0.00    +0.000 A 
ATOM     11  C   UNL     1      48.252   3.218  18.287  0.00  0.00    +0.000 A 
ATOM     12  C   UNL     1      49.265   4.170  18.260  0.00  0.00    +0.000 A 
ATOM     13  C   UNL     1      49.283   5.146  17.258  0.00  0.00    +0.000 A 
ENDBRANCH   6   8
ENDBRANCH   1   2
BRANCH   1  14
ATOM     14  C   UNL     1      45.040   6.486  12.268  0.00  0.00    +0.000 C 
BRANCH  14  19
ATOM     15  C   UNL     1      44.432   3.307  10.507  0.00  0.00    +0.000 A 
ATOM     16  C   UNL     1      43.757   2.586  11.480  0.00  0.00    +0.000 A 
ATOM     17  N   UNL     1      43.457   3.090  12.699  0.00  0.00    +0.000 NA
ATOM     18  C   UNL     1      43.872   4.357  12.927  0.00  0.00    +0.000 A 
ATOM     19  C   UNL     1      44.555   5.099  11.974  0.00  0.00    +0.000 A 
ATOM     20  N   UNL     1      44.836   4.589  10.749  0.00  0.00    +0.000 NA
BRANCH  15  22
ATOM     21  F   UNL     1      46.077   2.574   8.915  0.00  0.00    +0.000 F 
ATOM     22  C   UNL     1      44.739   2.662   9.174  0.00  0.00    +0.000 C 
ATOM     23  F   UNL     1      44.210   3.339   8.116  0.00  0.00    +0.000 F 
ATOM     24  F   UNL     1      44.268   1.386   9.077  0.00  0.00    +0.000 F 
ENDBRANCH  15  22
ENDBRANCH  14  19
ENDBRANCH   1  14
TORSDOF 5
ENDMDL
MODEL 9
REMARK VINA RESULT:    -6.569      5.235      8.005
REMARK INTER + INTRA:          -9.266
REMARK INTER:                  -8.113
REMARK INTRA:                  -1.153
REMARK UNBOUND:                -0.777
REMARK  Name = 
REMARK  5 active torsions:
REMARK  status: ('A' for Active; 'I' for Inactive)
REMARK    1  A    between atoms: C_2  and  C_5
REMARK    2  A    between atoms: C_9  and  C_10
REMARK    3  A    between atoms: C_10  and  C_11
REMARK    4  A    between atoms: C_11  and  C_12
REMARK    5  A    between atoms: C_16  and  C_17
REMARK                            x       y       z     vdW  Elec       q    Type
REMARK                         _______ _______ _______ _____ _____    ______ ____
ROOT
ATOM      1  C   UNL     1      49.677   8.031  15.760  0.00  0.00    +0.000 C 
ENDROOT
BRANCH   1   2
ATOM      2  C   UNL     1      49.293   7.868  14.303  0.00  0.00    +0.000 A 
ATOM      3  C   UNL     1      50.101   8.414  13.300  0.00  0.00    +0.000 A 
ATOM      4  C   UNL     1      49.759   8.256  11.957  0.00  0.00    +0.000 A 
ATOM      5  C   UNL     1      48.613   7.538  11.598  0.00  0.00    +0.000 A 
ATOM      6  C   UNL     1      47.782   6.965  12.571  0.00  0.00    +0.000 A 
ATOM      7  C   UNL     1      48.130   7.184  13.917  0.00  0.00    +0.000 A 
BRANCH   6   8
ATOM      8  C   UNL     1      46.649   6.067  12.237  0.00  0.00    +0.000 A 
ATOM      9  C   UNL     1      45.993   6.162  10.996  0.00  0.00    +0.000 A 
ATOM     10  C   UNL     1      45.035   5.222  10.602  0.00  0.00    +0.000 A 
ATOM     11  C   UNL     1      44.714   4.159  11.441  0.00  0.00    +0.000 A 
ATOM     12  C   UNL     1      45.320   4.059  12.688  0.00  0.00    +0.000 A 
ATOM     13  C   UNL     1      46.264   5.011  13.086  0.00  0.00    +0.000 A 
ENDBRANCH   6   8
ENDBRANCH   1   2
BRANCH   1  14
ATOM     14  C   UNL     1      50.710   7.009  16.256  0.00  0.00    +0.000 C 
BRANCH  14  19
ATOM     15  C   UNL     1      48.903   3.981  17.324  0.00  0.00    +0.000 A 
ATOM     16  C   UNL     1      49.095   4.024  18.696  0.00  0.00    +0.000 A 
ATOM     17  N   UNL     1      49.774   5.015  19.317  0.00  0.00    +0.000 NA
ATOM     18  C   UNL     1      50.277   5.975  18.509  0.00  0.00    +0.000 A 
ATOM     19  C   UNL     1      50.106   5.955  17.132  0.00  0.00    +0.000 A 
ATOM     20  N   UNL     1      49.409   4.964  16.522  0.00  0.00    +0.000 NA
BRANCH  15  22
ATOM     21  F   UNL     1      48.926   1.735  16.467  0.00  0.00    +0.000 F 
ATOM     22  C   UNL     1      48.142   2.828  16.710  0.00  0.00    +0.000 C 
ATOM     23  F   UNL     1      47.574   3.137  15.510  0.00  0.00    +0.000 F 
ATOM     24  F   UNL     1      47.128   2.375  17.500  0.00  0.00    +0.000 F 
ENDBRANCH  15  22
ENDBRANCH  14  19
ENDBRANCH   1  14
TORSDOF 5
ENDMDL
