MODEL 1
REMARK VINA RESULT:    -7.688      0.000      0.000
REMARK INTER + INTRA:         -10.006
REMARK INTER:                  -9.485
REMARK INTRA:                  -0.520
REMARK UNBOUND:                -0.520
REMARK  Name = 
REMARK  4 active torsions:
REMARK  status: ('A' for Active; 'I' for Inactive)
REMARK    1  A    between atoms: C_2  and  C_5
REMARK    2  A    between atoms: N_11  and  C_12
REMARK    3  A    between atoms: C_12  and  C_13
REMARK    4  A    between atoms: C_17  and  C_18
REMARK                            x       y       z     vdW  Elec       q    Type
REMARK                         _______ _______ _______ _____ _____    ______ ____
ROOT
ATOM      1  C   UNL     1      47.904   4.581  17.816  0.00  0.00    +0.000 A 
ATOM      2  C   UNL     1      48.883   3.604  17.973  0.00  0.00    +0.000 A 
ATOM      3  C   UNL     1      49.104   2.751  16.909  0.00  0.00    +0.000 A 
ATOM      4 CL   UNL     1      50.297   1.523  17.012  0.00  0.00    +0.000 Cl
ATOM      5  N   UNL     1      48.442   2.797  15.736  0.00  0.00    +0.000 NA
ATOM      6  C   UNL     1      47.500   3.744  15.579  0.00  0.00    +0.000 A 
ATOM      7  N   UNL     1      46.877   3.759  14.359  0.00  0.00    +0.000 N 
ATOM      8  C   UNL     1      47.213   4.646  16.598  0.00  0.00    +0.000 A 
ATOM      9  H   UNL     1      47.148   3.006  13.738  0.00  0.00    +0.000 HD
ENDROOT
BRANCH   1  11
ATOM     10  F   UNL     1      46.245   5.804  19.041  0.00  0.00    +0.000 F 
ATOM     11  C   UNL     1      47.575   5.552  18.917  0.00  0.00    +0.000 C 
ATOM     12  F   UNL     1      48.172   6.761  18.732  0.00  0.00    +0.000 F 
ATOM     13  F   UNL     1      47.991   5.112  20.136  0.00  0.00    +0.000 F 
ENDBRANCH   1  11
BRANCH   7  14
ATOM     14  C   UNL     1      45.808   4.651  13.996  0.00  0.00    +0.000 C 
BRANCH  14  15
ATOM     15  C   UNL     1      45.021   4.109  12.832  0.00  0.00    +0.000 A 
ATOM     16  C   UNL     1      43.664   3.814  12.945  0.00  0.00    +0.000 A 
ATOM     17  C   UNL     1      42.991   3.381  11.814  0.00  0.00    +0.000 A 
ATOM     18  N   UNL     1      43.576   3.206  10.606  0.00  0.00    +0.000 NA
ATOM     19  C   UNL     1      44.905   3.448  10.504  0.00  0.00    +0.000 A 
ATOM     20  C   UNL     1      45.647   3.903  11.597  0.00  0.00    +0.000 A 
BRANCH  19  21
ATOM     21  C   UNL     1      45.513   3.224   9.183  0.00  0.00    +0.000 A 
ATOM     22  C   UNL     1      45.814   1.941   8.698  0.00  0.00    +0.000 A 
ATOM     23  C   UNL     1      46.422   1.772   7.456  0.00  0.00    +0.000 A 
ATOM     24  C   UNL     1      46.713   2.900   6.708  0.00  0.00    +0.000 A 
ATOM     25  N   UNL     1      46.432   4.154   7.116  0.00  0.00    +0.000 NA
ATOM     26  C   UNL     1      45.836   4.284   8.331  0.00  0.00    +0.000 A 
ENDBRANCH  19  21
ENDBRANCH  14  15
ENDBRANCH   7  14
TORSDOF 4
ENDMDL
MODEL 2
REMARK VINA RESULT:    -7.678      3.331      4.146
REMARK INTER + INTRA:          -9.994
REMARK INTER:                  -9.597
REMARK INTRA:                  -0.397
REMARK UNBOUND:                -0.520
REMARK  Name = 
REMARK  4 active torsions:
REMARK  status: ('A' for Active; 'I' for Inactive)
REMARK    1  A    between atoms: C_2  and  C_5
REMARK    2  A    between atoms: N_11  and  C_12
REMARK    3  A    between atoms: C_12  and  C_13
REMARK    4  A    between atoms: C_17  and  C_18
REMARK                            x       y       z     vdW  Elec       q    Type
REMARK                         _______ _______ _______ _____ _____    ______ ____
ROOT
ATOM      1  C   UNL     1      47.035   5.604  13.660  0.00  0.00    +0.000 A 
ATOM      2  C   UNL     1      48.119   6.448  13.434  0.00  0.00    +0.000 A 
ATOM      3  C   UNL     1      47.980   7.411  12.453  0.00  0.00    +0.000 A 
ATOM      4 CL   UNL     1      49.263   8.497  12.112  0.00  0.00    +0.000 Cl
ATOM      5  N   UNL     1      46.875   7.590  11.702  0.00  0.00    +0.000 NA
ATOM      6  C   UNL     1      45.823   6.782  11.923  0.00  0.00    +0.000 A 
ATOM      7  N   UNL     1      44.720   7.025  11.149  0.00  0.00    +0.000 N 
ATOM      8  C   UNL     1      45.876   5.786  12.893  0.00  0.00    +0.000 A 
ATOM      9  H   UNL     1      44.848   7.743  10.446  0.00  0.00    +0.000 HD
ENDROOT
BRANCH   1  11
ATOM     10  F   UNL     1      47.422   3.299  14.190  0.00  0.00    +0.000 F 
ATOM     11  C   UNL     1      47.086   4.515  14.695  0.00  0.00    +0.000 C 
ATOM     12  F   UNL     1      45.890   4.345  15.323  0.00  0.00    +0.000 F 
ATOM     13  F   UNL     1      47.990   4.778  15.679  0.00  0.00    +0.000 F 
ENDBRANCH   1  11
BRANCH   7  14
ATOM     14  C   UNL     1      43.508   6.251  11.184  0.00  0.00    +0.000 C 
BRANCH  14  15
ATOM     15  C   UNL     1      43.780   4.804  10.867  0.00  0.00    +0.000 A 
ATOM     16  C   UNL     1      43.215   3.775  11.618  0.00  0.00    +0.000 A 
ATOM     17  C   UNL     1      43.457   2.468  11.227  0.00  0.00    +0.000 A 
ATOM     18  N   UNL     1      44.227   2.125  10.169  0.00  0.00    +0.000 NA
ATOM     19  C   UNL     1      44.815   3.121   9.464  0.00  0.00    +0.000 A 
ATOM     20  C   UNL     1      44.604   4.464   9.788  0.00  0.00    +0.000 A 
BRANCH  19  21
ATOM     21  C   UNL     1      45.666   2.712   8.335  0.00  0.00    +0.000 A 
ATOM     22  C   UNL     1      46.004   3.585   7.289  0.00  0.00    +0.000 A 
ATOM     23  C   UNL     1      46.784   3.149   6.220  0.00  0.00    +0.000 A 
ATOM     24  C   UNL     1      47.224   1.837   6.220  0.00  0.00    +0.000 A 
ATOM     25  N   UNL     1      46.943   0.960   7.204  0.00  0.00    +0.000 NA
ATOM     26  C   UNL     1      46.184   1.418   8.234  0.00  0.00    +0.000 A 
ENDBRANCH  19  21
ENDBRANCH  14  15
ENDBRANCH   7  14
TORSDOF 4
ENDMDL
MODEL 3
REMARK VINA RESULT:    -7.658      4.571      5.555
REMARK INTER + INTRA:          -9.969
REMARK INTER:                  -9.183
REMARK INTRA:                  -0.787
REMARK UNBOUND:                -0.520
REMARK  Name = 
REMARK  4 active torsions:
REMARK  status: ('A' for Active; 'I' for Inactive)
REMARK    1  A    between atoms: C_2  and  C_5
REMARK    2  A    between atoms: N_11  and  C_12
REMARK    3  A    between atoms: C_12  and  C_13
REMARK    4  A    between atoms: C_17  and  C_18
REMARK                            x       y       z     vdW  Elec       q    Type
REMARK                         _______ _______ _______ _____ _____    ______ ____
ROOT
ATOM      1  C   UNL     1      47.859   8.808  12.194  0.00  0.00    +0.000 A 
ATOM      2  C   UNL     1      47.232  10.001  11.844  0.00  0.00    +0.000 A 
ATOM      3  C   UNL     1      45.852  10.035  11.909  0.00  0.00    +0.000 A 
ATOM      4 CL   UNL     1      44.997  11.465  11.503  0.00  0.00    +0.000 Cl
ATOM      5  N   UNL     1      45.074   9.000  12.283  0.00  0.00    +0.000 NA
ATOM      6  C   UNL     1      45.677   7.849  12.628  0.00  0.00    +0.000 A 
ATOM      7  N   UNL     1      44.840   6.839  13.022  0.00  0.00    +0.000 N 
ATOM      8  C   UNL     1      47.062   7.727  12.594  0.00  0.00    +0.000 A 
ATOM      9  H   UNL     1      43.853   7.054  12.940  0.00  0.00    +0.000 HD
ENDROOT
BRANCH   1  11
ATOM     10  F   UNL     1      50.018   9.847  12.107  0.00  0.00    +0.000 F 
ATOM     11  C   UNL     1      49.355   8.661  12.147  0.00  0.00    +0.000 C 
ATOM     12  F   UNL     1      49.770   7.961  11.056  0.00  0.00    +0.000 F 
ATOM     13  F   UNL     1      49.843   7.992  13.228  0.00  0.00    +0.000 F 
ENDBRANCH   1  11
BRANCH   7  14
ATOM     14  C   UNL     1      45.267   5.514  13.383  0.00  0.00    +0.000 C 
BRANCH  14  15
ATOM     15  C   UNL     1      44.758   4.494  12.398  0.00  0.00    +0.000 A 
ATOM     16  C   UNL     1      43.631   3.719  12.669  0.00  0.00    +0.000 A 
ATOM     17  C   UNL     1      43.184   2.849  11.689  0.00  0.00    +0.000 A 
ATOM     18  N   UNL     1      43.786   2.686  10.488  0.00  0.00    +0.000 NA
ATOM     19  C   UNL     1      44.908   3.404  10.239  0.00  0.00    +0.000 A 
ATOM     20  C   UNL     1      45.410   4.314  11.172  0.00  0.00    +0.000 A 
BRANCH  19  21
ATOM     21  C   UNL     1      45.551   3.184   8.934  0.00  0.00    +0.000 A 
ATOM     22  C   UNL     1      45.929   1.910   8.483  0.00  0.00    +0.000 A 
ATOM     23  C   UNL     1      46.567   1.748   7.255  0.00  0.00    +0.000 A 
ATOM     24  C   UNL     1      46.812   2.874   6.489  0.00  0.00    +0.000 A 
ATOM     25  N   UNL     1      46.458   4.119   6.864  0.00  0.00    +0.000 NA
ATOM     26  C   UNL     1      45.834   4.242   8.065  0.00  0.00    +0.000 A 
ENDBRANCH  19  21
ENDBRANCH  14  15
ENDBRANCH   7  14
TORSDOF 4
ENDMDL
MODEL 4
REMARK VINA RESULT:    -7.416      4.955      5.526
REMARK INTER + INTRA:          -9.670
REMARK INTER:                  -8.958
REMARK INTRA:                  -0.713
REMARK UNBOUND:                -0.520
REMARK  Name = 
REMARK  4 active torsions:
REMARK  status: ('A' for Active; 'I' for Inactive)
REMARK    1  A    between atoms: C_2  and  C_5
REMARK    2  A    between atoms: N_11  and  C_12
REMARK    3  A    between atoms: C_12  and  C_13
REMARK    4  A    between atoms: C_17  and  C_18
REMARK                            x       y       z     vdW  Elec       q    Type
REMARK                         _______ _______ _______ _____ _____    ______ ____
ROOT
ATOM      1  C   UNL     1      46.430   9.873  12.049  0.00  0.00    +0.000 A 
ATOM      2  C   UNL     1      47.747   9.952  12.494  0.00  0.00    +0.000 A 
ATOM      3  C   UNL     1      48.263   8.852  13.152  0.00  0.00    +0.000 A 
ATOM      4 CL   UNL     1      49.878   8.860  13.726  0.00  0.00    +0.000 Cl
ATOM      5  N   UNL     1      47.584   7.713  13.393  0.00  0.00    +0.000 NA
ATOM      6  C   UNL     1      46.314   7.630  12.959  0.00  0.00    +0.000 A 
ATOM      7  N   UNL     1      45.681   6.442  13.210  0.00  0.00    +0.000 N 
ATOM      8  C   UNL     1      45.716   8.690  12.286  0.00  0.00    +0.000 A 
ATOM      9  H   UNL     1      46.222   5.784  13.760  0.00  0.00    +0.000 HD
ENDROOT
BRANCH   1  11
ATOM     10  F   UNL     1      44.611  10.674  10.710  0.00  0.00    +0.000 F 
ATOM     11  C   UNL     1      45.769  11.018  11.334  0.00  0.00    +0.000 C 
ATOM     12  F   UNL     1      46.569  11.556  10.373  0.00  0.00    +0.000 F 
ATOM     13  F   UNL     1      45.455  12.041  12.175  0.00  0.00    +0.000 F 
ENDBRANCH   1  11
BRANCH   7  14
ATOM     14  C   UNL     1      44.310   6.157  12.880  0.00  0.00    +0.000 C 
BRANCH  14  15
ATOM     15  C   UNL     1      44.192   4.858  12.128  0.00  0.00    +0.000 A 
ATOM     16  C   UNL     1      43.370   3.827  12.579  0.00  0.00    +0.000 A 
ATOM     17  C   UNL     1      43.261   2.687  11.801  0.00  0.00    +0.000 A 
ATOM     18  N   UNL     1      43.921   2.500  10.635  0.00  0.00    +0.000 NA
ATOM     19  C   UNL     1      44.757   3.481  10.216  0.00  0.00    +0.000 A 
ATOM     20  C   UNL     1      44.906   4.667  10.938  0.00  0.00    +0.000 A 
BRANCH  19  21
ATOM     21  C   UNL     1      45.478   3.235   8.957  0.00  0.00    +0.000 A 
ATOM     22  C   UNL     1      45.860   1.948   8.544  0.00  0.00    +0.000 A 
ATOM     23  C   UNL     1      46.572   1.760   7.361  0.00  0.00    +0.000 A 
ATOM     24  C   UNL     1      46.886   2.873   6.600  0.00  0.00    +0.000 A 
ATOM     25  N   UNL     1      46.532   4.128   6.939  0.00  0.00    +0.000 NA
ATOM     26  C   UNL     1      45.835   4.277   8.096  0.00  0.00    +0.000 A 
ENDBRANCH  19  21
ENDBRANCH  14  15
ENDBRANCH   7  14
TORSDOF 4
ENDMDL
MODEL 5
REMARK VINA RESULT:    -7.150      3.178      3.984
REMARK INTER + INTRA:          -9.342
REMARK INTER:                  -8.539
REMARK INTRA:                  -0.803
REMARK UNBOUND:                -0.520
REMARK  Name = 
REMARK  4 active torsions:
REMARK  status: ('A' for Active; 'I' for Inactive)
REMARK    1  A    between atoms: C_2  and  C_5
REMARK    2  A    between atoms: N_11  and  C_12
REMARK    3  A    between atoms: C_12  and  C_13
REMARK    4  A    between atoms: C_17  and  C_18
REMARK                            x       y       z     vdW  Elec       q    Type
REMARK                         _______ _______ _______ _____ _____    ______ ____
ROOT
ATOM      1  C   UNL     1      48.160   4.491  17.401  0.00  0.00    +0.000 A 
ATOM      2  C   UNL     1      48.049   5.072  18.661  0.00  0.00    +0.000 A 
ATOM      3  C   UNL     1      48.150   6.448  18.737  0.00  0.00    +0.000 A 
ATOM      4 CL   UNL     1      48.018   7.248  20.248  0.00  0.00    +0.000 Cl
ATOM      5  N   UNL     1      48.349   7.263  17.683  0.00  0.00    +0.000 NA
ATOM      6  C   UNL     1      48.450   6.706  16.463  0.00  0.00    +0.000 A 
ATOM      7  N   UNL     1      48.627   7.583  15.426  0.00  0.00    +0.000 N 
ATOM      8  C   UNL     1      48.358   5.328  16.294  0.00  0.00    +0.000 A 
ATOM      9  H   UNL     1      48.734   8.551  15.707  0.00  0.00    +0.000 HD
ENDROOT
BRANCH   1  11
ATOM     10  F   UNL     1      46.970   2.442  17.767  0.00  0.00    +0.000 F 
ATOM     11  C   UNL     1      48.076   3.002  17.209  0.00  0.00    +0.000 C 
ATOM     12  F   UNL     1      49.142   2.351  17.752  0.00  0.00    +0.000 F 
ATOM     13  F   UNL     1      48.055   2.650  15.894  0.00  0.00    +0.000 F 
ENDBRANCH   1  11
BRANCH   7  14
ATOM     14  C   UNL     1      48.809   7.201  14.051  0.00  0.00    +0.000 C 
BRANCH  14  15
ATOM     15  C   UNL     1      47.513   7.286  13.289  0.00  0.00    +0.000 A 
ATOM     16  C   UNL     1      46.699   8.415  13.359  0.00  0.00    +0.000 A 
ATOM     17  C   UNL     1      45.555   8.447  12.580  0.00  0.00    +0.000 A 
ATOM     18  N   UNL     1      45.165   7.440  11.766  0.00  0.00    +0.000 NA
ATOM     19  C   UNL     1      45.929   6.322  11.729  0.00  0.00    +0.000 A 
ATOM     20  C   UNL     1      47.107   6.222  12.474  0.00  0.00    +0.000 A 
BRANCH  19  21
ATOM     21  C   UNL     1      45.463   5.236  10.852  0.00  0.00    +0.000 A 
ATOM     22  C   UNL     1      45.645   5.258   9.460  0.00  0.00    +0.000 A 
ATOM     23  C   UNL     1      45.157   4.227   8.661  0.00  0.00    +0.000 A 
ATOM     24  C   UNL     1      44.497   3.176   9.274  0.00  0.00    +0.000 A 
ATOM     25  N   UNL     1      44.308   3.094  10.606  0.00  0.00    +0.000 NA
ATOM     26  C   UNL     1      44.799   4.114  11.358  0.00  0.00    +0.000 A 
ENDBRANCH  19  21
ENDBRANCH  14  15
ENDBRANCH   7  14
TORSDOF 4
ENDMDL
MODEL 6
REMARK VINA RESULT:    -6.913      4.685      9.303
REMARK INTER + INTRA:          -9.049
REMARK INTER:                  -8.441
REMARK INTRA:                  -0.608
REMARK UNBOUND:                -0.520
REMARK  Name = 
REMARK  4 active torsions:
REMARK  status: ('A' for Active; 'I' for Inactive)
REMARK    1  A    between atoms: C_2  and  C_5
REMARK    2  A    between atoms: N_11  and  C_12
REMARK    3  A    between atoms: C_12  and  C_13
REMARK    4  A    between atoms: C_17  and  C_18
REMARK                            x       y       z     vdW  Elec       q    Type
REMARK                         _______ _______ _______ _____ _____    ______ ____
ROOT
ATOM      1  C   UNL     1      44.863   4.914  11.447  0.00  0.00    +0.000 A 
ATOM      2  C   UNL     1      44.701   6.269  11.175  0.00  0.00    +0.000 A 
ATOM      3  C   UNL     1      45.293   7.166  12.044  0.00  0.00    +0.000 A 
ATOM      4 CL   UNL     1      45.151   8.855  11.781  0.00  0.00    +0.000 Cl
ATOM      5  N   UNL     1      46.012   6.824  13.131  0.00  0.00    +0.000 NA
ATOM      6  C   UNL     1      46.176   5.515  13.393  0.00  0.00    +0.000 A 
ATOM      7  N   UNL     1      46.934   5.224  14.495  0.00  0.00    +0.000 N 
ATOM      8  C   UNL     1      45.616   4.543  12.569  0.00  0.00    +0.000 A 
ATOM      9  H   UNL     1      47.227   6.033  15.030  0.00  0.00    +0.000 HD
ENDROOT
BRANCH   1  11
ATOM     10  F   UNL     1      45.043   2.765  10.401  0.00  0.00    +0.000 F 
ATOM     11  C   UNL     1      44.250   3.856  10.572  0.00  0.00    +0.000 C 
ATOM     12  F   UNL     1      43.971   4.318   9.322  0.00  0.00    +0.000 F 
ATOM     13  F   UNL     1      43.071   3.391  11.070  0.00  0.00    +0.000 F 
ENDBRANCH   1  11
BRANCH   7  14
ATOM     14  C   UNL     1      47.194   3.897  14.985  0.00  0.00    +0.000 C 
BRANCH  14  15
ATOM     15  C   UNL     1      47.682   3.930  16.409  0.00  0.00    +0.000 A 
ATOM     16  C   UNL     1      48.403   2.870  16.957  0.00  0.00    +0.000 A 
ATOM     17  C   UNL     1      48.876   3.000  18.253  0.00  0.00    +0.000 A 
ATOM     18  N   UNL     1      48.665   4.086  19.030  0.00  0.00    +0.000 NA
ATOM     19  C   UNL     1      47.927   5.100  18.517  0.00  0.00    +0.000 A 
ATOM     20  C   UNL     1      47.430   5.049  17.212  0.00  0.00    +0.000 A 
BRANCH  19  21
ATOM     21  C   UNL     1      47.696   6.256  19.398  0.00  0.00    +0.000 A 
ATOM     22  C   UNL     1      47.672   7.576  18.922  0.00  0.00    +0.000 A 
ATOM     23  C   UNL     1      47.485   8.646  19.794  0.00  0.00    +0.000 A 
ATOM     24  C   UNL     1      47.315   8.374  21.141  0.00  0.00    +0.000 A 
ATOM     25  N   UNL     1      47.313   7.126  21.651  0.00  0.00    +0.000 NA
ATOM     26  C   UNL     1      47.494   6.105  20.774  0.00  0.00    +0.000 A 
ENDBRANCH  19  21
ENDBRANCH  14  15
ENDBRANCH   7  14
TORSDOF 4
ENDMDL
MODEL 7
REMARK VINA RESULT:    -6.685      4.058      4.698
REMARK INTER + INTRA:          -8.769
REMARK INTER:                  -8.355
REMARK INTRA:                  -0.414
REMARK UNBOUND:                -0.520
REMARK  Name = 
REMARK  4 active torsions:
REMARK  status: ('A' for Active; 'I' for Inactive)
REMARK    1  A    between atoms: C_2  and  C_5
REMARK    2  A    between atoms: N_11  and  C_12
REMARK    3  A    between atoms: C_12  and  C_13
REMARK    4  A    between atoms: C_17  and  C_18
REMARK                            x       y       z     vdW  Elec       q    Type
REMARK                         _______ _______ _______ _____ _____    ______ ____
ROOT
ATOM      1  C   UNL     1      46.287   7.902  12.537  0.00  0.00    +0.000 A 
ATOM      2  C   UNL     1      47.589   8.221  12.912  0.00  0.00    +0.000 A 
ATOM      3  C   UNL     1      48.389   7.190  13.368  0.00  0.00    +0.000 A 
ATOM      4 CL   UNL     1      50.008   7.491  13.844  0.00  0.00    +0.000 Cl
ATOM      5  N   UNL     1      47.998   5.905  13.477  0.00  0.00    +0.000 NA
ATOM      6  C   UNL     1      46.743   5.592  13.110  0.00  0.00    +0.000 A 
ATOM      7  N   UNL     1      46.409   4.269  13.218  0.00  0.00    +0.000 N 
ATOM      8  C   UNL     1      45.871   6.567  12.637  0.00  0.00    +0.000 A 
ATOM      9  H   UNL     1      47.126   3.686  13.633  0.00  0.00    +0.000 HD
ENDROOT
BRANCH   1  11
ATOM     10  F   UNL     1      44.678   9.608  13.032  0.00  0.00    +0.000 F 
ATOM     11  C   UNL     1      45.331   8.950  12.038  0.00  0.00    +0.000 C 
ATOM     12  F   UNL     1      44.365   8.427  11.235  0.00  0.00    +0.000 F 
ATOM     13  F   UNL     1      45.954   9.908  11.298  0.00  0.00    +0.000 F 
ENDBRANCH   1  11
BRANCH   7  14
ATOM     14  C   UNL     1      45.108   3.725  12.929  0.00  0.00    +0.000 C 
BRANCH  14  15
ATOM     15  C   UNL     1      44.775   3.865  11.467  0.00  0.00    +0.000 A 
ATOM     16  C   UNL     1      43.746   4.698  11.031  0.00  0.00    +0.000 A 
ATOM     17  C   UNL     1      43.541   4.827   9.667  0.00  0.00    +0.000 A 
ATOM     18  N   UNL     1      44.265   4.177   8.728  0.00  0.00    +0.000 NA
ATOM     19  C   UNL     1      45.237   3.331   9.149  0.00  0.00    +0.000 A 
ATOM     20  C   UNL     1      45.514   3.162  10.508  0.00  0.00    +0.000 A 
BRANCH  19  21
ATOM     21  C   UNL     1      45.989   2.622   8.102  0.00  0.00    +0.000 A 
ATOM     22  C   UNL     1      46.306   1.257   8.192  0.00  0.00    +0.000 A 
ATOM     23  C   UNL     1      47.050   0.630   7.196  0.00  0.00    +0.000 A 
ATOM     24  C   UNL     1      47.462   1.384   6.111  0.00  0.00    +0.000 A 
ATOM     25  N   UNL     1      47.174   2.692   5.964  0.00  0.00    +0.000 NA
ATOM     26  C   UNL     1      46.443   3.273   6.951  0.00  0.00    +0.000 A 
ENDBRANCH  19  21
ENDBRANCH  14  15
ENDBRANCH   7  14
TORSDOF 4
ENDMDL
MODEL 8
REMARK VINA RESULT:    -6.446      3.073      3.804
REMARK INTER + INTRA:          -8.474
REMARK INTER:                  -7.722
REMARK INTRA:                  -0.751
REMARK UNBOUND:                -0.520
REMARK  Name = 
REMARK  4 active torsions:
REMARK  status: ('A' for Active; 'I' for Inactive)
REMARK    1  A    between atoms: C_2  and  C_5
REMARK    2  A    between atoms: N_11  and  C_12
REMARK    3  A    between atoms: C_12  and  C_13
REMARK    4  A    between atoms: C_17  and  C_18
REMARK                            x       y       z     vdW  Elec       q    Type
REMARK                         _______ _______ _______ _____ _____    ______ ____
ROOT
ATOM      1  C   UNL     1      48.476   8.051  17.489  0.00  0.00    +0.000 A 
ATOM      2  C   UNL     1      48.800   6.872  18.154  0.00  0.00    +0.000 A 
ATOM      3  C   UNL     1      49.164   5.786  17.380  0.00  0.00    +0.000 A 
ATOM      4 CL   UNL     1      49.587   4.296  18.115  0.00  0.00    +0.000 Cl
ATOM      5  N   UNL     1      49.225   5.788  16.033  0.00  0.00    +0.000 NA
ATOM      6  C   UNL     1      48.919   6.928  15.388  0.00  0.00    +0.000 A 
ATOM      7  N   UNL     1      49.022   6.879  14.024  0.00  0.00    +0.000 N 
ATOM      8  C   UNL     1      48.545   8.070  16.089  0.00  0.00    +0.000 A 
ATOM      9  H   UNL     1      49.248   5.965  13.650  0.00  0.00    +0.000 HD
ENDROOT
BRANCH   1  11
ATOM     10  F   UNL     1      47.009   9.084  19.079  0.00  0.00    +0.000 F 
ATOM     11  C   UNL     1      48.056   9.287  18.236  0.00  0.00    +0.000 C 
ATOM     12  F   UNL     1      47.676  10.291  17.399  0.00  0.00    +0.000 F 
ATOM     13  F   UNL     1      49.061   9.798  18.999  0.00  0.00    +0.000 F 
ENDBRANCH   1  11
BRANCH   7  14
ATOM     14  C   UNL     1      48.694   7.965  13.138  0.00  0.00    +0.000 C 
BRANCH  14  15
ATOM     15  C   UNL     1      47.317   7.790  12.552  0.00  0.00    +0.000 A 
ATOM     16  C   UNL     1      46.350   8.789  12.653  0.00  0.00    +0.000 A 
ATOM     17  C   UNL     1      45.129   8.583  12.034  0.00  0.00    +0.000 A 
ATOM     18  N   UNL     1      44.806   7.461  11.351  0.00  0.00    +0.000 NA
ATOM     19  C   UNL     1      45.726   6.468  11.289  0.00  0.00    +0.000 A 
ATOM     20  C   UNL     1      46.987   6.610  11.875  0.00  0.00    +0.000 A 
BRANCH  19  21
ATOM     21  C   UNL     1      45.333   5.252  10.560  0.00  0.00    +0.000 A 
ATOM     22  C   UNL     1      45.605   5.068   9.195  0.00  0.00    +0.000 A 
ATOM     23  C   UNL     1      45.185   3.917   8.533  0.00  0.00    +0.000 A 
ATOM     24  C   UNL     1      44.501   2.956   9.256  0.00  0.00    +0.000 A 
ATOM     25  N   UNL     1      44.226   3.072  10.571  0.00  0.00    +0.000 NA
ATOM     26  C   UNL     1      44.653   4.204  11.188  0.00  0.00    +0.000 A 
ENDBRANCH  19  21
ENDBRANCH  14  15
ENDBRANCH   7  14
TORSDOF 4
ENDMDL
MODEL 9
REMARK VINA RESULT:    -6.411      3.168      4.520
REMARK INTER + INTRA:          -8.430
REMARK INTER:                  -7.546
REMARK INTRA:                  -0.884
REMARK UNBOUND:                -0.520
REMARK  Name = 
REMARK  4 active torsions:
REMARK  status: ('A' for Active; 'I' for Inactive)
REMARK    1  A    between atoms: C_2  and  C_5
REMARK    2  A    between atoms: N_11  and  C_12
REMARK    3  A    between atoms: C_12  and  C_13
REMARK    4  A    between atoms: C_17  and  C_18
REMARK                            x       y       z     vdW  Elec       q    Type
REMARK                         _______ _______ _______ _____ _____    ______ ____
ROOT
ATOM      1  C   UNL     1      49.210   4.276  17.432  0.00  0.00    +0.000 A 
ATOM      2  C   UNL     1      50.518   3.892  17.714  0.00  0.00    +0.000 A 
ATOM      3  C   UNL     1      51.526   4.773  17.372  0.00  0.00    +0.000 A 
ATOM      4 CL   UNL     1      53.166   4.384  17.690  0.00  0.00    +0.000 Cl
ATOM      5  N   UNL     1      51.334   5.971  16.786  0.00  0.00    +0.000 NA
ATOM      6  C   UNL     1      50.071   6.349  16.519  0.00  0.00    +0.000 A 
ATOM      7  N   UNL     1      49.934   7.585  15.946  0.00  0.00    +0.000 N 
ATOM      8  C   UNL     1      48.995   5.525  16.831  0.00  0.00    +0.000 A 
ATOM      9  H   UNL     1      50.808   8.046  15.724  0.00  0.00    +0.000 HD
ENDROOT
BRANCH   1  11
ATOM     10  F   UNL     1      48.139   2.772  18.961  0.00  0.00    +0.000 F 
ATOM     11  C   UNL     1      48.040   3.387  17.752  0.00  0.00    +0.000 C 
ATOM     12  F   UNL     1      47.883   2.393  16.836  0.00  0.00    +0.000 F 
ATOM     13  F   UNL     1      46.862   4.068  17.770  0.00  0.00    +0.000 F 
ENDBRANCH   1  11
BRANCH   7  14
ATOM     14  C   UNL     1      48.683   8.162  15.532  0.00  0.00    +0.000 C 
BRANCH  14  15
ATOM     15  C   UNL     1      48.369   7.808  14.102  0.00  0.00    +0.000 A 
ATOM     16  C   UNL     1      49.064   8.384  13.040  0.00  0.00    +0.000 A 
ATOM     17  C   UNL     1      48.766   7.961  11.756  0.00  0.00    +0.000 A 
ATOM     18  N   UNL     1      47.824   7.035  11.463  0.00  0.00    +0.000 NA
ATOM     19  C   UNL     1      47.115   6.505  12.489  0.00  0.00    +0.000 A 
ATOM     20  C   UNL     1      47.371   6.870  13.814  0.00  0.00    +0.000 A 
BRANCH  19  21
ATOM     21  C   UNL     1      46.082   5.519  12.134  0.00  0.00    +0.000 A 
ATOM     22  C   UNL     1      45.398   5.551  10.909  0.00  0.00    +0.000 A 
ATOM     23  C   UNL     1      44.402   4.620  10.624  0.00  0.00    +0.000 A 
ATOM     24  C   UNL     1      44.111   3.657  11.575  0.00  0.00    +0.000 A 
ATOM     25  N   UNL     1      44.746   3.569  12.761  0.00  0.00    +0.000 NA
ATOM     26  C   UNL     1      45.715   4.490  13.006  0.00  0.00    +0.000 A 
ENDBRANCH  19  21
ENDBRANCH  14  15
ENDBRANCH   7  14
TORSDOF 4
ENDMDL
