MODEL 1
REMARK VINA RESULT:    -8.198      0.000      0.000
REMARK INTER + INTRA:         -11.620
REMARK INTER:                 -10.595
REMARK INTRA:                  -1.025
REMARK UNBOUND:                -1.025
REMARK  Name = 
REMARK  5 active torsions:
REMARK  status: ('A' for Active; 'I' for Inactive)
REMARK    1  A    between atoms: C_2  and  C_3
REMARK    2  A    between atoms: C_8  and  N_9
REMARK    3  A    between atoms: N_9  and  C_10
REMARK    4  A    between atoms: C_10  and  C_11
REMARK    5  A    between atoms: C_16  and  C_17
REMARK                            x       y       z     vdW  Elec       q    Type
REMARK                         _______ _______ _______ _____ _____    ______ ____
ROOT
ATOM      1  C   UNL     1      44.454   5.115  10.619  0.00  0.00    +0.000 A 
ATOM      2  C   UNL     1      43.703   4.227  11.396  0.00  0.00    +0.000 A 
ATOM      3  C   UNL     1      43.683   2.877  11.070  0.00  0.00    +0.000 A 
ATOM      4  F   UNL     1      42.993   2.025  11.840  0.00  0.00    +0.000 F 
ATOM      5  C   UNL     1      44.387   2.385   9.972  0.00  0.00    +0.000 A 
ATOM      6  C   UNL     1      45.150   3.244   9.165  0.00  0.00    +0.000 A 
ATOM      7  C   UNL     1      45.155   4.614   9.506  0.00  0.00    +0.000 A 
ENDROOT
BRANCH   6   8
ATOM      8  C   UNL     1      45.965   2.740   8.034  0.00  0.00    +0.000 A 
ATOM      9  C   UNL     1      46.465   1.424   8.017  0.00  0.00    +0.000 A 
ATOM     10  C   UNL     1      47.173   0.924   6.919  0.00  0.00    +0.000 A 
ATOM     11  C   UNL     1      47.416   1.738   5.818  0.00  0.00    +0.000 A 
ATOM     12  C   UNL     1      46.956   3.050   5.816  0.00  0.00    +0.000 A 
ATOM     13  C   UNL     1      46.236   3.543   6.911  0.00  0.00    +0.000 A 
ENDBRANCH   6   8
BRANCH   1  14
ATOM     14  C   UNL     1      44.561   6.575  10.988  0.00  0.00    +0.000 C 
BRANCH  14  15
ATOM     15  N   UNL     1      45.176   6.733  12.296  0.00  0.00    +0.000 N 
ATOM     16  H   UNL     1      44.654   7.349  12.916  0.00  0.00    +0.000 HD
BRANCH  15  22
ATOM     17  C   UNL     1      47.395   5.842  13.134  0.00  0.00    +0.000 A 
ATOM     18  N   UNL     1      48.732   6.023  13.361  0.00  0.00    +0.000 NA
ATOM     19  C   UNL     1      49.277   7.190  12.982  0.00  0.00    +0.000 A 
ATOM     20  C   UNL     1      48.555   8.195  12.372  0.00  0.00    +0.000 A 
ATOM     21  C   UNL     1      47.195   7.985  12.139  0.00  0.00    +0.000 A 
ATOM     22  C   UNL     1      46.560   6.782  12.496  0.00  0.00    +0.000 A 
BRANCH  17  24
ATOM     23  N   UNL     1      46.613   3.491  13.924  0.00  0.00    +0.000 NA
ATOM     24  C   UNL     1      46.950   4.551  13.583  0.00  0.00    +0.000 C 
ENDBRANCH  17  24
ENDBRANCH  15  22
ENDBRANCH  14  15
ENDBRANCH   1  14
TORSDOF 5
ENDMDL
MODEL 2
REMARK VINA RESULT:    -7.750      1.605      2.394
REMARK INTER + INTRA:         -11.041
REMARK INTER:                 -10.017
REMARK INTRA:                  -1.023
REMARK UNBOUND:                -1.025
REMARK  Name = 
REMARK  5 active torsions:
REMARK  status: ('A' for Active; 'I' for Inactive)
REMARK    1  A    between atoms: C_2  and  C_3
REMARK    2  A    between atoms: C_8  and  N_9
REMARK    3  A    between atoms: N_9  and  C_10
REMARK    4  A    between atoms: C_10  and  C_11
REMARK    5  A    between atoms: C_16  and  C_17
REMARK                            x       y       z     vdW  Elec       q    Type
REMARK                         _______ _______ _______ _____ _____    ______ ____
ROOT
ATOM      1  C   UNL     1      45.302   6.538  11.481  0.00  0.00    +0.000 A 
ATOM      2  C   UNL     1      43.964   6.432  11.871  0.00  0.00    +0.000 A 
ATOM      3  C   UNL     1      43.152   5.468  11.289  0.00  0.00    +0.000 A 
ATOM      4  F   UNL     1      41.881   5.346  11.695  0.00  0.00    +0.000 F 
ATOM      5  C   UNL     1      43.639   4.605  10.308  0.00  0.00    +0.000 A 
ATOM      6  C   UNL     1      44.976   4.681   9.886  0.00  0.00    +0.000 A 
ATOM      7  C   UNL     1      45.785   5.670  10.483  0.00  0.00    +0.000 A 
ENDROOT
BRANCH   6   8
ATOM      8  C   UNL     1      45.541   3.732   8.896  0.00  0.00    +0.000 A 
ATOM      9  C   UNL     1      46.216   4.183   7.746  0.00  0.00    +0.000 A 
ATOM     10  C   UNL     1      46.812   3.291   6.850  0.00  0.00    +0.000 A 
ATOM     11  C   UNL     1      46.729   1.921   7.072  0.00  0.00    +0.000 A 
ATOM     12  C   UNL     1      46.047   1.444   8.186  0.00  0.00    +0.000 A 
ATOM     13  C   UNL     1      45.463   2.340   9.089  0.00  0.00    +0.000 A 
ENDBRANCH   6   8
BRANCH   1  14
ATOM     14  C   UNL     1      46.233   7.522  12.145  0.00  0.00    +0.000 C 
BRANCH  14  15
ATOM     15  N   UNL     1      47.516   6.904  12.436  0.00  0.00    +0.000 N 
ATOM     16  H   UNL     1      47.880   6.346  11.666  0.00  0.00    +0.000 HD
BRANCH  15  22
ATOM     17  C   UNL     1      47.466   5.204  14.314  0.00  0.00    +0.000 A 
ATOM     18  N   UNL     1      47.790   4.847  15.595  0.00  0.00    +0.000 NA
ATOM     19  C   UNL     1      48.505   5.718  16.324  0.00  0.00    +0.000 A 
ATOM     20  C   UNL     1      48.931   6.937  15.836  0.00  0.00    +0.000 A 
ATOM     21  C   UNL     1      48.599   7.276  14.523  0.00  0.00    +0.000 A 
ATOM     22  C   UNL     1      47.865   6.407  13.697  0.00  0.00    +0.000 A 
BRANCH  17  24
ATOM     23  N   UNL     1      46.069   3.350  13.143  0.00  0.00    +0.000 NA
ATOM     24  C   UNL     1      46.707   4.178  13.653  0.00  0.00    +0.000 C 
ENDBRANCH  17  24
ENDBRANCH  15  22
ENDBRANCH  14  15
ENDBRANCH   1  14
TORSDOF 5
ENDMDL
MODEL 3
REMARK VINA RESULT:    -7.327      1.354      2.515
REMARK INTER + INTRA:         -10.493
REMARK INTER:                  -9.707
REMARK INTRA:                  -0.786
REMARK UNBOUND:                -1.025
REMARK  Name = 
REMARK  5 active torsions:
REMARK  status: ('A' for Active; 'I' for Inactive)
REMARK    1  A    between atoms: C_2  and  C_3
REMARK    2  A    between atoms: C_8  and  N_9
REMARK    3  A    between atoms: N_9  and  C_10
REMARK    4  A    between atoms: C_10  and  C_11
REMARK    5  A    between atoms: C_16  and  C_17
REMARK                            x       y       z     vdW  Elec       q    Type
REMARK                         _______ _______ _______ _____ _____    ______ ____
ROOT
ATOM      1  C   UNL     1      44.361   5.058  10.601  0.00  0.00    +0.000 A 
ATOM      2  C   UNL     1      43.633   4.167  11.393  0.00  0.00    +0.000 A 
ATOM      3  C   UNL     1      43.628   2.814  11.079  0.00  0.00    +0.000 A 
ATOM      4  F   UNL     1      42.960   1.959  11.865  0.00  0.00    +0.000 F 
ATOM      5  C   UNL     1      44.326   2.323   9.977  0.00  0.00    +0.000 A 
ATOM      6  C   UNL     1      45.066   3.186   9.153  0.00  0.00    +0.000 A 
ATOM      7  C   UNL     1      45.056   4.558   9.483  0.00  0.00    +0.000 A 
ENDROOT
BRANCH   6   8
ATOM      8  C   UNL     1      45.875   2.683   8.016  0.00  0.00    +0.000 A 
ATOM      9  C   UNL     1      46.154   3.492   6.898  0.00  0.00    +0.000 A 
ATOM     10  C   UNL     1      46.975   3.046   5.858  0.00  0.00    +0.000 A 
ATOM     11  C   UNL     1      47.523   1.768   5.903  0.00  0.00    +0.000 A 
ATOM     12  C   UNL     1      47.245   0.937   6.983  0.00  0.00    +0.000 A 
ATOM     13  C   UNL     1      46.434   1.392   8.028  0.00  0.00    +0.000 A 
ENDBRANCH   6   8
BRANCH   1  14
ATOM     14  C   UNL     1      44.452   6.522  10.956  0.00  0.00    +0.000 C 
BRANCH  14  15
ATOM     15  N   UNL     1      44.714   6.694  12.375  0.00  0.00    +0.000 N 
ATOM     16  H   UNL     1      43.875   6.874  12.923  0.00  0.00    +0.000 HD
BRANCH  15  22
ATOM     17  C   UNL     1      46.184   8.701  12.853  0.00  0.00    +0.000 A 
ATOM     18  N   UNL     1      47.373   9.220  13.292  0.00  0.00    +0.000 NA
ATOM     19  C   UNL     1      48.300   8.359  13.741  0.00  0.00    +0.000 A 
ATOM     20  C   UNL     1      48.102   6.995  13.788  0.00  0.00    +0.000 A 
ATOM     21  C   UNL     1      46.878   6.488  13.347  0.00  0.00    +0.000 A 
ATOM     22  C   UNL     1      45.855   7.331  12.877  0.00  0.00    +0.000 A 
BRANCH  17  24
ATOM     23  N   UNL     1      44.587  10.592  12.056  0.00  0.00    +0.000 NA
ATOM     24  C   UNL     1      45.288   9.733  12.408  0.00  0.00    +0.000 C 
ENDBRANCH  17  24
ENDBRANCH  15  22
ENDBRANCH  14  15
ENDBRANCH   1  14
TORSDOF 5
ENDMDL
MODEL 4
REMARK VINA RESULT:    -7.321      1.077      2.109
REMARK INTER + INTRA:         -10.485
REMARK INTER:                  -9.812
REMARK INTRA:                  -0.673
REMARK UNBOUND:                -1.025
REMARK  Name = 
REMARK  5 active torsions:
REMARK  status: ('A' for Active; 'I' for Inactive)
REMARK    1  A    between atoms: C_2  and  C_3
REMARK    2  A    between atoms: C_8  and  N_9
REMARK    3  A    between atoms: N_9  and  C_10
REMARK    4  A    between atoms: C_10  and  C_11
REMARK    5  A    between atoms: C_16  and  C_17
REMARK                            x       y       z     vdW  Elec       q    Type
REMARK                         _______ _______ _______ _____ _____    ______ ____
ROOT
ATOM      1  C   UNL     1      44.909   4.988  10.601  0.00  0.00    +0.000 A 
ATOM      2  C   UNL     1      44.005   4.172  11.288  0.00  0.00    +0.000 A 
ATOM      3  C   UNL     1      43.776   2.876  10.845  0.00  0.00    +0.000 A 
ATOM      4  F   UNL     1      42.938   2.086  11.529  0.00  0.00    +0.000 F 
ATOM      5  C   UNL     1      44.420   2.370   9.717  0.00  0.00    +0.000 A 
ATOM      6  C   UNL     1      45.332   3.158   8.997  0.00  0.00    +0.000 A 
ATOM      7  C   UNL     1      45.549   4.475   9.457  0.00  0.00    +0.000 A 
ENDROOT
BRANCH   6   8
ATOM      8  C   UNL     1      46.085   2.625   7.837  0.00  0.00    +0.000 A 
ATOM      9  C   UNL     1      46.605   1.316   7.835  0.00  0.00    +0.000 A 
ATOM     10  C   UNL     1      47.252   0.787   6.715  0.00  0.00    +0.000 A 
ATOM     11  C   UNL     1      47.413   1.563   5.572  0.00  0.00    +0.000 A 
ATOM     12  C   UNL     1      46.933   2.867   5.552  0.00  0.00    +0.000 A 
ATOM     13  C   UNL     1      46.273   3.389   6.671  0.00  0.00    +0.000 A 
ENDBRANCH   6   8
BRANCH   1  14
ATOM     14  C   UNL     1      45.241   6.375  11.096  0.00  0.00    +0.000 C 
BRANCH  14  15
ATOM     15  N   UNL     1      46.655   6.485  11.415  0.00  0.00    +0.000 N 
ATOM     16  H   UNL     1      47.265   6.150  10.671  0.00  0.00    +0.000 HD
BRANCH  15  22
ATOM     17  C   UNL     1      48.342   6.816  13.276  0.00  0.00    +0.000 A 
ATOM     18  N   UNL     1      48.819   6.480  14.514  0.00  0.00    +0.000 NA
ATOM     19  C   UNL     1      48.148   5.548  15.209  0.00  0.00    +0.000 A 
ATOM     20  C   UNL     1      47.007   4.932  14.736  0.00  0.00    +0.000 A 
ATOM     21  C   UNL     1      46.532   5.298  13.475  0.00  0.00    +0.000 A 
ATOM     22  C   UNL     1      47.175   6.277  12.698  0.00  0.00    +0.000 A 
BRANCH  17  24
ATOM     23  N   UNL     1      49.778   8.658  12.132  0.00  0.00    +0.000 NA
ATOM     24  C   UNL     1      49.152   7.826  12.651  0.00  0.00    +0.000 C 
ENDBRANCH  17  24
ENDBRANCH  15  22
ENDBRANCH  14  15
ENDBRANCH   1  14
TORSDOF 5
ENDMDL
MODEL 5
REMARK VINA RESULT:    -6.937      1.309      2.118
REMARK INTER + INTRA:          -9.989
REMARK INTER:                  -8.778
REMARK INTRA:                  -1.211
REMARK UNBOUND:                -1.025
REMARK  Name = 
REMARK  5 active torsions:
REMARK  status: ('A' for Active; 'I' for Inactive)
REMARK    1  A    between atoms: C_2  and  C_3
REMARK    2  A    between atoms: C_8  and  N_9
REMARK    3  A    between atoms: N_9  and  C_10
REMARK    4  A    between atoms: C_10  and  C_11
REMARK    5  A    between atoms: C_16  and  C_17
REMARK                            x       y       z     vdW  Elec       q    Type
REMARK                         _______ _______ _______ _____ _____    ______ ____
ROOT
ATOM      1  C   UNL     1      44.630   6.721  11.775  0.00  0.00    +0.000 A 
ATOM      2  C   UNL     1      43.880   6.095  12.774  0.00  0.00    +0.000 A 
ATOM      3  C   UNL     1      43.598   4.739  12.674  0.00  0.00    +0.000 A 
ATOM      4  F   UNL     1      42.912   4.135  13.654  0.00  0.00    +0.000 F 
ATOM      5  C   UNL     1      44.038   3.985  11.587  0.00  0.00    +0.000 A 
ATOM      6  C   UNL     1      44.791   4.577  10.560  0.00  0.00    +0.000 A 
ATOM      7  C   UNL     1      45.063   5.957  10.675  0.00  0.00    +0.000 A 
ENDROOT
BRANCH   6   8
ATOM      8  C   UNL     1      45.331   3.787   9.428  0.00  0.00    +0.000 A 
ATOM      9  C   UNL     1      45.942   4.409   8.322  0.00  0.00    +0.000 A 
ATOM     10  C   UNL     1      46.516   3.663   7.288  0.00  0.00    +0.000 A 
ATOM     11  C   UNL     1      46.475   2.274   7.325  0.00  0.00    +0.000 A 
ATOM     12  C   UNL     1      45.857   1.631   8.392  0.00  0.00    +0.000 A 
ATOM     13  C   UNL     1      45.295   2.380   9.432  0.00  0.00    +0.000 A 
ENDBRANCH   6   8
BRANCH   1  14
ATOM     14  C   UNL     1      45.021   8.174  11.888  0.00  0.00    +0.000 C 
BRANCH  14  15
ATOM     15  N   UNL     1      46.099   8.346  12.848  0.00  0.00    +0.000 N 
ATOM     16  H   UNL     1      45.955   9.130  13.482  0.00  0.00    +0.000 HD
BRANCH  15  22
ATOM     17  C   UNL     1      48.228   6.974  12.818  0.00  0.00    +0.000 A 
ATOM     18  N   UNL     1      49.569   6.876  12.562  0.00  0.00    +0.000 NA
ATOM     19  C   UNL     1      50.186   7.952  12.050  0.00  0.00    +0.000 A 
ATOM     20  C   UNL     1      49.530   9.132  11.765  0.00  0.00    +0.000 A 
ATOM     21  C   UNL     1      48.160   9.206  12.023  0.00  0.00    +0.000 A 
ATOM     22  C   UNL     1      47.445   8.114  12.546  0.00  0.00    +0.000 A 
BRANCH  17  24
ATOM     23  N   UNL     1      47.303   4.743  13.783  0.00  0.00    +0.000 NA
ATOM     24  C   UNL     1      47.700   5.750  13.356  0.00  0.00    +0.000 C 
ENDBRANCH  17  24
ENDBRANCH  15  22
ENDBRANCH  14  15
ENDBRANCH   1  14
TORSDOF 5
ENDMDL
MODEL 6
REMARK VINA RESULT:    -6.885      2.996      7.017
REMARK INTER + INTRA:          -9.922
REMARK INTER:                  -9.354
REMARK INTRA:                  -0.568
REMARK UNBOUND:                -1.025
REMARK  Name = 
REMARK  5 active torsions:
REMARK  status: ('A' for Active; 'I' for Inactive)
REMARK    1  A    between atoms: C_2  and  C_3
REMARK    2  A    between atoms: C_8  and  N_9
REMARK    3  A    between atoms: N_9  and  C_10
REMARK    4  A    between atoms: C_10  and  C_11
REMARK    5  A    between atoms: C_16  and  C_17
REMARK                            x       y       z     vdW  Elec       q    Type
REMARK                         _______ _______ _______ _____ _____    ______ ____
ROOT
ATOM      1  C   UNL     1      45.761   5.975  12.205  0.00  0.00    +0.000 A 
ATOM      2  C   UNL     1      46.674   6.800  11.543  0.00  0.00    +0.000 A 
ATOM      3  C   UNL     1      47.913   7.055  12.118  0.00  0.00    +0.000 A 
ATOM      4  F   UNL     1      48.799   7.815  11.462  0.00  0.00    +0.000 F 
ATOM      5  C   UNL     1      48.264   6.513  13.354  0.00  0.00    +0.000 A 
ATOM      6  C   UNL     1      47.374   5.682  14.052  0.00  0.00    +0.000 A 
ATOM      7  C   UNL     1      46.118   5.439  13.457  0.00  0.00    +0.000 A 
ENDROOT
BRANCH   6   8
ATOM      8  C   UNL     1      47.745   5.036  15.334  0.00  0.00    +0.000 A 
ATOM      9  C   UNL     1      48.505   5.713  16.307  0.00  0.00    +0.000 A 
ATOM     10  C   UNL     1      48.795   5.132  17.545  0.00  0.00    +0.000 A 
ATOM     11  C   UNL     1      48.349   3.847  17.832  0.00  0.00    +0.000 A 
ATOM     12  C   UNL     1      47.618   3.143  16.882  0.00  0.00    +0.000 A 
ATOM     13  C   UNL     1      47.317   3.733  15.649  0.00  0.00    +0.000 A 
ENDBRANCH   6   8
BRANCH   1  14
ATOM     14  C   UNL     1      44.437   5.614  11.576  0.00  0.00    +0.000 C 
BRANCH  14  15
ATOM     15  N   UNL     1      44.554   5.549  10.128  0.00  0.00    +0.000 N 
ATOM     16  H   UNL     1      43.847   6.095   9.640  0.00  0.00    +0.000 HD
BRANCH  15  22
ATOM     17  C   UNL     1      44.673   3.048   9.746  0.00  0.00    +0.000 A 
ATOM     18  N   UNL     1      45.177   1.979   9.055  0.00  0.00    +0.000 NA
ATOM     19  C   UNL     1      46.015   2.234   8.037  0.00  0.00    +0.000 A 
ATOM     20  C   UNL     1      46.373   3.511   7.658  0.00  0.00    +0.000 A 
ATOM     21  C   UNL     1      45.838   4.587   8.369  0.00  0.00    +0.000 A 
ATOM     22  C   UNL     1      44.944   4.396   9.437  0.00  0.00    +0.000 A 
BRANCH  17  24
ATOM     23  N   UNL     1      43.058   2.320  11.649  0.00  0.00    +0.000 NA
ATOM     24  C   UNL     1      43.791   2.629  10.801  0.00  0.00    +0.000 C 
ENDBRANCH  17  24
ENDBRANCH  15  22
ENDBRANCH  14  15
ENDBRANCH   1  14
TORSDOF 5
ENDMDL
MODEL 7
REMARK VINA RESULT:    -6.805      2.184      3.529
REMARK INTER + INTRA:          -9.819
REMARK INTER:                  -8.982
REMARK INTRA:                  -0.837
REMARK UNBOUND:                -1.025
REMARK  Name = 
REMARK  5 active torsions:
REMARK  status: ('A' for Active; 'I' for Inactive)
REMARK    1  A    between atoms: C_2  and  C_3
REMARK    2  A    between atoms: C_8  and  N_9
REMARK    3  A    between atoms: N_9  and  C_10
REMARK    4  A    between atoms: C_10  and  C_11
REMARK    5  A    between atoms: C_16  and  C_17
REMARK                            x       y       z     vdW  Elec       q    Type
REMARK                         _______ _______ _______ _____ _____    ______ ____
ROOT
ATOM      1  C   UNL     1      45.336   6.042  12.151  0.00  0.00    +0.000 A 
ATOM      2  C   UNL     1      43.957   6.120  12.369  0.00  0.00    +0.000 A 
ATOM      3  C   UNL     1      43.089   5.439  11.525  0.00  0.00    +0.000 A 
ATOM      4  F   UNL     1      41.771   5.486  11.761  0.00  0.00    +0.000 F 
ATOM      5  C   UNL     1      43.562   4.687  10.451  0.00  0.00    +0.000 A 
ATOM      6  C   UNL     1      44.939   4.586  10.196  0.00  0.00    +0.000 A 
ATOM      7  C   UNL     1      45.807   5.288  11.059  0.00  0.00    +0.000 A 
ENDROOT
BRANCH   6   8
ATOM      8  C   UNL     1      45.475   3.736   9.106  0.00  0.00    +0.000 A 
ATOM      9  C   UNL     1      46.071   4.299   7.960  0.00  0.00    +0.000 A 
ATOM     10  C   UNL     1      46.641   3.500   6.965  0.00  0.00    +0.000 A 
ATOM     11  C   UNL     1      46.612   2.115   7.081  0.00  0.00    +0.000 A 
ATOM     12  C   UNL     1      46.008   1.529   8.189  0.00  0.00    +0.000 A 
ATOM     13  C   UNL     1      45.450   2.332   9.190  0.00  0.00    +0.000 A 
ENDBRANCH   6   8
BRANCH   1  14
ATOM     14  C   UNL     1      46.313   6.705  13.092  0.00  0.00    +0.000 C 
BRANCH  14  15
ATOM     15  N   UNL     1      46.010   8.119  13.237  0.00  0.00    +0.000 N 
ATOM     16  H   UNL     1      45.015   8.312  13.336  0.00  0.00    +0.000 HD
BRANCH  15  22
ATOM     17  C   UNL     1      46.202  10.256  11.889  0.00  0.00    +0.000 A 
ATOM     18  N   UNL     1      46.967  11.145  11.185  0.00  0.00    +0.000 NA
ATOM     19  C   UNL     1      48.286  10.908  11.107  0.00  0.00    +0.000 A 
ATOM     20  C   UNL     1      48.894   9.826  11.710  0.00  0.00    +0.000 A 
ATOM     21  C   UNL     1      48.096   8.938  12.433  0.00  0.00    +0.000 A 
ATOM     22  C   UNL     1      46.710   9.130  12.569  0.00  0.00    +0.000 A 
BRANCH  17  24
ATOM     23  N   UNL     1      43.686  10.913  11.881  0.00  0.00    +0.000 NA
ATOM     24  C   UNL     1      44.816  10.636  11.894  0.00  0.00    +0.000 C 
ENDBRANCH  17  24
ENDBRANCH  15  22
ENDBRANCH  14  15
ENDBRANCH   1  14
TORSDOF 5
ENDMDL
MODEL 8
REMARK VINA RESULT:    -6.607      3.219      4.865
REMARK INTER + INTRA:          -9.563
REMARK INTER:                  -8.898
REMARK INTRA:                  -0.665
REMARK UNBOUND:                -1.025
REMARK  Name = 
REMARK  5 active torsions:
REMARK  status: ('A' for Active; 'I' for Inactive)
REMARK    1  A    between atoms: C_2  and  C_3
REMARK    2  A    between atoms: C_8  and  N_9
REMARK    3  A    between atoms: N_9  and  C_10
REMARK    4  A    between atoms: C_10  and  C_11
REMARK    5  A    between atoms: C_16  and  C_17
REMARK                            x       y       z     vdW  Elec       q    Type
REMARK                         _______ _______ _______ _____ _____    ______ ____
ROOT
ATOM      1  C   UNL     1      47.297   7.037  13.189  0.00  0.00    +0.000 A 
ATOM      2  C   UNL     1      46.562   8.224  13.250  0.00  0.00    +0.000 A 
ATOM      3  C   UNL     1      45.454   8.390  12.430  0.00  0.00    +0.000 A 
ATOM      4  F   UNL     1      44.730   9.514  12.521  0.00  0.00    +0.000 F 
ATOM      5  C   UNL     1      45.061   7.398  11.532  0.00  0.00    +0.000 A 
ATOM      6  C   UNL     1      45.774   6.192  11.437  0.00  0.00    +0.000 A 
ATOM      7  C   UNL     1      46.902   6.043  12.273  0.00  0.00    +0.000 A 
ENDROOT
BRANCH   6   8
ATOM      8  C   UNL     1      45.340   5.092  10.543  0.00  0.00    +0.000 A 
ATOM      9  C   UNL     1      45.683   5.075   9.178  0.00  0.00    +0.000 A 
ATOM     10  C   UNL     1      45.336   4.004   8.349  0.00  0.00    +0.000 A 
ATOM     11  C   UNL     1      44.618   2.930   8.864  0.00  0.00    +0.000 A 
ATOM     12  C   UNL     1      44.243   2.930  10.203  0.00  0.00    +0.000 A 
ATOM     13  C   UNL     1      44.604   3.998  11.032  0.00  0.00    +0.000 A 
ENDBRANCH   6   8
BRANCH   1  14
ATOM     14  C   UNL     1      48.461   6.791  14.117  0.00  0.00    +0.000 C 
BRANCH  14  15
ATOM     15  N   UNL     1      48.008   6.212  15.371  0.00  0.00    +0.000 N 
ATOM     16  H   UNL     1      47.173   6.659  15.745  0.00  0.00    +0.000 HD
BRANCH  15  22
ATOM     17  C   UNL     1      48.670   4.705  17.298  0.00  0.00    +0.000 A 
ATOM     18  N   UNL     1      49.551   4.373  18.291  0.00  0.00    +0.000 NA
ATOM     19  C   UNL     1      50.671   5.105  18.401  0.00  0.00    +0.000 A 
ATOM     20  C   UNL     1      50.971   6.156  17.558  0.00  0.00    +0.000 A 
ATOM     21  C   UNL     1      50.063   6.470  16.545  0.00  0.00    +0.000 A 
ATOM     22  C   UNL     1      48.877   5.738  16.361  0.00  0.00    +0.000 A 
BRANCH  17  24
ATOM     23  N   UNL     1      46.602   3.129  17.325  0.00  0.00    +0.000 NA
ATOM     24  C   UNL     1      47.524   3.838  17.294  0.00  0.00    +0.000 C 
ENDBRANCH  17  24
ENDBRANCH  15  22
ENDBRANCH  14  15
ENDBRANCH   1  14
TORSDOF 5
ENDMDL
MODEL 9
REMARK VINA RESULT:    -6.410      3.118      5.190
REMARK INTER + INTRA:          -9.308
REMARK INTER:                  -8.482
REMARK INTRA:                  -0.826
REMARK UNBOUND:                -1.025
REMARK  Name = 
REMARK  5 active torsions:
REMARK  status: ('A' for Active; 'I' for Inactive)
REMARK    1  A    between atoms: C_2  and  C_3
REMARK    2  A    between atoms: C_8  and  N_9
REMARK    3  A    between atoms: N_9  and  C_10
REMARK    4  A    between atoms: C_10  and  C_11
REMARK    5  A    between atoms: C_16  and  C_17
REMARK                            x       y       z     vdW  Elec       q    Type
REMARK                         _______ _______ _______ _____ _____    ______ ____
ROOT
ATOM      1  C   UNL     1      47.328   7.160  13.288  0.00  0.00    +0.000 A 
ATOM      2  C   UNL     1      46.596   8.350  13.345  0.00  0.00    +0.000 A 
ATOM      3  C   UNL     1      45.468   8.502  12.550  0.00  0.00    +0.000 A 
ATOM      4  F   UNL     1      44.749   9.629  12.637  0.00  0.00    +0.000 F 
ATOM      5  C   UNL     1      45.051   7.495  11.681  0.00  0.00    +0.000 A 
ATOM      6  C   UNL     1      45.760   6.286  11.592  0.00  0.00    +0.000 A 
ATOM      7  C   UNL     1      46.907   6.150  12.401  0.00  0.00    +0.000 A 
ENDROOT
BRANCH   6   8
ATOM      8  C   UNL     1      45.301   5.169  10.730  0.00  0.00    +0.000 A 
ATOM      9  C   UNL     1      45.583   5.141   9.351  0.00  0.00    +0.000 A 
ATOM     10  C   UNL     1      45.214   4.056   8.551  0.00  0.00    +0.000 A 
ATOM     11  C   UNL     1      44.535   2.978   9.108  0.00  0.00    +0.000 A 
ATOM     12  C   UNL     1      44.221   2.989  10.463  0.00  0.00    +0.000 A 
ATOM     13  C   UNL     1      44.603   4.071  11.264  0.00  0.00    +0.000 A 
ENDBRANCH   6   8
BRANCH   1  14
ATOM     14  C   UNL     1      48.514   6.930  14.192  0.00  0.00    +0.000 C 
BRANCH  14  15
ATOM     15  N   UNL     1      48.082   6.685  15.558  0.00  0.00    +0.000 N 
ATOM     16  H   UNL     1      48.082   7.522  16.138  0.00  0.00    +0.000 HD
BRANCH  15  22
ATOM     17  C   UNL     1      49.526   5.226  17.043  0.00  0.00    +0.000 A 
ATOM     18  N   UNL     1      49.777   4.014  17.626  0.00  0.00    +0.000 NA
ATOM     19  C   UNL     1      48.895   3.025  17.413  0.00  0.00    +0.000 A 
ATOM     20  C   UNL     1      47.756   3.183  16.650  0.00  0.00    +0.000 A 
ATOM     21  C   UNL     1      47.514   4.432  16.074  0.00  0.00    +0.000 A 
ATOM     22  C   UNL     1      48.387   5.517  16.266  0.00  0.00    +0.000 A 
BRANCH  17  24
ATOM     23  N   UNL     1      51.346   6.990  17.625  0.00  0.00    +0.000 NA
ATOM     24  C   UNL     1      50.546   6.189  17.360  0.00  0.00    +0.000 C 
ENDBRANCH  17  24
ENDBRANCH  15  22
ENDBRANCH  14  15
ENDBRANCH   1  14
TORSDOF 5
ENDMDL
