MODEL 1
REMARK VINA RESULT:    -7.166      0.000      0.000
REMARK INTER + INTRA:         -11.910
REMARK INTER:                 -10.307
REMARK INTRA:                  -1.603
REMARK UNBOUND:                -1.603
REMARK  Name = 
REMARK  8 active torsions:
REMARK  status: ('A' for Active; 'I' for Inactive)
REMARK    1  A    between atoms: C_2  and  C_22
REMARK    2  A    between atoms: N_3  and  C_4
REMARK    3  A    between atoms: C_4  and  C_5
REMARK    4  A    between atoms: C_8  and  C_9
REMARK    5  A    between atoms: C_9  and  N_10
REMARK    6  A    between atoms: N_10  and  C_11
REMARK    7  A    between atoms: C_11  and  C_12
REMARK    8  A    between atoms: C_12  and  O_13
REMARK                            x       y       z     vdW  Elec       q    Type
REMARK                         _______ _______ _______ _____ _____    ______ ____
ROOT
ATOM      1  C   UNL     1      47.599   8.560  13.116  0.00  0.00    +0.000 A 
ATOM      2  C   UNL     1      46.216   8.710  13.288  0.00  0.00    +0.000 A 
ATOM      3  C   UNL     1      45.310   7.950  12.538  0.00  0.00    +0.000 A 
ATOM      4  C   UNL     1      45.767   6.982  11.632  0.00  0.00    +0.000 A 
ATOM      5  C   UNL     1      47.147   6.909  11.377  0.00  0.00    +0.000 A 
ATOM      6  C   UNL     1      48.055   7.686  12.116  0.00  0.00    +0.000 A 
ENDROOT
BRANCH   1   7
ATOM      7  C   UNL     1      48.553   9.259  14.055  0.00  0.00    +0.000 C 
BRANCH   7  10
ATOM      8  O   UNL     1      50.043   6.942  14.814  0.00  0.00    +0.000 OA
ATOM      9  C   UNL     1      49.229   7.442  15.585  0.00  0.00    +0.000 C 
ATOM     10  N   UNL     1      48.553   8.615  15.357  0.00  0.00    +0.000 N 
ATOM     11  H   UNL     1      47.779   8.851  15.961  0.00  0.00    +0.000 HD
BRANCH   9  12
ATOM     12  C   UNL     1      48.705   6.729  16.747  0.00  0.00    +0.000 A 
ATOM     13  C   UNL     1      48.859   7.196  18.041  0.00  0.00    +0.000 A 
ATOM     14  S   UNL     1      48.686   5.932  19.192  0.00  0.00    +0.000 S 
ATOM     15  C   UNL     1      48.254   4.815  17.979  0.00  0.00    +0.000 A 
ATOM     16  N   UNL     1      48.105   3.485  18.225  0.00  0.00    +0.000 NA
ATOM     17  C   UNL     1      47.705   2.801  17.202  0.00  0.00    +0.000 A 
ATOM     18  N   UNL     1      47.387   3.336  15.968  0.00  0.00    +0.000 N 
ATOM     19  C   UNL     1      47.512   4.669  15.682  0.00  0.00    +0.000 A 
ATOM     20  O   UNL     1      47.142   5.142  14.618  0.00  0.00    +0.000 OA
ATOM     21  C   UNL     1      48.096   5.437  16.761  0.00  0.00    +0.000 A 
ATOM     22  H   UNL     1      46.981   2.758  15.251  0.00  0.00    +0.000 HD
ENDBRANCH   9  12
ENDBRANCH   7  10
ENDBRANCH   1   7
BRANCH   4  23
ATOM     23  C   UNL     1      44.835   5.867  11.188  0.00  0.00    +0.000 C 
BRANCH  23  24
ATOM     24  N   UNL     1      45.290   4.485  11.180  0.00  0.00    +0.000 N 
ATOM     25  C   UNL     1      45.363   3.998   9.869  0.00  0.00    +0.000 A 
ATOM     26  N   UNL     1      45.906   4.801   8.937  0.00  0.00    +0.000 NA
ATOM     27  C   UNL     1      46.052   4.323   7.689  0.00  0.00    +0.000 A 
ATOM     28  C   UNL     1      45.637   3.077   7.306  0.00  0.00    +0.000 A 
ATOM     29  C   UNL     1      45.062   2.331   8.302  0.00  0.00    +0.000 A 
ATOM     30  N   UNL     1      44.931   2.758   9.577  0.00  0.00    +0.000 NA
BRANCH  24  31
ATOM     31  C   UNL     1      44.971   3.514  12.222  0.00  0.00    +0.000 C 
BRANCH  31  32
ATOM     32  C   UNL     1      43.442   3.466  12.457  0.00  0.00    +0.000 C 
BRANCH  32  33
ATOM     33  O   UNL     1      42.827   2.433  11.681  0.00  0.00    +0.000 OA
ATOM     34  H   UNL     1      43.471   1.705  11.629  0.00  0.00    +0.000 HD
ENDBRANCH  32  33
ENDBRANCH  31  32
ENDBRANCH  24  31
ENDBRANCH  23  24
ENDBRANCH   4  23
TORSDOF 8
ENDMDL
MODEL 2
REMARK VINA RESULT:    -6.798      1.926      2.646
REMARK INTER + INTRA:         -11.381
REMARK INTER:                 -10.856
REMARK INTRA:                  -0.526
REMARK UNBOUND:                -1.603
REMARK  Name = 
REMARK  8 active torsions:
REMARK  status: ('A' for Active; 'I' for Inactive)
REMARK    1  A    between atoms: C_2  and  C_22
REMARK    2  A    between atoms: N_3  and  C_4
REMARK    3  A    between atoms: C_4  and  C_5
REMARK    4  A    between atoms: C_8  and  C_9
REMARK    5  A    between atoms: C_9  and  N_10
REMARK    6  A    between atoms: N_10  and  C_11
REMARK    7  A    between atoms: C_11  and  C_12
REMARK    8  A    between atoms: C_12  and  O_13
REMARK                            x       y       z     vdW  Elec       q    Type
REMARK                         _______ _______ _______ _____ _____    ______ ____
ROOT
ATOM      1  C   UNL     1      47.693   6.167  13.621  0.00  0.00    +0.000 A 
ATOM      2  C   UNL     1      47.210   5.037  14.296  0.00  0.00    +0.000 A 
ATOM      3  C   UNL     1      46.181   4.258  13.752  0.00  0.00    +0.000 A 
ATOM      4  C   UNL     1      45.644   4.561  12.493  0.00  0.00    +0.000 A 
ATOM      5  C   UNL     1      46.047   5.754  11.868  0.00  0.00    +0.000 A 
ATOM      6  C   UNL     1      47.066   6.546  12.424  0.00  0.00    +0.000 A 
ENDROOT
BRANCH   1   7
ATOM      7  C   UNL     1      48.915   6.886  14.139  0.00  0.00    +0.000 C 
BRANCH   7  10
ATOM      8  O   UNL     1      50.370   5.967  16.420  0.00  0.00    +0.000 OA
ATOM      9  C   UNL     1      49.407   6.717  16.554  0.00  0.00    +0.000 C 
ATOM     10  N   UNL     1      48.720   7.300  15.518  0.00  0.00    +0.000 N 
ATOM     11  H   UNL     1      47.840   7.753  15.717  0.00  0.00    +0.000 HD
BRANCH   9  12
ATOM     12  C   UNL     1      48.725   6.903  17.832  0.00  0.00    +0.000 A 
ATOM     13  C   UNL     1      48.353   8.150  18.305  0.00  0.00    +0.000 A 
ATOM     14  S   UNL     1      48.125   8.136  20.008  0.00  0.00    +0.000 S 
ATOM     15  C   UNL     1      48.368   6.450  20.080  0.00  0.00    +0.000 A 
ATOM     16  N   UNL     1      48.462   5.771  21.255  0.00  0.00    +0.000 NA
ATOM     17  C   UNL     1      48.574   4.490  21.116  0.00  0.00    +0.000 A 
ATOM     18  N   UNL     1      48.544   3.819  19.908  0.00  0.00    +0.000 N 
ATOM     19  C   UNL     1      48.439   4.461  18.704  0.00  0.00    +0.000 A 
ATOM     20  O   UNL     1      48.323   3.853  17.651  0.00  0.00    +0.000 OA
ATOM     21  C   UNL     1      48.460   5.905  18.819  0.00  0.00    +0.000 A 
ATOM     22  H   UNL     1      48.529   2.812  19.884  0.00  0.00    +0.000 HD
ENDBRANCH   9  12
ENDBRANCH   7  10
ENDBRANCH   1   7
BRANCH   4  23
ATOM     23  C   UNL     1      44.898   3.490  11.714  0.00  0.00    +0.000 C 
BRANCH  23  24
ATOM     24  N   UNL     1      44.200   3.825  10.483  0.00  0.00    +0.000 N 
ATOM     25  C   UNL     1      44.934   3.400   9.369  0.00  0.00    +0.000 A 
ATOM     26  N   UNL     1      45.482   2.173   9.418  0.00  0.00    +0.000 NA
ATOM     27  C   UNL     1      46.127   1.717   8.329  0.00  0.00    +0.000 A 
ATOM     28  C   UNL     1      46.294   2.454   7.189  0.00  0.00    +0.000 A 
ATOM     29  C   UNL     1      45.739   3.707   7.228  0.00  0.00    +0.000 A 
ATOM     30  N   UNL     1      45.050   4.189   8.285  0.00  0.00    +0.000 NA
BRANCH  24  31
ATOM     31  C   UNL     1      43.382   5.021  10.308  0.00  0.00    +0.000 C 
BRANCH  31  32
ATOM     32  C   UNL     1      42.420   5.192  11.508  0.00  0.00    +0.000 C 
BRANCH  32  33
ATOM     33  O   UNL     1      42.109   6.569  11.736  0.00  0.00    +0.000 OA
ATOM     34  H   UNL     1      41.221   6.718  11.365  0.00  0.00    +0.000 HD
ENDBRANCH  32  33
ENDBRANCH  31  32
ENDBRANCH  24  31
ENDBRANCH  23  24
ENDBRANCH   4  23
TORSDOF 8
ENDMDL
MODEL 3
REMARK VINA RESULT:    -6.581      2.976      7.838
REMARK INTER + INTRA:         -11.070
REMARK INTER:                  -9.659
REMARK INTRA:                  -1.411
REMARK UNBOUND:                -1.603
REMARK  Name = 
REMARK  8 active torsions:
REMARK  status: ('A' for Active; 'I' for Inactive)
REMARK    1  A    between atoms: C_2  and  C_22
REMARK    2  A    between atoms: N_3  and  C_4
REMARK    3  A    between atoms: C_4  and  C_5
REMARK    4  A    between atoms: C_8  and  C_9
REMARK    5  A    between atoms: C_9  and  N_10
REMARK    6  A    between atoms: N_10  and  C_11
REMARK    7  A    between atoms: C_11  and  C_12
REMARK    8  A    between atoms: C_12  and  O_13
REMARK                            x       y       z     vdW  Elec       q    Type
REMARK                         _______ _______ _______ _____ _____    ______ ____
ROOT
ATOM      1  C   UNL     1      47.691   8.166  13.820  0.00  0.00    +0.000 A 
ATOM      2  C   UNL     1      48.421   6.977  13.686  0.00  0.00    +0.000 A 
ATOM      3  C   UNL     1      49.196   6.485  14.743  0.00  0.00    +0.000 A 
ATOM      4  C   UNL     1      49.219   7.144  15.980  0.00  0.00    +0.000 A 
ATOM      5  C   UNL     1      48.580   8.391  16.081  0.00  0.00    +0.000 A 
ATOM      6  C   UNL     1      47.818   8.895  15.013  0.00  0.00    +0.000 A 
ENDROOT
BRANCH   1   7
ATOM      7  C   UNL     1      46.728   8.583  12.734  0.00  0.00    +0.000 C 
BRANCH   7  10
ATOM      8  O   UNL     1      44.309   7.803  11.429  0.00  0.00    +0.000 OA
ATOM      9  C   UNL     1      45.344   7.163  11.262  0.00  0.00    +0.000 C 
ATOM     10  N   UNL     1      46.575   7.524  11.751  0.00  0.00    +0.000 N 
ATOM     11  H   UNL     1      47.324   6.850  11.716  0.00  0.00    +0.000 HD
BRANCH   9  12
ATOM     12  C   UNL     1      45.353   5.810  10.711  0.00  0.00    +0.000 A 
ATOM     13  C   UNL     1      45.728   5.538   9.407  0.00  0.00    +0.000 A 
ATOM     14  S   UNL     1      45.103   4.030   8.872  0.00  0.00    +0.000 S 
ATOM     15  C   UNL     1      44.476   3.681  10.419  0.00  0.00    +0.000 A 
ATOM     16  N   UNL     1      43.678   2.607  10.663  0.00  0.00    +0.000 NA
ATOM     17  C   UNL     1      43.356   2.461  11.907  0.00  0.00    +0.000 A 
ATOM     18  N   UNL     1      43.805   3.262  12.940  0.00  0.00    +0.000 N 
ATOM     19  C   UNL     1      44.618   4.346  12.741  0.00  0.00    +0.000 A 
ATOM     20  O   UNL     1      45.081   4.991  13.669  0.00  0.00    +0.000 OA
ATOM     21  C   UNL     1      44.876   4.621  11.342  0.00  0.00    +0.000 A 
ATOM     22  H   UNL     1      43.599   3.025  13.897  0.00  0.00    +0.000 HD
ENDBRANCH   9  12
ENDBRANCH   7  10
ENDBRANCH   1   7
BRANCH   4  23
ATOM     23  C   UNL     1      49.653   6.390  17.227  0.00  0.00    +0.000 C 
BRANCH  23  24
ATOM     24  N   UNL     1      48.846   5.296  17.744  0.00  0.00    +0.000 N 
ATOM     25  C   UNL     1      48.488   5.534  19.077  0.00  0.00    +0.000 A 
ATOM     26  N   UNL     1      48.071   6.772  19.396  0.00  0.00    +0.000 NA
ATOM     27  C   UNL     1      47.652   7.001  20.653  0.00  0.00    +0.000 A 
ATOM     28  C   UNL     1      47.669   6.051  21.637  0.00  0.00    +0.000 A 
ATOM     29  C   UNL     1      48.139   4.826  21.244  0.00  0.00    +0.000 A 
ATOM     30  N   UNL     1      48.533   4.542  19.984  0.00  0.00    +0.000 NA
BRANCH  24  31
ATOM     31  C   UNL     1      49.018   3.900  17.353  0.00  0.00    +0.000 C 
BRANCH  31  32
ATOM     32  C   UNL     1      47.747   3.384  16.639  0.00  0.00    +0.000 C 
BRANCH  32  33
ATOM     33  O   UNL     1      46.627   3.349  17.528  0.00  0.00    +0.000 OA
ATOM     34  H   UNL     1      46.812   2.650  18.180  0.00  0.00    +0.000 HD
ENDBRANCH  32  33
ENDBRANCH  31  32
ENDBRANCH  24  31
ENDBRANCH  23  24
ENDBRANCH   4  23
TORSDOF 8
ENDMDL
MODEL 4
REMARK VINA RESULT:    -6.515      3.029      7.395
REMARK INTER + INTRA:         -10.974
REMARK INTER:                  -9.673
REMARK INTRA:                  -1.301
REMARK UNBOUND:                -1.603
REMARK  Name = 
REMARK  8 active torsions:
REMARK  status: ('A' for Active; 'I' for Inactive)
REMARK    1  A    between atoms: C_2  and  C_22
REMARK    2  A    between atoms: N_3  and  C_4
REMARK    3  A    between atoms: C_4  and  C_5
REMARK    4  A    between atoms: C_8  and  C_9
REMARK    5  A    between atoms: C_9  and  N_10
REMARK    6  A    between atoms: N_10  and  C_11
REMARK    7  A    between atoms: C_11  and  C_12
REMARK    8  A    between atoms: C_12  and  O_13
REMARK                            x       y       z     vdW  Elec       q    Type
REMARK                         _______ _______ _______ _____ _____    ______ ____
ROOT
ATOM      1  C   UNL     1      47.741   8.268  13.843  0.00  0.00    +0.000 A 
ATOM      2  C   UNL     1      48.474   7.083  13.693  0.00  0.00    +0.000 A 
ATOM      3  C   UNL     1      49.286   6.603  14.727  0.00  0.00    +0.000 A 
ATOM      4  C   UNL     1      49.344   7.270  15.959  0.00  0.00    +0.000 A 
ATOM      5  C   UNL     1      48.700   8.513  16.073  0.00  0.00    +0.000 A 
ATOM      6  C   UNL     1      47.901   9.005  15.027  0.00  0.00    +0.000 A 
ENDROOT
BRANCH   1   7
ATOM      7  C   UNL     1      46.740   8.672  12.786  0.00  0.00    +0.000 C 
BRANCH   7  10
ATOM      8  O   UNL     1      44.306   7.817  11.558  0.00  0.00    +0.000 OA
ATOM      9  C   UNL     1      45.357   7.219  11.345  0.00  0.00    +0.000 C 
ATOM     10  N   UNL     1      46.591   7.620  11.795  0.00  0.00    +0.000 N 
ATOM     11  H   UNL     1      47.363   6.975  11.723  0.00  0.00    +0.000 HD
BRANCH   9  12
ATOM     12  C   UNL     1      45.397   5.875  10.775  0.00  0.00    +0.000 A 
ATOM     13  C   UNL     1      45.836   5.623   9.487  0.00  0.00    +0.000 A 
ATOM     14  S   UNL     1      45.242   4.122   8.899  0.00  0.00    +0.000 S 
ATOM     15  C   UNL     1      44.540   3.750  10.408  0.00  0.00    +0.000 A 
ATOM     16  N   UNL     1      43.733   2.670  10.596  0.00  0.00    +0.000 NA
ATOM     17  C   UNL     1      43.350   2.505  11.821  0.00  0.00    +0.000 A 
ATOM     18  N   UNL     1      43.746   3.292  12.886  0.00  0.00    +0.000 N 
ATOM     19  C   UNL     1      44.565   4.379  12.744  0.00  0.00    +0.000 A 
ATOM     20  O   UNL     1      44.980   5.011  13.703  0.00  0.00    +0.000 OA
ATOM     21  C   UNL     1      44.892   4.675  11.364  0.00  0.00    +0.000 A 
ATOM     22  H   UNL     1      43.493   3.040  13.829  0.00  0.00    +0.000 HD
ENDBRANCH   9  12
ENDBRANCH   7  10
ENDBRANCH   1   7
BRANCH   4  23
ATOM     23  C   UNL     1      49.824   6.527  17.196  0.00  0.00    +0.000 C 
BRANCH  23  24
ATOM     24  N   UNL     1      49.113   5.349  17.669  0.00  0.00    +0.000 N 
ATOM     25  C   UNL     1      49.912   4.206  17.537  0.00  0.00    +0.000 A 
ATOM     26  N   UNL     1      51.201   4.303  17.908  0.00  0.00    +0.000 NA
ATOM     27  C   UNL     1      51.964   3.197  17.860  0.00  0.00    +0.000 A 
ATOM     28  C   UNL     1      51.509   1.987  17.410  0.00  0.00    +0.000 A 
ATOM     29  C   UNL     1      50.197   1.977  17.017  0.00  0.00    +0.000 A 
ATOM     30  N   UNL     1      49.384   3.054  17.086  0.00  0.00    +0.000 NA
BRANCH  24  31
ATOM     31  C   UNL     1      47.672   5.158  17.539  0.00  0.00    +0.000 C 
BRANCH  31  32
ATOM     32  C   UNL     1      46.951   5.630  18.824  0.00  0.00    +0.000 C 
BRANCH  32  33
ATOM     33  O   UNL     1      47.584   5.110  19.997  0.00  0.00    +0.000 OA
ATOM     34  H   UNL     1      47.924   4.229  19.762  0.00  0.00    +0.000 HD
ENDBRANCH  32  33
ENDBRANCH  31  32
ENDBRANCH  24  31
ENDBRANCH  23  24
ENDBRANCH   4  23
TORSDOF 8
ENDMDL
MODEL 5
REMARK VINA RESULT:    -6.063      2.587      7.287
REMARK INTER + INTRA:         -10.325
REMARK INTER:                  -8.939
REMARK INTRA:                  -1.386
REMARK UNBOUND:                -1.603
REMARK  Name = 
REMARK  8 active torsions:
REMARK  status: ('A' for Active; 'I' for Inactive)
REMARK    1  A    between atoms: C_2  and  C_22
REMARK    2  A    between atoms: N_3  and  C_4
REMARK    3  A    between atoms: C_4  and  C_5
REMARK    4  A    between atoms: C_8  and  C_9
REMARK    5  A    between atoms: C_9  and  N_10
REMARK    6  A    between atoms: N_10  and  C_11
REMARK    7  A    between atoms: C_11  and  C_12
REMARK    8  A    between atoms: C_12  and  O_13
REMARK                            x       y       z     vdW  Elec       q    Type
REMARK                         _______ _______ _______ _____ _____    ______ ____
ROOT
ATOM      1  C   UNL     1      48.949   8.457  14.301  0.00  0.00    +0.000 A 
ATOM      2  C   UNL     1      49.919   7.471  14.524  0.00  0.00    +0.000 A 
ATOM      3  C   UNL     1      50.373   7.185  15.817  0.00  0.00    +0.000 A 
ATOM      4  C   UNL     1      49.828   7.845  16.928  0.00  0.00    +0.000 A 
ATOM      5  C   UNL     1      48.940   8.909  16.699  0.00  0.00    +0.000 A 
ATOM      6  C   UNL     1      48.499   9.209  15.399  0.00  0.00    +0.000 A 
ENDROOT
BRANCH   1   7
ATOM      7  C   UNL     1      48.349   8.625  12.925  0.00  0.00    +0.000 C 
BRANCH   7  10
ATOM      8  O   UNL     1      45.539   8.229  13.258  0.00  0.00    +0.000 OA
ATOM      9  C   UNL     1      46.255   7.318  12.851  0.00  0.00    +0.000 C 
ATOM     10  N   UNL     1      47.589   7.445  12.551  0.00  0.00    +0.000 N 
ATOM     11  H   UNL     1      48.130   6.608  12.397  0.00  0.00    +0.000 HD
BRANCH   9  12
ATOM     12  C   UNL     1      45.828   5.921  12.851  0.00  0.00    +0.000 A 
ATOM     13  C   UNL     1      46.371   4.975  13.704  0.00  0.00    +0.000 A 
ATOM     14  S   UNL     1      46.132   3.380  13.111  0.00  0.00    +0.000 S 
ATOM     15  C   UNL     1      45.179   3.948  11.816  0.00  0.00    +0.000 A 
ATOM     16  N   UNL     1      44.752   3.139  10.809  0.00  0.00    +0.000 NA
ATOM     17  C   UNL     1      43.981   3.727   9.952  0.00  0.00    +0.000 A 
ATOM     18  N   UNL     1      43.553   5.038  10.041  0.00  0.00    +0.000 N 
ATOM     19  C   UNL     1      43.949   5.882  11.043  0.00  0.00    +0.000 A 
ATOM     20  O   UNL     1      43.493   7.009  11.161  0.00  0.00    +0.000 OA
ATOM     21  C   UNL     1      44.928   5.296  11.935  0.00  0.00    +0.000 A 
ATOM     22  H   UNL     1      42.868   5.396   9.395  0.00  0.00    +0.000 HD
ENDBRANCH   9  12
ENDBRANCH   7  10
ENDBRANCH   1   7
BRANCH   4  23
ATOM     23  C   UNL     1      49.962   7.228  18.311  0.00  0.00    +0.000 C 
BRANCH  23  24
ATOM     24  N   UNL     1      48.844   6.517  18.911  0.00  0.00    +0.000 N 
ATOM     25  C   UNL     1      48.643   5.286  18.273  0.00  0.00    +0.000 A 
ATOM     26  N   UNL     1      49.730   4.545  17.996  0.00  0.00    +0.000 NA
ATOM     27  C   UNL     1      49.553   3.328  17.452  0.00  0.00    +0.000 A 
ATOM     28  C   UNL     1      48.325   2.822  17.124  0.00  0.00    +0.000 A 
ATOM     29  C   UNL     1      47.269   3.650  17.402  0.00  0.00    +0.000 A 
ATOM     30  N   UNL     1      47.399   4.862  17.984  0.00  0.00    +0.000 NA
BRANCH  24  31
ATOM     31  C   UNL     1      47.659   7.171  19.457  0.00  0.00    +0.000 C 
BRANCH  31  32
ATOM     32  C   UNL     1      47.494   6.817  20.954  0.00  0.00    +0.000 C 
BRANCH  32  33
ATOM     33  O   UNL     1      46.851   5.551  21.123  0.00  0.00    +0.000 OA
ATOM     34  H   UNL     1      47.080   5.241  22.017  0.00  0.00    +0.000 HD
ENDBRANCH  32  33
ENDBRANCH  31  32
ENDBRANCH  24  31
ENDBRANCH  23  24
ENDBRANCH   4  23
TORSDOF 8
ENDMDL
MODEL 6
REMARK VINA RESULT:    -5.922      3.031      5.635
REMARK INTER + INTRA:         -10.121
REMARK INTER:                  -8.111
REMARK INTRA:                  -2.010
REMARK UNBOUND:                -1.603
REMARK  Name = 
REMARK  8 active torsions:
REMARK  status: ('A' for Active; 'I' for Inactive)
REMARK    1  A    between atoms: C_2  and  C_22
REMARK    2  A    between atoms: N_3  and  C_4
REMARK    3  A    between atoms: C_4  and  C_5
REMARK    4  A    between atoms: C_8  and  C_9
REMARK    5  A    between atoms: C_9  and  N_10
REMARK    6  A    between atoms: N_10  and  C_11
REMARK    7  A    between atoms: C_11  and  C_12
REMARK    8  A    between atoms: C_12  and  O_13
REMARK                            x       y       z     vdW  Elec       q    Type
REMARK                         _______ _______ _______ _____ _____    ______ ____
ROOT
ATOM      1  C   UNL     1      48.218   3.875  18.294  0.00  0.00    +0.000 A 
ATOM      2  C   UNL     1      48.601   2.781  17.506  0.00  0.00    +0.000 A 
ATOM      3  C   UNL     1      48.172   2.663  16.179  0.00  0.00    +0.000 A 
ATOM      4  C   UNL     1      47.389   3.666  15.589  0.00  0.00    +0.000 A 
ATOM      5  C   UNL     1      46.912   4.704  16.407  0.00  0.00    +0.000 A 
ATOM      6  C   UNL     1      47.327   4.811  17.745  0.00  0.00    +0.000 A 
ENDROOT
BRANCH   1   7
ATOM      7  C   UNL     1      48.832   4.070  19.659  0.00  0.00    +0.000 C 
BRANCH   7  10
ATOM      8  O   UNL     1      50.281   6.479  20.174  0.00  0.00    +0.000 OA
ATOM      9  C   UNL     1      50.852   5.490  19.723  0.00  0.00    +0.000 C 
ATOM     10  N   UNL     1      50.269   4.259  19.552  0.00  0.00    +0.000 N 
ATOM     11  H   UNL     1      50.761   3.563  19.013  0.00  0.00    +0.000 HD
BRANCH   9  12
ATOM     12  C   UNL     1      52.169   5.560  19.095  0.00  0.00    +0.000 A 
ATOM     13  C   UNL     1      53.341   5.319  19.792  0.00  0.00    +0.000 A 
ATOM     14  S   UNL     1      54.698   6.021  19.004  0.00  0.00    +0.000 S 
ATOM     15  C   UNL     1      53.744   6.499  17.674  0.00  0.00    +0.000 A 
ATOM     16  N   UNL     1      54.223   7.289  16.675  0.00  0.00    +0.000 NA
ATOM     17  C   UNL     1      53.381   7.490  15.713  0.00  0.00    +0.000 A 
ATOM     18  N   UNL     1      52.121   6.927  15.634  0.00  0.00    +0.000 N 
ATOM     19  C   UNL     1      51.605   6.119  16.610  0.00  0.00    +0.000 A 
ATOM     20  O   UNL     1      50.529   5.555  16.487  0.00  0.00    +0.000 OA
ATOM     21  C   UNL     1      52.468   5.994  17.768  0.00  0.00    +0.000 A 
ATOM     22  H   UNL     1      51.561   7.043  14.804  0.00  0.00    +0.000 HD
ENDBRANCH   9  12
ENDBRANCH   7  10
ENDBRANCH   1   7
BRANCH   4  23
ATOM     23  C   UNL     1      47.325   3.777  14.074  0.00  0.00    +0.000 C 
BRANCH  23  24
ATOM     24  N   UNL     1      46.760   4.962  13.447  0.00  0.00    +0.000 N 
ATOM     25  C   UNL     1      45.582   4.641  12.760  0.00  0.00    +0.000 A 
ATOM     26  N   UNL     1      44.705   3.828  13.376  0.00  0.00    +0.000 NA
ATOM     27  C   UNL     1      43.536   3.569  12.764  0.00  0.00    +0.000 A 
ATOM     28  C   UNL     1      43.209   4.054  11.528  0.00  0.00    +0.000 A 
ATOM     29  C   UNL     1      44.167   4.845  10.949  0.00  0.00    +0.000 A 
ATOM     30  N   UNL     1      45.337   5.163  11.544  0.00  0.00    +0.000 NA
BRANCH  24  31
ATOM     31  C   UNL     1      47.557   6.056  12.901  0.00  0.00    +0.000 C 
BRANCH  31  32
ATOM     32  C   UNL     1      48.264   6.824  14.043  0.00  0.00    +0.000 C 
BRANCH  32  33
ATOM     33  O   UNL     1      49.684   6.821  13.873  0.00  0.00    +0.000 OA
ATOM     34  H   UNL     1      50.070   6.755  14.764  0.00  0.00    +0.000 HD
ENDBRANCH  32  33
ENDBRANCH  31  32
ENDBRANCH  24  31
ENDBRANCH  23  24
ENDBRANCH   4  23
TORSDOF 8
ENDMDL
MODEL 7
REMARK VINA RESULT:    -5.894      4.231      9.687
REMARK INTER + INTRA:         -10.081
REMARK INTER:                  -8.964
REMARK INTRA:                  -1.118
REMARK UNBOUND:                -1.603
REMARK  Name = 
REMARK  8 active torsions:
REMARK  status: ('A' for Active; 'I' for Inactive)
REMARK    1  A    between atoms: C_2  and  C_22
REMARK    2  A    between atoms: N_3  and  C_4
REMARK    3  A    between atoms: C_4  and  C_5
REMARK    4  A    between atoms: C_8  and  C_9
REMARK    5  A    between atoms: C_9  and  N_10
REMARK    6  A    between atoms: N_10  and  C_11
REMARK    7  A    between atoms: C_11  and  C_12
REMARK    8  A    between atoms: C_12  and  O_13
REMARK                            x       y       z     vdW  Elec       q    Type
REMARK                         _______ _______ _______ _____ _____    ______ ____
ROOT
ATOM      1  C   UNL     1      48.779   4.265  17.083  0.00  0.00    +0.000 A 
ATOM      2  C   UNL     1      49.615   3.180  17.383  0.00  0.00    +0.000 A 
ATOM      3  C   UNL     1      50.989   3.362  17.577  0.00  0.00    +0.000 A 
ATOM      4  C   UNL     1      51.555   4.644  17.527  0.00  0.00    +0.000 A 
ATOM      5  C   UNL     1      50.742   5.713  17.117  0.00  0.00    +0.000 A 
ATOM      6  C   UNL     1      49.366   5.528  16.903  0.00  0.00    +0.000 A 
ENDROOT
BRANCH   1   7
ATOM      7  C   UNL     1      47.281   4.074  17.052  0.00  0.00    +0.000 C 
BRANCH   7  10
ATOM      8  O   UNL     1      47.480   2.915  14.448  0.00  0.00    +0.000 OA
ATOM      9  C   UNL     1      46.966   4.020  14.603  0.00  0.00    +0.000 C 
ATOM     10  N   UNL     1      46.723   4.606  15.821  0.00  0.00    +0.000 N 
ATOM     11  H   UNL     1      46.465   5.581  15.843  0.00  0.00    +0.000 HD
BRANCH   9  12
ATOM     12  C   UNL     1      46.757   4.953  13.499  0.00  0.00    +0.000 A 
ATOM     13  C   UNL     1      47.638   5.981  13.213  0.00  0.00    +0.000 A 
ATOM     14  S   UNL     1      46.883   7.222  12.295  0.00  0.00    +0.000 S 
ATOM     15  C   UNL     1      45.447   6.314  12.152  0.00  0.00    +0.000 A 
ATOM     16  N   UNL     1      44.308   6.824  11.611  0.00  0.00    +0.000 NA
ATOM     17  C   UNL     1      43.340   5.970  11.518  0.00  0.00    +0.000 A 
ATOM     18  N   UNL     1      43.426   4.635  11.867  0.00  0.00    +0.000 N 
ATOM     19  C   UNL     1      44.556   4.079  12.404  0.00  0.00    +0.000 A 
ATOM     20  O   UNL     1      44.650   2.881  12.624  0.00  0.00    +0.000 OA
ATOM     21  C   UNL     1      45.607   5.043  12.656  0.00  0.00    +0.000 A 
ATOM     22  H   UNL     1      42.666   4.005  11.668  0.00  0.00    +0.000 HD
ENDBRANCH   9  12
ENDBRANCH   7  10
ENDBRANCH   1   7
BRANCH   4  23
ATOM     23  C   UNL     1      52.902   4.898  18.184  0.00  0.00    +0.000 C 
BRANCH  23  24
ATOM     24  N   UNL     1      53.031   4.873  19.633  0.00  0.00    +0.000 N 
ATOM     25  C   UNL     1      53.544   6.089  20.102  0.00  0.00    +0.000 A 
ATOM     26  N   UNL     1      53.041   7.220  19.577  0.00  0.00    +0.000 NA
ATOM     27  C   UNL     1      53.467   8.397  20.069  0.00  0.00    +0.000 A 
ATOM     28  C   UNL     1      54.418   8.505  21.045  0.00  0.00    +0.000 A 
ATOM     29  C   UNL     1      54.908   7.311  21.505  0.00  0.00    +0.000 A 
ATOM     30  N   UNL     1      54.481   6.107  21.068  0.00  0.00    +0.000 NA
BRANCH  24  31
ATOM     31  C   UNL     1      53.370   3.680  20.401  0.00  0.00    +0.000 C 
BRANCH  31  32
ATOM     32  C   UNL     1      54.317   2.768  19.585  0.00  0.00    +0.000 C 
BRANCH  32  33
ATOM     33  O   UNL     1      53.650   1.582  19.147  0.00  0.00    +0.000 OA
ATOM     34  H   UNL     1      52.733   1.837  18.946  0.00  0.00    +0.000 HD
ENDBRANCH  32  33
ENDBRANCH  31  32
ENDBRANCH  24  31
ENDBRANCH  23  24
ENDBRANCH   4  23
TORSDOF 8
ENDMDL
MODEL 8
REMARK VINA RESULT:    -5.856      3.431      8.992
REMARK INTER + INTRA:         -10.027
REMARK INTER:                  -8.179
REMARK INTRA:                  -1.848
REMARK UNBOUND:                -1.603
REMARK  Name = 
REMARK  8 active torsions:
REMARK  status: ('A' for Active; 'I' for Inactive)
REMARK    1  A    between atoms: C_2  and  C_22
REMARK    2  A    between atoms: N_3  and  C_4
REMARK    3  A    between atoms: C_4  and  C_5
REMARK    4  A    between atoms: C_8  and  C_9
REMARK    5  A    between atoms: C_9  and  N_10
REMARK    6  A    between atoms: N_10  and  C_11
REMARK    7  A    between atoms: C_11  and  C_12
REMARK    8  A    between atoms: C_12  and  O_13
REMARK                            x       y       z     vdW  Elec       q    Type
REMARK                         _______ _______ _______ _____ _____    ______ ____
ROOT
ATOM      1  C   UNL     1      47.858   4.378  17.934  0.00  0.00    +0.000 A 
ATOM      2  C   UNL     1      47.113   5.355  18.609  0.00  0.00    +0.000 A 
ATOM      3  C   UNL     1      47.733   6.260  19.479  0.00  0.00    +0.000 A 
ATOM      4  C   UNL     1      49.123   6.243  19.657  0.00  0.00    +0.000 A 
ATOM      5  C   UNL     1      49.856   5.197  19.071  0.00  0.00    +0.000 A 
ATOM      6  C   UNL     1      49.231   4.277  18.213  0.00  0.00    +0.000 A 
ENDROOT
BRANCH   1   7
ATOM      7  C   UNL     1      47.200   3.532  16.871  0.00  0.00    +0.000 C 
BRANCH   7  10
ATOM      8  O   UNL     1      47.359   2.989  14.070  0.00  0.00    +0.000 OA
ATOM      9  C   UNL     1      46.913   4.059  14.475  0.00  0.00    +0.000 C 
ATOM     10  N   UNL     1      46.691   4.365  15.795  0.00  0.00    +0.000 N 
ATOM     11  H   UNL     1      46.494   5.324  16.041  0.00  0.00    +0.000 HD
BRANCH   9  12
ATOM     12  C   UNL     1      46.776   5.231  13.614  0.00  0.00    +0.000 A 
ATOM     13  C   UNL     1      45.705   5.404  12.755  0.00  0.00    +0.000 A 
ATOM     14  S   UNL     1      46.080   6.510  11.494  0.00  0.00    +0.000 S 
ATOM     15  C   UNL     1      47.597   6.867  12.188  0.00  0.00    +0.000 A 
ATOM     16  N   UNL     1      48.528   7.634  11.560  0.00  0.00    +0.000 NA
ATOM     17  C   UNL     1      49.590   7.858  12.266  0.00  0.00    +0.000 A 
ATOM     18  N   UNL     1      49.780   7.428  13.566  0.00  0.00    +0.000 N 
ATOM     19  C   UNL     1      48.865   6.664  14.238  0.00  0.00    +0.000 A 
ATOM     20  O   UNL     1      49.004   6.367  15.415  0.00  0.00    +0.000 OA
ATOM     21  C   UNL     1      47.732   6.275  13.423  0.00  0.00    +0.000 A 
ATOM     22  H   UNL     1      50.586   7.730  14.090  0.00  0.00    +0.000 HD
ENDBRANCH   9  12
ENDBRANCH   7  10
ENDBRANCH   1   7
BRANCH   4  23
ATOM     23  C   UNL     1      49.828   7.475  20.202  0.00  0.00    +0.000 C 
BRANCH  23  24
ATOM     24  N   UNL     1      49.524   8.794  19.668  0.00  0.00    +0.000 N 
ATOM     25  C   UNL     1      48.363   9.308  20.258  0.00  0.00    +0.000 A 
ATOM     26  N   UNL     1      48.227   9.168  21.589  0.00  0.00    +0.000 NA
ATOM     27  C   UNL     1      47.155   9.721  22.184  0.00  0.00    +0.000 A 
ATOM     28  C   UNL     1      46.172  10.382  21.500  0.00  0.00    +0.000 A 
ATOM     29  C   UNL     1      46.363  10.453  20.145  0.00  0.00    +0.000 A 
ATOM     30  N   UNL     1      47.443   9.946  19.512  0.00  0.00    +0.000 NA
BRANCH  24  31
ATOM     31  C   UNL     1      49.793   9.199  18.292  0.00  0.00    +0.000 C 
BRANCH  31  32
ATOM     32  C   UNL     1      51.162   8.648  17.830  0.00  0.00    +0.000 C 
BRANCH  32  33
ATOM     33  O   UNL     1      51.037   7.880  16.629  0.00  0.00    +0.000 OA
ATOM     34  H   UNL     1      50.295   8.264  16.131  0.00  0.00    +0.000 HD
ENDBRANCH  32  33
ENDBRANCH  31  32
ENDBRANCH  24  31
ENDBRANCH  23  24
ENDBRANCH   4  23
TORSDOF 8
ENDMDL
MODEL 9
REMARK VINA RESULT:    -5.696      3.426      8.460
REMARK INTER + INTRA:          -9.796
REMARK INTER:                  -7.613
REMARK INTRA:                  -2.183
REMARK UNBOUND:                -1.603
REMARK  Name = 
REMARK  8 active torsions:
REMARK  status: ('A' for Active; 'I' for Inactive)
REMARK    1  A    between atoms: C_2  and  C_22
REMARK    2  A    between atoms: N_3  and  C_4
REMARK    3  A    between atoms: C_4  and  C_5
REMARK    4  A    between atoms: C_8  and  C_9
REMARK    5  A    between atoms: C_9  and  N_10
REMARK    6  A    between atoms: N_10  and  C_11
REMARK    7  A    between atoms: C_11  and  C_12
REMARK    8  A    between atoms: C_12  and  O_13
REMARK                            x       y       z     vdW  Elec       q    Type
REMARK                         _______ _______ _______ _____ _____    ______ ____
ROOT
ATOM      1  C   UNL     1      48.369   4.230  17.590  0.00  0.00    +0.000 A 
ATOM      2  C   UNL     1      48.211   5.454  18.254  0.00  0.00    +0.000 A 
ATOM      3  C   UNL     1      49.321   6.173  18.713  0.00  0.00    +0.000 A 
ATOM      4  C   UNL     1      50.623   5.710  18.473  0.00  0.00    +0.000 A 
ATOM      5  C   UNL     1      50.780   4.432  17.909  0.00  0.00    +0.000 A 
ATOM      6  C   UNL     1      49.665   3.702  17.466  0.00  0.00    +0.000 A 
ENDROOT
BRANCH   1   7
ATOM      7  C   UNL     1      47.175   3.561  16.951  0.00  0.00    +0.000 C 
BRANCH   7  10
ATOM      8  O   UNL     1      47.429   3.092  14.143  0.00  0.00    +0.000 OA
ATOM      9  C   UNL     1      46.909   4.123  14.561  0.00  0.00    +0.000 C 
ATOM     10  N   UNL     1      46.639   4.385  15.881  0.00  0.00    +0.000 N 
ATOM     11  H   UNL     1      46.377   5.324  16.142  0.00  0.00    +0.000 HD
BRANCH   9  12
ATOM     12  C   UNL     1      46.717   5.303  13.722  0.00  0.00    +0.000 A 
ATOM     13  C   UNL     1      45.544   5.542  13.026  0.00  0.00    +0.000 A 
ATOM     14  S   UNL     1      45.797   6.626  11.717  0.00  0.00    +0.000 S 
ATOM     15  C   UNL     1      47.417   6.891  12.180  0.00  0.00    +0.000 A 
ATOM     16  N   UNL     1      48.290   7.603  11.419  0.00  0.00    +0.000 NA
ATOM     17  C   UNL     1      49.455   7.762  11.962  0.00  0.00    +0.000 A 
ATOM     18  N   UNL     1      49.807   7.318  13.223  0.00  0.00    +0.000 N 
ATOM     19  C   UNL     1      48.955   6.608  14.025  0.00  0.00    +0.000 A 
ATOM     20  O   UNL     1      49.247   6.301  15.171  0.00  0.00    +0.000 OA
ATOM     21  C   UNL     1      47.695   6.289  13.386  0.00  0.00    +0.000 A 
ATOM     22  H   UNL     1      50.697   7.570  13.622  0.00  0.00    +0.000 HD
ENDBRANCH   9  12
ENDBRANCH   7  10
ENDBRANCH   1   7
BRANCH   4  23
ATOM     23  C   UNL     1      51.791   6.679  18.539  0.00  0.00    +0.000 C 
BRANCH  23  24
ATOM     24  N   UNL     1      52.236   7.379  17.344  0.00  0.00    +0.000 N 
ATOM     25  C   UNL     1      51.484   8.543  17.146  0.00  0.00    +0.000 A 
ATOM     26  N   UNL     1      51.237   9.314  18.220  0.00  0.00    +0.000 NA
ATOM     27  C   UNL     1      50.581  10.473  18.038  0.00  0.00    +0.000 A 
ATOM     28  C   UNL     1      50.112  10.890  16.822  0.00  0.00    +0.000 A 
ATOM     29  C   UNL     1      50.371  10.035  15.783  0.00  0.00    +0.000 A 
ATOM     30  N   UNL     1      51.060   8.881  15.915  0.00  0.00    +0.000 NA
BRANCH  24  31
ATOM     31  C   UNL     1      52.736   6.712  16.146  0.00  0.00    +0.000 C 
BRANCH  31  32
ATOM     32  C   UNL     1      54.254   6.442  16.277  0.00  0.00    +0.000 C 
BRANCH  32  33
ATOM     33  O   UNL     1      54.908   7.484  17.006  0.00  0.00    +0.000 OA
ATOM     34  H   UNL     1      55.329   8.063  16.346  0.00  0.00    +0.000 HD
ENDBRANCH  32  33
ENDBRANCH  31  32
ENDBRANCH  24  31
ENDBRANCH  23  24
ENDBRANCH   4  23
TORSDOF 8
ENDMDL
