MODEL 1
REMARK VINA RESULT:    -8.969      0.000      0.000
REMARK INTER + INTRA:         -12.794
REMARK INTER:                 -11.853
REMARK INTRA:                  -0.942
REMARK UNBOUND:                -0.942
REMARK  Name = 
REMARK  7 active torsions:
REMARK  status: ('A' for Active; 'I' for Inactive)
REMARK    1  A    between atoms: C_1  and  C_2
REMARK    2  A    between atoms: C_4  and  O_5
REMARK    3  A    between atoms: O_5  and  C_6
REMARK    4  A    between atoms: C_6  and  C_7
REMARK    5  A    between atoms: C_12  and  C_13
REMARK    6  A    between atoms: C_23  and  C_24
REMARK    7  A    between atoms: C_24  and  O_26
REMARK                            x       y       z     vdW  Elec       q    Type
REMARK                         _______ _______ _______ _____ _____    ______ ____
ROOT
ATOM      1  C   UNL     1      45.007   4.482  11.576  0.00  0.00    +0.000 A 
ATOM      2  C   UNL     1      45.483   3.610  12.557  0.00  0.00    +0.000 A 
ATOM      3  C   UNL     1      46.556   3.991  13.349  0.00  0.00    +0.000 A 
ATOM      4  F   UNL     1      47.006   3.154  14.293  0.00  0.00    +0.000 F 
ATOM      5  C   UNL     1      47.175   5.230  13.187  0.00  0.00    +0.000 A 
ATOM      6  C   UNL     1      46.718   6.149  12.224  0.00  0.00    +0.000 A 
ATOM      7  C   UNL     1      45.629   5.737  11.428  0.00  0.00    +0.000 A 
ATOM      8  F   UNL     1      45.128   6.566  10.497  0.00  0.00    +0.000 F 
ENDROOT
BRANCH   6   9
ATOM      9  C   UNL     1      47.345   7.487  12.086  0.00  0.00    +0.000 A 
ATOM     10  C   UNL     1      46.644   8.673  12.374  0.00  0.00    +0.000 A 
ATOM     11  C   UNL     1      47.256   9.929  12.281  0.00  0.00    +0.000 A 
ATOM     12  C   UNL     1      48.583  10.032  11.877  0.00  0.00    +0.000 A 
ATOM     13  C   UNL     1      49.296   8.880  11.565  0.00  0.00    +0.000 A 
ATOM     14  C   UNL     1      48.686   7.626  11.674  0.00  0.00    +0.000 A 
ENDBRANCH   6   9
BRANCH   1  15
ATOM     15  C   UNL     1      43.850   4.146  10.665  0.00  0.00    +0.000 C 
BRANCH  15  16
ATOM     16  O   UNL     1      43.944   2.805  10.172  0.00  0.00    +0.000 OA
BRANCH  16  20
ATOM     17  C   UNL     1      46.863   0.006   7.671  0.00  0.00    +0.000 C 
ATOM     18  C   UNL     1      46.313   1.386   7.878  0.00  0.00    +0.000 A 
ATOM     19  N   UNL     1      45.425   1.490   8.902  0.00  0.00    +0.000 NA
ATOM     20  C   UNL     1      44.861   2.688   9.151  0.00  0.00    +0.000 A 
ATOM     21  C   UNL     1      45.147   3.823   8.420  0.00  0.00    +0.000 A 
ATOM     22  C   UNL     1      46.059   3.721   7.369  0.00  0.00    +0.000 A 
ATOM     23  C   UNL     1      46.673   2.488   7.095  0.00  0.00    +0.000 A 
BRANCH  23  24
ATOM     24  C   UNL     1      47.633   2.353   5.968  0.00  0.00    +0.000 C 
ATOM     25  O   UNL     1      47.302   2.045   4.836  0.00  0.00    +0.000 OA
BRANCH  24  26
ATOM     26  O   UNL     1      48.919   2.593   6.303  0.00  0.00    +0.000 OA
ATOM     27  H   UNL     1      49.599   2.235   5.703  0.00  0.00    +0.000 HD
ENDBRANCH  24  26
ENDBRANCH  23  24
ENDBRANCH  16  20
ENDBRANCH  15  16
ENDBRANCH   1  15
TORSDOF 6
ENDMDL
MODEL 2
REMARK VINA RESULT:    -8.153      1.662      2.989
REMARK INTER + INTRA:         -11.717
REMARK INTER:                 -10.986
REMARK INTRA:                  -0.731
REMARK UNBOUND:                -0.942
REMARK  Name = 
REMARK  7 active torsions:
REMARK  status: ('A' for Active; 'I' for Inactive)
REMARK    1  A    between atoms: C_1  and  C_2
REMARK    2  A    between atoms: C_4  and  O_5
REMARK    3  A    between atoms: O_5  and  C_6
REMARK    4  A    between atoms: C_6  and  C_7
REMARK    5  A    between atoms: C_12  and  C_13
REMARK    6  A    between atoms: C_23  and  C_24
REMARK    7  A    between atoms: C_24  and  O_26
REMARK                            x       y       z     vdW  Elec       q    Type
REMARK                         _______ _______ _______ _____ _____    ______ ____
ROOT
ATOM      1  C   UNL     1      44.860   4.314  11.850  0.00  0.00    +0.000 A 
ATOM      2  C   UNL     1      44.267   5.478  11.358  0.00  0.00    +0.000 A 
ATOM      3  C   UNL     1      44.665   6.711  11.856  0.00  0.00    +0.000 A 
ATOM      4  F   UNL     1      44.098   7.826  11.377  0.00  0.00    +0.000 F 
ATOM      5  C   UNL     1      45.646   6.814  12.841  0.00  0.00    +0.000 A 
ATOM      6  C   UNL     1      46.284   5.669  13.353  0.00  0.00    +0.000 A 
ATOM      7  C   UNL     1      45.859   4.428  12.836  0.00  0.00    +0.000 A 
ATOM      8  F   UNL     1      46.433   3.291  13.265  0.00  0.00    +0.000 F 
ENDROOT
BRANCH   6   9
ATOM      9  C   UNL     1      47.364   5.784  14.366  0.00  0.00    +0.000 A 
ATOM     10  C   UNL     1      48.397   6.734  14.250  0.00  0.00    +0.000 A 
ATOM     11  C   UNL     1      49.388   6.862  15.230  0.00  0.00    +0.000 A 
ATOM     12  C   UNL     1      49.383   6.030  16.344  0.00  0.00    +0.000 A 
ATOM     13  C   UNL     1      48.388   5.067  16.476  0.00  0.00    +0.000 A 
ATOM     14  C   UNL     1      47.391   4.952  15.502  0.00  0.00    +0.000 A 
ENDBRANCH   6   9
BRANCH   1  15
ATOM     15  C   UNL     1      44.483   2.932  11.372  0.00  0.00    +0.000 C 
BRANCH  15  16
ATOM     16  O   UNL     1      43.893   2.971  10.067  0.00  0.00    +0.000 OA
BRANCH  16  20
ATOM     17  C   UNL     1      46.819   0.054   7.714  0.00  0.00    +0.000 C 
ATOM     18  C   UNL     1      46.283   1.447   7.864  0.00  0.00    +0.000 A 
ATOM     19  N   UNL     1      45.379   1.597   8.868  0.00  0.00    +0.000 NA
ATOM     20  C   UNL     1      44.826   2.809   9.068  0.00  0.00    +0.000 A 
ATOM     21  C   UNL     1      45.139   3.916   8.304  0.00  0.00    +0.000 A 
ATOM     22  C   UNL     1      46.069   3.767   7.274  0.00  0.00    +0.000 A 
ATOM     23  C   UNL     1      46.671   2.518   7.052  0.00  0.00    +0.000 A 
BRANCH  23  24
ATOM     24  C   UNL     1      47.648   2.333   5.947  0.00  0.00    +0.000 C 
ATOM     25  O   UNL     1      47.330   2.030   4.811  0.00  0.00    +0.000 OA
BRANCH  24  26
ATOM     26  O   UNL     1      48.936   2.521   6.308  0.00  0.00    +0.000 OA
ATOM     27  H   UNL     1      49.516   2.946   5.650  0.00  0.00    +0.000 HD
ENDBRANCH  24  26
ENDBRANCH  23  24
ENDBRANCH  16  20
ENDBRANCH  15  16
ENDBRANCH   1  15
TORSDOF 6
ENDMDL
MODEL 3
REMARK VINA RESULT:    -7.887      3.329      6.991
REMARK INTER + INTRA:         -11.365
REMARK INTER:                 -10.538
REMARK INTRA:                  -0.827
REMARK UNBOUND:                -0.942
REMARK  Name = 
REMARK  7 active torsions:
REMARK  status: ('A' for Active; 'I' for Inactive)
REMARK    1  A    between atoms: C_1  and  C_2
REMARK    2  A    between atoms: C_4  and  O_5
REMARK    3  A    between atoms: O_5  and  C_6
REMARK    4  A    between atoms: C_6  and  C_7
REMARK    5  A    between atoms: C_12  and  C_13
REMARK    6  A    between atoms: C_23  and  C_24
REMARK    7  A    between atoms: C_24  and  O_26
REMARK                            x       y       z     vdW  Elec       q    Type
REMARK                         _______ _______ _______ _____ _____    ______ ____
ROOT
ATOM      1  C   UNL     1      44.438   5.039  10.719  0.00  0.00    +0.000 A 
ATOM      2  C   UNL     1      43.663   4.136  11.449  0.00  0.00    +0.000 A 
ATOM      3  C   UNL     1      43.610   2.806  11.056  0.00  0.00    +0.000 A 
ATOM      4  F   UNL     1      42.869   1.942  11.763  0.00  0.00    +0.000 F 
ATOM      5  C   UNL     1      44.316   2.349   9.944  0.00  0.00    +0.000 A 
ATOM      6  C   UNL     1      45.125   3.218   9.190  0.00  0.00    +0.000 A 
ATOM      7  C   UNL     1      45.158   4.566   9.605  0.00  0.00    +0.000 A 
ATOM      8  F   UNL     1      45.920   5.452   8.942  0.00  0.00    +0.000 F 
ENDROOT
BRANCH   6   9
ATOM      9  C   UNL     1      45.915   2.719   8.036  0.00  0.00    +0.000 A 
ATOM     10  C   UNL     1      46.155   3.511   6.897  0.00  0.00    +0.000 A 
ATOM     11  C   UNL     1      46.935   3.046   5.832  0.00  0.00    +0.000 A 
ATOM     12  C   UNL     1      47.480   1.767   5.869  0.00  0.00    +0.000 A 
ATOM     13  C   UNL     1      47.243   0.953   6.971  0.00  0.00    +0.000 A 
ATOM     14  C   UNL     1      46.475   1.426   8.040  0.00  0.00    +0.000 A 
ENDBRANCH   6   9
BRANCH   1  15
ATOM     15  C   UNL     1      44.546   6.504  11.069  0.00  0.00    +0.000 C 
BRANCH  15  16
ATOM     16  O   UNL     1      44.981   6.689  12.422  0.00  0.00    +0.000 OA
BRANCH  16  20
ATOM     17  C   UNL     1      48.378   9.936  11.701  0.00  0.00    +0.000 C 
ATOM     18  C   UNL     1      48.038   8.556  12.179  0.00  0.00    +0.000 A 
ATOM     19  N   UNL     1      46.721   8.234  12.076  0.00  0.00    +0.000 NA
ATOM     20  C   UNL     1      46.315   7.021  12.500  0.00  0.00    +0.000 A 
ATOM     21  C   UNL     1      47.175   6.080  13.028  0.00  0.00    +0.000 A 
ATOM     22  C   UNL     1      48.528   6.405  13.133  0.00  0.00    +0.000 A 
ATOM     23  C   UNL     1      48.982   7.657  12.687  0.00  0.00    +0.000 A 
BRANCH  23  24
ATOM     24  C   UNL     1      50.415   8.032  12.809  0.00  0.00    +0.000 C 
ATOM     25  O   UNL     1      50.877   8.621  13.770  0.00  0.00    +0.000 OA
BRANCH  24  26
ATOM     26  O   UNL     1      51.174   7.670  11.752  0.00  0.00    +0.000 OA
ATOM     27  H   UNL     1      50.902   6.865  11.275  0.00  0.00    +0.000 HD
ENDBRANCH  24  26
ENDBRANCH  23  24
ENDBRANCH  16  20
ENDBRANCH  15  16
ENDBRANCH   1  15
TORSDOF 6
ENDMDL
MODEL 4
REMARK VINA RESULT:    -7.852      3.357      7.239
REMARK INTER + INTRA:         -11.319
REMARK INTER:                 -11.073
REMARK INTRA:                  -0.246
REMARK UNBOUND:                -0.942
REMARK  Name = 
REMARK  7 active torsions:
REMARK  status: ('A' for Active; 'I' for Inactive)
REMARK    1  A    between atoms: C_1  and  C_2
REMARK    2  A    between atoms: C_4  and  O_5
REMARK    3  A    between atoms: O_5  and  C_6
REMARK    4  A    between atoms: C_6  and  C_7
REMARK    5  A    between atoms: C_12  and  C_13
REMARK    6  A    between atoms: C_23  and  C_24
REMARK    7  A    between atoms: C_24  and  O_26
REMARK                            x       y       z     vdW  Elec       q    Type
REMARK                         _______ _______ _______ _____ _____    ______ ____
ROOT
ATOM      1  C   UNL     1      44.723   5.072  10.765  0.00  0.00    +0.000 A 
ATOM      2  C   UNL     1      43.859   4.226  11.463  0.00  0.00    +0.000 A 
ATOM      3  C   UNL     1      43.672   2.924  11.020  0.00  0.00    +0.000 A 
ATOM      4  F   UNL     1      42.846   2.113  11.696  0.00  0.00    +0.000 F 
ATOM      5  C   UNL     1      44.329   2.439   9.890  0.00  0.00    +0.000 A 
ATOM      6  C   UNL     1      45.223   3.250   9.167  0.00  0.00    +0.000 A 
ATOM      7  C   UNL     1      45.393   4.570   9.633  0.00  0.00    +0.000 A 
ATOM      8  F   UNL     1      46.243   5.399   9.002  0.00  0.00    +0.000 F 
ENDROOT
BRANCH   6   9
ATOM      9  C   UNL     1      45.960   2.717   7.994  0.00  0.00    +0.000 A 
ATOM     10  C   UNL     1      46.169   3.484   6.832  0.00  0.00    +0.000 A 
ATOM     11  C   UNL     1      46.900   2.987   5.746  0.00  0.00    +0.000 A 
ATOM     12  C   UNL     1      47.425   1.700   5.786  0.00  0.00    +0.000 A 
ATOM     13  C   UNL     1      47.218   0.910   6.912  0.00  0.00    +0.000 A 
ATOM     14  C   UNL     1      46.499   1.415   8.000  0.00  0.00    +0.000 A 
ENDBRANCH   6   9
BRANCH   1  15
ATOM     15  C   UNL     1      44.980   6.504  11.171  0.00  0.00    +0.000 C 
BRANCH  15  16
ATOM     16  O   UNL     1      46.378   6.814  11.144  0.00  0.00    +0.000 OA
BRANCH  16  20
ATOM     17  C   UNL     1      46.993   4.138  15.025  0.00  0.00    +0.000 C 
ATOM     18  C   UNL     1      47.325   5.414  14.311  0.00  0.00    +0.000 A 
ATOM     19  N   UNL     1      46.717   5.558  13.103  0.00  0.00    +0.000 NA
ATOM     20  C   UNL     1      46.969   6.664  12.378  0.00  0.00    +0.000 A 
ATOM     21  C   UNL     1      47.814   7.670  12.805  0.00  0.00    +0.000 A 
ATOM     22  C   UNL     1      48.438   7.528  14.045  0.00  0.00    +0.000 A 
ATOM     23  C   UNL     1      48.183   6.391  14.829  0.00  0.00    +0.000 A 
BRANCH  23  24
ATOM     24  C   UNL     1      48.853   6.210  16.143  0.00  0.00    +0.000 C 
ATOM     25  O   UNL     1      49.962   5.723  16.271  0.00  0.00    +0.000 OA
BRANCH  24  26
ATOM     26  O   UNL     1      48.122   6.626  17.200  0.00  0.00    +0.000 OA
ATOM     27  H   UNL     1      47.335   7.165  17.000  0.00  0.00    +0.000 HD
ENDBRANCH  24  26
ENDBRANCH  23  24
ENDBRANCH  16  20
ENDBRANCH  15  16
ENDBRANCH   1  15
TORSDOF 6
ENDMDL
MODEL 5
REMARK VINA RESULT:    -7.402      3.822      7.752
REMARK INTER + INTRA:         -10.723
REMARK INTER:                 -10.072
REMARK INTRA:                  -0.651
REMARK UNBOUND:                -0.942
REMARK  Name = 
REMARK  7 active torsions:
REMARK  status: ('A' for Active; 'I' for Inactive)
REMARK    1  A    between atoms: C_1  and  C_2
REMARK    2  A    between atoms: C_4  and  O_5
REMARK    3  A    between atoms: O_5  and  C_6
REMARK    4  A    between atoms: C_6  and  C_7
REMARK    5  A    between atoms: C_12  and  C_13
REMARK    6  A    between atoms: C_23  and  C_24
REMARK    7  A    between atoms: C_24  and  O_26
REMARK                            x       y       z     vdW  Elec       q    Type
REMARK                         _______ _______ _______ _____ _____    ______ ____
ROOT
ATOM      1  C   UNL     1      44.698   5.027  10.765  0.00  0.00    +0.000 A 
ATOM      2  C   UNL     1      43.867   4.158  11.474  0.00  0.00    +0.000 A 
ATOM      3  C   UNL     1      43.709   2.852  11.033  0.00  0.00    +0.000 A 
ATOM      4  F   UNL     1      42.915   2.020  11.719  0.00  0.00    +0.000 F 
ATOM      5  C   UNL     1      44.363   2.386   9.894  0.00  0.00    +0.000 A 
ATOM      6  C   UNL     1      45.225   3.221   9.158  0.00  0.00    +0.000 A 
ATOM      7  C   UNL     1      45.366   4.545   9.623  0.00  0.00    +0.000 A 
ATOM      8  F   UNL     1      46.184   5.396   8.981  0.00  0.00    +0.000 F 
ENDROOT
BRANCH   6   9
ATOM      9  C   UNL     1      45.960   2.708   7.974  0.00  0.00    +0.000 A 
ATOM     10  C   UNL     1      46.535   1.423   7.952  0.00  0.00    +0.000 A 
ATOM     11  C   UNL     1      47.191   0.932   6.817  0.00  0.00    +0.000 A 
ATOM     12  C   UNL     1      47.305   1.723   5.678  0.00  0.00    +0.000 A 
ATOM     13  C   UNL     1      46.766   3.005   5.677  0.00  0.00    +0.000 A 
ATOM     14  C   UNL     1      46.099   3.486   6.808  0.00  0.00    +0.000 A 
ENDBRANCH   6   9
BRANCH   1  15
ATOM     15  C   UNL     1      44.922   6.466  11.168  0.00  0.00    +0.000 C 
BRANCH  15  16
ATOM     16  O   UNL     1      46.153   6.625  11.883  0.00  0.00    +0.000 OA
BRANCH  16  20
ATOM     17  C   UNL     1      44.931  11.216  11.693  0.00  0.00    +0.000 C 
ATOM     18  C   UNL     1      46.030  10.213  11.883  0.00  0.00    +0.000 A 
ATOM     19  N   UNL     1      45.632   8.916  11.783  0.00  0.00    +0.000 NA
ATOM     20  C   UNL     1      46.545   7.942  11.960  0.00  0.00    +0.000 A 
ATOM     21  C   UNL     1      47.876   8.195  12.230  0.00  0.00    +0.000 A 
ATOM     22  C   UNL     1      48.289   9.524  12.331  0.00  0.00    +0.000 A 
ATOM     23  C   UNL     1      47.361  10.561  12.138  0.00  0.00    +0.000 A 
BRANCH  23  24
ATOM     24  C   UNL     1      47.776  11.983  12.261  0.00  0.00    +0.000 C 
ATOM     25  O   UNL     1      48.073  12.682  11.309  0.00  0.00    +0.000 OA
BRANCH  24  26
ATOM     26  O   UNL     1      47.808  12.443  13.531  0.00  0.00    +0.000 OA
ATOM     27  H   UNL     1      48.077  13.372  13.650  0.00  0.00    +0.000 HD
ENDBRANCH  24  26
ENDBRANCH  23  24
ENDBRANCH  16  20
ENDBRANCH  15  16
ENDBRANCH   1  15
TORSDOF 6
ENDMDL
MODEL 6
REMARK VINA RESULT:    -7.188      2.261      3.977
REMARK INTER + INTRA:         -10.441
REMARK INTER:                 -10.283
REMARK INTRA:                  -0.158
REMARK UNBOUND:                -0.942
REMARK  Name = 
REMARK  7 active torsions:
REMARK  status: ('A' for Active; 'I' for Inactive)
REMARK    1  A    between atoms: C_1  and  C_2
REMARK    2  A    between atoms: C_4  and  O_5
REMARK    3  A    between atoms: O_5  and  C_6
REMARK    4  A    between atoms: C_6  and  C_7
REMARK    5  A    between atoms: C_12  and  C_13
REMARK    6  A    between atoms: C_23  and  C_24
REMARK    7  A    between atoms: C_24  and  O_26
REMARK                            x       y       z     vdW  Elec       q    Type
REMARK                         _______ _______ _______ _____ _____    ______ ____
ROOT
ATOM      1  C   UNL     1      45.508   5.430  11.938  0.00  0.00    +0.000 A 
ATOM      2  C   UNL     1      46.277   6.391  11.280  0.00  0.00    +0.000 A 
ATOM      3  C   UNL     1      47.441   6.859  11.873  0.00  0.00    +0.000 A 
ATOM      4  F   UNL     1      48.179   7.777  11.236  0.00  0.00    +0.000 F 
ATOM      5  C   UNL     1      47.861   6.390  13.117  0.00  0.00    +0.000 A 
ATOM      6  C   UNL     1      47.128   5.408  13.809  0.00  0.00    +0.000 A 
ATOM      7  C   UNL     1      45.946   4.952  13.188  0.00  0.00    +0.000 A 
ATOM      8  F   UNL     1      45.202   4.004  13.782  0.00  0.00    +0.000 F 
ENDROOT
BRANCH   6   9
ATOM      9  C   UNL     1      47.604   4.874  15.110  0.00  0.00    +0.000 A 
ATOM     10  C   UNL     1      47.458   3.518  15.457  0.00  0.00    +0.000 A 
ATOM     11  C   UNL     1      47.946   3.015  16.669  0.00  0.00    +0.000 A 
ATOM     12  C   UNL     1      48.576   3.861  17.575  0.00  0.00    +0.000 A 
ATOM     13  C   UNL     1      48.716   5.211  17.270  0.00  0.00    +0.000 A 
ATOM     14  C   UNL     1      48.240   5.707  16.052  0.00  0.00    +0.000 A 
ENDBRANCH   6   9
BRANCH   1  15
ATOM     15  C   UNL     1      44.224   4.871  11.371  0.00  0.00    +0.000 C 
BRANCH  15  16
ATOM     16  O   UNL     1      44.160   5.045   9.950  0.00  0.00    +0.000 OA
BRANCH  16  20
ATOM     17  C   UNL     1      47.234   3.791   6.547  0.00  0.00    +0.000 C 
ATOM     18  C   UNL     1      46.296   3.336   7.626  0.00  0.00    +0.000 A 
ATOM     19  N   UNL     1      45.652   4.344   8.273  0.00  0.00    +0.000 NA
ATOM     20  C   UNL     1      44.803   4.035   9.272  0.00  0.00    +0.000 A 
ATOM     21  C   UNL     1      44.547   2.737   9.669  0.00  0.00    +0.000 A 
ATOM     22  C   UNL     1      45.204   1.700   9.006  0.00  0.00    +0.000 A 
ATOM     23  C   UNL     1      46.084   1.992   7.952  0.00  0.00    +0.000 A 
BRANCH  23  24
ATOM     24  C   UNL     1      46.810   0.904   7.246  0.00  0.00    +0.000 C 
ATOM     25  O   UNL     1      47.287   1.026   6.132  0.00  0.00    +0.000 OA
BRANCH  24  26
ATOM     26  O   UNL     1      46.892  -0.251   7.943  0.00  0.00    +0.000 OA
ATOM     27  H   UNL     1      46.986  -1.068   7.421  0.00  0.00    +0.000 HD
ENDBRANCH  24  26
ENDBRANCH  23  24
ENDBRANCH  16  20
ENDBRANCH  15  16
ENDBRANCH   1  15
TORSDOF 6
ENDMDL
MODEL 7
REMARK VINA RESULT:    -6.785      5.190      7.602
REMARK INTER + INTRA:          -9.908
REMARK INTER:                  -9.443
REMARK INTRA:                  -0.465
REMARK UNBOUND:                -0.942
REMARK  Name = 
REMARK  7 active torsions:
REMARK  status: ('A' for Active; 'I' for Inactive)
REMARK    1  A    between atoms: C_1  and  C_2
REMARK    2  A    between atoms: C_4  and  O_5
REMARK    3  A    between atoms: O_5  and  C_6
REMARK    4  A    between atoms: C_6  and  C_7
REMARK    5  A    between atoms: C_12  and  C_13
REMARK    6  A    between atoms: C_23  and  C_24
REMARK    7  A    between atoms: C_24  and  O_26
REMARK                            x       y       z     vdW  Elec       q    Type
REMARK                         _______ _______ _______ _____ _____    ______ ____
ROOT
ATOM      1  C   UNL     1      48.216   4.237  16.809  0.00  0.00    +0.000 A 
ATOM      2  C   UNL     1      48.176   5.389  17.597  0.00  0.00    +0.000 A 
ATOM      3  C   UNL     1      49.219   5.656  18.472  0.00  0.00    +0.000 A 
ATOM      4  F   UNL     1      49.179   6.765  19.222  0.00  0.00    +0.000 F 
ATOM      5  C   UNL     1      50.311   4.796  18.585  0.00  0.00    +0.000 A 
ATOM      6  C   UNL     1      50.403   3.633  17.797  0.00  0.00    +0.000 A 
ATOM      7  C   UNL     1      49.329   3.381  16.919  0.00  0.00    +0.000 A 
ATOM      8  F   UNL     1      49.354   2.297  16.125  0.00  0.00    +0.000 F 
ENDROOT
BRANCH   6   9
ATOM      9  C   UNL     1      51.590   2.745  17.882  0.00  0.00    +0.000 A 
ATOM     10  C   UNL     1      51.547   1.400  17.471  0.00  0.00    +0.000 A 
ATOM     11  C   UNL     1      52.681   0.581  17.517  0.00  0.00    +0.000 A 
ATOM     12  C   UNL     1      53.887   1.083  17.995  0.00  0.00    +0.000 A 
ATOM     13  C   UNL     1      53.957   2.403  18.428  0.00  0.00    +0.000 A 
ATOM     14  C   UNL     1      52.825   3.221  18.367  0.00  0.00    +0.000 A 
ENDBRANCH   6   9
BRANCH   1  15
ATOM     15  C   UNL     1      47.122   3.865  15.836  0.00  0.00    +0.000 C 
BRANCH  15  16
ATOM     16  O   UNL     1      47.521   4.106  14.482  0.00  0.00    +0.000 OA
BRANCH  16  20
ATOM     17  C   UNL     1      43.630   2.650  12.168  0.00  0.00    +0.000 C 
ATOM     18  C   UNL     1      44.534   3.796  12.514  0.00  0.00    +0.000 A 
ATOM     19  N   UNL     1      45.596   3.460  13.295  0.00  0.00    +0.000 NA
ATOM     20  C   UNL     1      46.453   4.427  13.674  0.00  0.00    +0.000 A 
ATOM     21  C   UNL     1      46.312   5.749  13.301  0.00  0.00    +0.000 A 
ATOM     22  C   UNL     1      45.225   6.098  12.498  0.00  0.00    +0.000 A 
ATOM     23  C   UNL     1      44.323   5.108  12.076  0.00  0.00    +0.000 A 
BRANCH  23  24
ATOM     24  C   UNL     1      43.148   5.461  11.237  0.00  0.00    +0.000 C 
ATOM     25  O   UNL     1      42.093   5.866  11.693  0.00  0.00    +0.000 OA
BRANCH  24  26
ATOM     26  O   UNL     1      43.340   5.287   9.912  0.00  0.00    +0.000 OA
ATOM     27  H   UNL     1      43.756   4.449   9.638  0.00  0.00    +0.000 HD
ENDBRANCH  24  26
ENDBRANCH  23  24
ENDBRANCH  16  20
ENDBRANCH  15  16
ENDBRANCH   1  15
TORSDOF 6
ENDMDL
MODEL 8
REMARK VINA RESULT:    -6.747      5.038      7.255
REMARK INTER + INTRA:          -9.857
REMARK INTER:                  -8.855
REMARK INTRA:                  -1.002
REMARK UNBOUND:                -0.942
REMARK  Name = 
REMARK  7 active torsions:
REMARK  status: ('A' for Active; 'I' for Inactive)
REMARK    1  A    between atoms: C_1  and  C_2
REMARK    2  A    between atoms: C_4  and  O_5
REMARK    3  A    between atoms: O_5  and  C_6
REMARK    4  A    between atoms: C_6  and  C_7
REMARK    5  A    between atoms: C_12  and  C_13
REMARK    6  A    between atoms: C_23  and  C_24
REMARK    7  A    between atoms: C_24  and  O_26
REMARK                            x       y       z     vdW  Elec       q    Type
REMARK                         _______ _______ _______ _____ _____    ______ ____
ROOT
ATOM      1  C   UNL     1      48.302   5.171  16.217  0.00  0.00    +0.000 A 
ATOM      2  C   UNL     1      47.303   4.248  16.531  0.00  0.00    +0.000 A 
ATOM      3  C   UNL     1      47.571   3.231  17.435  0.00  0.00    +0.000 A 
ATOM      4  F   UNL     1      46.608   2.350  17.737  0.00  0.00    +0.000 F 
ATOM      5  C   UNL     1      48.821   3.108  18.041  0.00  0.00    +0.000 A 
ATOM      6  C   UNL     1      49.852   4.026  17.770  0.00  0.00    +0.000 A 
ATOM      7  C   UNL     1      49.557   5.048  16.843  0.00  0.00    +0.000 A 
ATOM      8  F   UNL     1      50.488   5.971  16.546  0.00  0.00    +0.000 F 
ENDROOT
BRANCH   6   9
ATOM      9  C   UNL     1      51.166   3.924  18.453  0.00  0.00    +0.000 A 
ATOM     10  C   UNL     1      51.510   4.752  19.538  0.00  0.00    +0.000 A 
ATOM     11  C   UNL     1      52.735   4.621  20.202  0.00  0.00    +0.000 A 
ATOM     12  C   UNL     1      53.658   3.668  19.786  0.00  0.00    +0.000 A 
ATOM     13  C   UNL     1      53.357   2.849  18.703  0.00  0.00    +0.000 A 
ATOM     14  C   UNL     1      52.126   2.973  18.051  0.00  0.00    +0.000 A 
ENDBRANCH   6   9
BRANCH   1  15
ATOM     15  C   UNL     1      48.100   6.304  15.239  0.00  0.00    +0.000 C 
BRANCH  15  16
ATOM     16  O   UNL     1      48.231   5.857  13.884  0.00  0.00    +0.000 OA
BRANCH  16  20
ATOM     17  C   UNL     1      44.784   3.073  12.160  0.00  0.00    +0.000 C 
ATOM     18  C   UNL     1      45.282   4.471  12.378  0.00  0.00    +0.000 A 
ATOM     19  N   UNL     1      46.494   4.548  12.990  0.00  0.00    +0.000 NA
ATOM     20  C   UNL     1      47.014   5.763  13.247  0.00  0.00    +0.000 A 
ATOM     21  C   UNL     1      46.379   6.942  12.911  0.00  0.00    +0.000 A 
ATOM     22  C   UNL     1      45.136   6.868  12.281  0.00  0.00    +0.000 A 
ATOM     23  C   UNL     1      44.575   5.614  11.989  0.00  0.00    +0.000 A 
BRANCH  23  24
ATOM     24  C   UNL     1      43.243   5.513  11.337  0.00  0.00    +0.000 C 
ATOM     25  O   UNL     1      42.190   5.587  11.944  0.00  0.00    +0.000 OA
BRANCH  24  26
ATOM     26  O   UNL     1      43.293   5.319  10.001  0.00  0.00    +0.000 OA
ATOM     27  H   UNL     1      43.958   5.836   9.511  0.00  0.00    +0.000 HD
ENDBRANCH  24  26
ENDBRANCH  23  24
ENDBRANCH  16  20
ENDBRANCH  15  16
ENDBRANCH   1  15
TORSDOF 6
ENDMDL
MODEL 9
REMARK VINA RESULT:    -6.594      4.609      8.371
REMARK INTER + INTRA:          -9.656
REMARK INTER:                  -9.199
REMARK INTRA:                  -0.457
REMARK UNBOUND:                -0.942
REMARK  Name = 
REMARK  7 active torsions:
REMARK  status: ('A' for Active; 'I' for Inactive)
REMARK    1  A    between atoms: C_1  and  C_2
REMARK    2  A    between atoms: C_4  and  O_5
REMARK    3  A    between atoms: O_5  and  C_6
REMARK    4  A    between atoms: C_6  and  C_7
REMARK    5  A    between atoms: C_12  and  C_13
REMARK    6  A    between atoms: C_23  and  C_24
REMARK    7  A    between atoms: C_24  and  O_26
REMARK                            x       y       z     vdW  Elec       q    Type
REMARK                         _______ _______ _______ _____ _____    ______ ____
ROOT
ATOM      1  C   UNL     1      47.101   7.787  12.976  0.00  0.00    +0.000 A 
ATOM      2  C   UNL     1      46.262   8.902  12.931  0.00  0.00    +0.000 A 
ATOM      3  C   UNL     1      45.112   8.861  12.155  0.00  0.00    +0.000 A 
ATOM      4  F   UNL     1      44.307   9.931  12.118  0.00  0.00    +0.000 F 
ATOM      5  C   UNL     1      44.775   7.728  11.415  0.00  0.00    +0.000 A 
ATOM      6  C   UNL     1      45.580   6.575  11.446  0.00  0.00    +0.000 A 
ATOM      7  C   UNL     1      46.746   6.642  12.237  0.00  0.00    +0.000 A 
ATOM      8  F   UNL     1      47.556   5.574  12.327  0.00  0.00    +0.000 F 
ENDROOT
BRANCH   6   9
ATOM      9  C   UNL     1      45.193   5.352  10.697  0.00  0.00    +0.000 A 
ATOM     10  C   UNL     1      45.572   5.146   9.358  0.00  0.00    +0.000 A 
ATOM     11  C   UNL     1      45.237   3.972   8.672  0.00  0.00    +0.000 A 
ATOM     12  C   UNL     1      44.495   2.980   9.306  0.00  0.00    +0.000 A 
ATOM     13  C   UNL     1      44.087   3.164  10.622  0.00  0.00    +0.000 A 
ATOM     14  C   UNL     1      44.436   4.332  11.308  0.00  0.00    +0.000 A 
ENDBRANCH   6   9
BRANCH   1  15
ATOM     15  C   UNL     1      48.374   7.747  13.787  0.00  0.00    +0.000 C 
BRANCH  15  16
ATOM     16  O   UNL     1      48.754   6.401  14.100  0.00  0.00    +0.000 OA
BRANCH  16  20
ATOM     17  C   UNL     1      47.318   3.254  17.362  0.00  0.00    +0.000 C 
ATOM     18  C   UNL     1      47.882   4.617  17.091  0.00  0.00    +0.000 A 
ATOM     19  N   UNL     1      48.044   4.907  15.772  0.00  0.00    +0.000 NA
ATOM     20  C   UNL     1      48.564   6.102  15.430  0.00  0.00    +0.000 A 
ATOM     21  C   UNL     1      48.934   7.057  16.357  0.00  0.00    +0.000 A 
ATOM     22  C   UNL     1      48.766   6.764  17.711  0.00  0.00    +0.000 A 
ATOM     23  C   UNL     1      48.215   5.532  18.096  0.00  0.00    +0.000 A 
BRANCH  23  24
ATOM     24  C   UNL     1      48.047   5.193  19.534  0.00  0.00    +0.000 C 
ATOM     25  O   UNL     1      48.890   4.608  20.190  0.00  0.00    +0.000 OA
BRANCH  24  26
ATOM     26  O   UNL     1      46.865   5.581  20.061  0.00  0.00    +0.000 OA
ATOM     27  H   UNL     1      46.674   5.281  20.968  0.00  0.00    +0.000 HD
ENDBRANCH  24  26
ENDBRANCH  23  24
ENDBRANCH  16  20
ENDBRANCH  15  16
ENDBRANCH   1  15
TORSDOF 6
ENDMDL
