MODEL 1
REMARK VINA RESULT:    -8.461      0.000      0.000
REMARK INTER + INTRA:         -12.166
REMARK INTER:                 -11.429
REMARK INTRA:                  -0.738
REMARK UNBOUND:                -0.738
REMARK  Name = 
REMARK  6 active torsions:
REMARK  status: ('A' for Active; 'I' for Inactive)
REMARK    1  A    between atoms: C_6  and  C_7
REMARK    2  A    between atoms: C_7  and  O_8
REMARK    3  A    between atoms: O_8  and  C_9
REMARK    4  A    between atoms: C_12  and  C_13
REMARK    5  A    between atoms: C_13  and  N_14
REMARK    6  A    between atoms: C_15  and  C_17
REMARK                            x       y       z     vdW  Elec       q    Type
REMARK                         _______ _______ _______ _____ _____    ______ ____
ROOT
ATOM      1  C   UNL     1      45.092   4.263   8.994  0.00  0.00    +0.000 A 
ATOM      2  C   UNL     1      45.460   5.266   9.866  0.00  0.00    +0.000 A 
ATOM      3  N   UNL     1      45.243   5.225  11.200  0.00  0.00    +0.000 NA
ATOM      4  C   UNL     1      44.623   4.127  11.676  0.00  0.00    +0.000 A 
ATOM      5  N   UNL     1      44.149   3.129  10.901  0.00  0.00    +0.000 NA
ATOM      6  C   UNL     1      44.395   3.228   9.577  0.00  0.00    +0.000 A 
ENDROOT
BRANCH   1   7
ATOM      7  O   UNL     1      45.438   4.387   7.684  0.00  0.00    +0.000 OA
BRANCH   7   8
ATOM      8  C   UNL     1      46.825   4.141   7.417  0.00  0.00    +0.000 C 
BRANCH   8  14
ATOM      9  N   UNL     1      46.894  -0.620   7.612  0.00  0.00    +0.000 N 
ATOM     10  C   UNL     1      47.019   0.515   6.816  0.00  0.00    +0.000 A 
ATOM     11  C   UNL     1      47.208   0.403   5.448  0.00  0.00    +0.000 A 
ATOM     12  C   UNL     1      47.310   1.565   4.687  0.00  0.00    +0.000 A 
ATOM     13  C   UNL     1      47.208   2.800   5.316  0.00  0.00    +0.000 A 
ATOM     14  C   UNL     1      47.001   2.829   6.691  0.00  0.00    +0.000 A 
ATOM     15  N   UNL     1      46.904   1.698   7.440  0.00  0.00    +0.000 NA
ATOM     16  H   UNL     1      47.679  -1.249   7.490  0.00  0.00    +0.000 HD
ATOM     17  H   UNL     1      46.816  -0.298   8.574  0.00  0.00    +0.000 HD
ENDBRANCH   8  14
ENDBRANCH   7   8
ENDBRANCH   1   7
BRANCH   4  18
ATOM     18  C   UNL     1      44.440   4.014  13.174  0.00  0.00    +0.000 C 
BRANCH  18  19
ATOM     19  N   UNL     1      45.406   4.786  13.926  0.00  0.00    +0.000 N 
ATOM     20  C   UNL     1      46.643   4.273  14.211  0.00  0.00    +0.000 C 
ATOM     21  O   UNL     1      46.978   3.154  13.832  0.00  0.00    +0.000 OA
ATOM     22  H   UNL     1      45.226   5.782  14.018  0.00  0.00    +0.000 HD
BRANCH  20  23
ATOM     23  C   UNL     1      47.518   5.086  15.064  0.00  0.00    +0.000 A 
ATOM     24  C   UNL     1      48.078   6.258  14.571  0.00  0.00    +0.000 A 
ATOM     25  S   UNL     1      49.286   6.909  15.583  0.00  0.00    +0.000 S 
ATOM     26  C   UNL     1      49.061   5.675  16.733  0.00  0.00    +0.000 A 
ATOM     27  N   UNL     1      49.866   5.566  17.824  0.00  0.00    +0.000 NA
ATOM     28  C   UNL     1      49.547   4.605  18.626  0.00  0.00    +0.000 A 
ATOM     29  N   UNL     1      48.468   3.775  18.462  0.00  0.00    +0.000 N 
ATOM     30  C   UNL     1      47.605   3.876  17.397  0.00  0.00    +0.000 A 
ATOM     31  O   UNL     1      46.588   3.199  17.334  0.00  0.00    +0.000 OA
ATOM     32  C   UNL     1      47.996   4.856  16.404  0.00  0.00    +0.000 A 
ATOM     33  H   UNL     1      48.225   3.098  19.169  0.00  0.00    +0.000 HD
ENDBRANCH  20  23
ENDBRANCH  18  19
ENDBRANCH   4  18
TORSDOF 6
ENDMDL
MODEL 2
REMARK VINA RESULT:    -8.319      1.892      2.739
REMARK INTER + INTRA:         -11.974
REMARK INTER:                 -11.099
REMARK INTRA:                  -0.875
REMARK UNBOUND:                -0.738
REMARK  Name = 
REMARK  6 active torsions:
REMARK  status: ('A' for Active; 'I' for Inactive)
REMARK    1  A    between atoms: C_6  and  C_7
REMARK    2  A    between atoms: C_7  and  O_8
REMARK    3  A    between atoms: O_8  and  C_9
REMARK    4  A    between atoms: C_12  and  C_13
REMARK    5  A    between atoms: C_13  and  N_14
REMARK    6  A    between atoms: C_15  and  C_17
REMARK                            x       y       z     vdW  Elec       q    Type
REMARK                         _______ _______ _______ _____ _____    ______ ____
ROOT
ATOM      1  C   UNL     1      45.024   4.659  10.805  0.00  0.00    +0.000 A 
ATOM      2  C   UNL     1      45.758   5.664  10.211  0.00  0.00    +0.000 A 
ATOM      3  N   UNL     1      46.426   6.619  10.897  0.00  0.00    +0.000 NA
ATOM      4  C   UNL     1      46.347   6.562  12.241  0.00  0.00    +0.000 A 
ATOM      5  N   UNL     1      45.590   5.671  12.919  0.00  0.00    +0.000 NA
ATOM      6  C   UNL     1      44.945   4.745  12.178  0.00  0.00    +0.000 A 
ENDROOT
BRANCH   1   7
ATOM      7  O   UNL     1      44.463   3.710  10.007  0.00  0.00    +0.000 OA
BRANCH   7   8
ATOM      8  C   UNL     1      44.721   3.892   8.608  0.00  0.00    +0.000 C 
BRANCH   8  14
ATOM      9  N   UNL     1      48.650   2.799   6.144  0.00  0.00    +0.000 N 
ATOM     10  C   UNL     1      47.582   2.327   6.902  0.00  0.00    +0.000 A 
ATOM     11  C   UNL     1      47.472   0.982   7.212  0.00  0.00    +0.000 A 
ATOM     12  C   UNL     1      46.398   0.556   7.989  0.00  0.00    +0.000 A 
ATOM     13  C   UNL     1      45.473   1.491   8.438  0.00  0.00    +0.000 A 
ATOM     14  C   UNL     1      45.661   2.826   8.099  0.00  0.00    +0.000 A 
ATOM     15  N   UNL     1      46.707   3.247   7.339  0.00  0.00    +0.000 NA
ATOM     16  H   UNL     1      48.729   2.303   5.264  0.00  0.00    +0.000 HD
ATOM     17  H   UNL     1      48.493   3.794   6.002  0.00  0.00    +0.000 HD
ENDBRANCH   8  14
ENDBRANCH   7   8
ENDBRANCH   1   7
BRANCH   4  18
ATOM     18  C   UNL     1      47.150   7.565  13.038  0.00  0.00    +0.000 C 
BRANCH  18  19
ATOM     19  N   UNL     1      47.388   7.150  14.404  0.00  0.00    +0.000 N 
ATOM     20  C   UNL     1      48.648   6.815  14.823  0.00  0.00    +0.000 C 
ATOM     21  O   UNL     1      49.613   6.864  14.065  0.00  0.00    +0.000 OA
ATOM     22  H   UNL     1      46.655   7.348  15.078  0.00  0.00    +0.000 HD
BRANCH  20  23
ATOM     23  C   UNL     1      48.777   6.309  16.195  0.00  0.00    +0.000 A 
ATOM     24  C   UNL     1      49.514   7.022  17.133  0.00  0.00    +0.000 A 
ATOM     25  S   UNL     1      49.802   6.152  18.572  0.00  0.00    +0.000 S 
ATOM     26  C   UNL     1      48.909   4.819  18.004  0.00  0.00    +0.000 A 
ATOM     27  N   UNL     1      48.841   3.659  18.711  0.00  0.00    +0.000 NA
ATOM     28  C   UNL     1      48.093   2.752  18.174  0.00  0.00    +0.000 A 
ATOM     29  N   UNL     1      47.369   2.918  17.022  0.00  0.00    +0.000 N 
ATOM     30  C   UNL     1      47.376   4.087  16.299  0.00  0.00    +0.000 A 
ATOM     31  O   UNL     1      46.635   4.247  15.339  0.00  0.00    +0.000 OA
ATOM     32  C   UNL     1      48.301   5.087  16.792  0.00  0.00    +0.000 A 
ATOM     33  H   UNL     1      46.738   2.200  16.699  0.00  0.00    +0.000 HD
ENDBRANCH  20  23
ENDBRANCH  18  19
ENDBRANCH   4  18
TORSDOF 6
ENDMDL
MODEL 3
REMARK VINA RESULT:    -7.955      2.308      3.352
REMARK INTER + INTRA:         -11.482
REMARK INTER:                 -10.746
REMARK INTRA:                  -0.737
REMARK UNBOUND:                -0.738
REMARK  Name = 
REMARK  6 active torsions:
REMARK  status: ('A' for Active; 'I' for Inactive)
REMARK    1  A    between atoms: C_6  and  C_7
REMARK    2  A    between atoms: C_7  and  O_8
REMARK    3  A    between atoms: O_8  and  C_9
REMARK    4  A    between atoms: C_12  and  C_13
REMARK    5  A    between atoms: C_13  and  N_14
REMARK    6  A    between atoms: C_15  and  C_17
REMARK                            x       y       z     vdW  Elec       q    Type
REMARK                         _______ _______ _______ _____ _____    ______ ____
ROOT
ATOM      1  C   UNL     1      45.132   4.708  11.710  0.00  0.00    +0.000 A 
ATOM      2  C   UNL     1      45.666   5.919  11.323  0.00  0.00    +0.000 A 
ATOM      3  N   UNL     1      46.652   6.559  11.991  0.00  0.00    +0.000 NA
ATOM      4  C   UNL     1      47.118   5.954  13.101  0.00  0.00    +0.000 A 
ATOM      5  N   UNL     1      46.610   4.812  13.612  0.00  0.00    +0.000 NA
ATOM      6  C   UNL     1      45.626   4.221  12.901  0.00  0.00    +0.000 A 
ENDROOT
BRANCH   1   7
ATOM      7  O   UNL     1      44.199   4.127  10.909  0.00  0.00    +0.000 OA
BRANCH   7   8
ATOM      8  C   UNL     1      44.269   4.533   9.535  0.00  0.00    +0.000 C 
BRANCH   8  14
ATOM      9  N   UNL     1      47.069   3.681   5.775  0.00  0.00    +0.000 N 
ATOM     10  C   UNL     1      46.434   3.155   6.896  0.00  0.00    +0.000 A 
ATOM     11  C   UNL     1      46.612   1.830   7.256  0.00  0.00    +0.000 A 
ATOM     12  C   UNL     1      45.972   1.351   8.395  0.00  0.00    +0.000 A 
ATOM     13  C   UNL     1      45.183   2.214   9.145  0.00  0.00    +0.000 A 
ATOM     14  C   UNL     1      45.066   3.536   8.728  0.00  0.00    +0.000 A 
ATOM     15  N   UNL     1      45.687   4.009   7.615  0.00  0.00    +0.000 NA
ATOM     16  H   UNL     1      46.868   3.138   4.944  0.00  0.00    +0.000 HD
ATOM     17  H   UNL     1      46.753   4.643   5.681  0.00  0.00    +0.000 HD
ENDBRANCH   8  14
ENDBRANCH   7   8
ENDBRANCH   1   7
BRANCH   4  18
ATOM     18  C   UNL     1      48.278   6.603  13.824  0.00  0.00    +0.000 C 
BRANCH  18  19
ATOM     19  N   UNL     1      48.012   6.847  15.225  0.00  0.00    +0.000 N 
ATOM     20  C   UNL     1      48.959   6.574  16.175  0.00  0.00    +0.000 C 
ATOM     21  O   UNL     1      50.062   6.125  15.873  0.00  0.00    +0.000 OA
ATOM     22  H   UNL     1      47.216   7.440  15.445  0.00  0.00    +0.000 HD
BRANCH  20  23
ATOM     23  C   UNL     1      48.566   6.758  17.577  0.00  0.00    +0.000 A 
ATOM     24  C   UNL     1      48.299   8.032  18.063  0.00  0.00    +0.000 A 
ATOM     25  S   UNL     1      48.148   8.091  19.762  0.00  0.00    +0.000 S 
ATOM     26  C   UNL     1      48.383   6.410  19.892  0.00  0.00    +0.000 A 
ATOM     27  N   UNL     1      48.482   5.801  21.104  0.00  0.00    +0.000 NA
ATOM     28  C   UNL     1      48.619   4.517  21.043  0.00  0.00    +0.000 A 
ATOM     29  N   UNL     1      48.616   3.784  19.884  0.00  0.00    +0.000 N 
ATOM     30  C   UNL     1      48.477   4.356  18.642  0.00  0.00    +0.000 A 
ATOM     31  O   UNL     1      48.364   3.670  17.634  0.00  0.00    +0.000 OA
ATOM     32  C   UNL     1      48.450   5.804  18.651  0.00  0.00    +0.000 A 
ATOM     33  H   UNL     1      48.642   2.777  19.909  0.00  0.00    +0.000 HD
ENDBRANCH  20  23
ENDBRANCH  18  19
ENDBRANCH   4  18
TORSDOF 6
ENDMDL
MODEL 4
REMARK VINA RESULT:    -7.758      1.573      2.437
REMARK INTER + INTRA:         -11.216
REMARK INTER:                 -10.199
REMARK INTRA:                  -1.018
REMARK UNBOUND:                -0.738
REMARK  Name = 
REMARK  6 active torsions:
REMARK  status: ('A' for Active; 'I' for Inactive)
REMARK    1  A    between atoms: C_6  and  C_7
REMARK    2  A    between atoms: C_7  and  O_8
REMARK    3  A    between atoms: O_8  and  C_9
REMARK    4  A    between atoms: C_12  and  C_13
REMARK    5  A    between atoms: C_13  and  N_14
REMARK    6  A    between atoms: C_15  and  C_17
REMARK                            x       y       z     vdW  Elec       q    Type
REMARK                         _______ _______ _______ _____ _____    ______ ____
ROOT
ATOM      1  C   UNL     1      45.240   4.372   8.940  0.00  0.00    +0.000 A 
ATOM      2  C   UNL     1      45.538   5.461   9.731  0.00  0.00    +0.000 A 
ATOM      3  N   UNL     1      45.321   5.509  11.065  0.00  0.00    +0.000 NA
ATOM      4  C   UNL     1      44.774   4.413  11.626  0.00  0.00    +0.000 A 
ATOM      5  N   UNL     1      44.368   3.328  10.931  0.00  0.00    +0.000 NA
ATOM      6  C   UNL     1      44.611   3.340   9.603  0.00  0.00    +0.000 A 
ENDROOT
BRANCH   1   7
ATOM      7  O   UNL     1      45.580   4.416   7.624  0.00  0.00    +0.000 OA
BRANCH   7   8
ATOM      8  C   UNL     1      46.954   4.100   7.361  0.00  0.00    +0.000 C 
BRANCH   8  14
ATOM      9  N   UNL     1      46.874  -0.659   7.602  0.00  0.00    +0.000 N 
ATOM     10  C   UNL     1      47.012   0.464   6.791  0.00  0.00    +0.000 A 
ATOM     11  C   UNL     1      47.157   0.334   5.420  0.00  0.00    +0.000 A 
ATOM     12  C   UNL     1      47.273   1.484   4.644  0.00  0.00    +0.000 A 
ATOM     13  C   UNL     1      47.231   2.728   5.263  0.00  0.00    +0.000 A 
ATOM     14  C   UNL     1      47.066   2.776   6.643  0.00  0.00    +0.000 A 
ATOM     15  N   UNL     1      46.955   1.656   7.406  0.00  0.00    +0.000 NA
ATOM     16  H   UNL     1      47.635  -1.314   7.463  0.00  0.00    +0.000 HD
ATOM     17  H   UNL     1      46.836  -0.325   8.562  0.00  0.00    +0.000 HD
ENDBRANCH   8  14
ENDBRANCH   7   8
ENDBRANCH   1   7
BRANCH   4  18
ATOM     18  C   UNL     1      44.595   4.403  13.128  0.00  0.00    +0.000 C 
BRANCH  18  19
ATOM     19  N   UNL     1      45.651   5.097  13.832  0.00  0.00    +0.000 N 
ATOM     20  C   UNL     1      46.765   4.425  14.261  0.00  0.00    +0.000 C 
ATOM     21  O   UNL     1      46.910   3.224  14.055  0.00  0.00    +0.000 OA
ATOM     22  H   UNL     1      45.649   6.112  13.780  0.00  0.00    +0.000 HD
BRANCH  20  23
ATOM     23  C   UNL     1      47.735   5.189  15.054  0.00  0.00    +0.000 A 
ATOM     24  C   UNL     1      48.051   4.784  16.345  0.00  0.00    +0.000 A 
ATOM     25  S   UNL     1      48.958   5.938  17.215  0.00  0.00    +0.000 S 
ATOM     26  C   UNL     1      48.999   6.989  15.876  0.00  0.00    +0.000 A 
ATOM     27  N   UNL     1      49.537   8.235  15.970  0.00  0.00    +0.000 NA
ATOM     28  C   UNL     1      49.533   8.899  14.861  0.00  0.00    +0.000 A 
ATOM     29  N   UNL     1      49.086   8.413  13.659  0.00  0.00    +0.000 N 
ATOM     30  C   UNL     1      48.573   7.147  13.512  0.00  0.00    +0.000 A 
ATOM     31  O   UNL     1      48.287   6.700  12.410  0.00  0.00    +0.000 OA
ATOM     32  C   UNL     1      48.438   6.410  14.753  0.00  0.00    +0.000 A 
ATOM     33  H   UNL     1      49.188   8.953  12.814  0.00  0.00    +0.000 HD
ENDBRANCH  20  23
ENDBRANCH  18  19
ENDBRANCH   4  18
TORSDOF 6
ENDMDL
MODEL 5
REMARK VINA RESULT:    -7.706      2.851      4.150
REMARK INTER + INTRA:         -11.147
REMARK INTER:                 -10.449
REMARK INTRA:                  -0.698
REMARK UNBOUND:                -0.738
REMARK  Name = 
REMARK  6 active torsions:
REMARK  status: ('A' for Active; 'I' for Inactive)
REMARK    1  A    between atoms: C_6  and  C_7
REMARK    2  A    between atoms: C_7  and  O_8
REMARK    3  A    between atoms: O_8  and  C_9
REMARK    4  A    between atoms: C_12  and  C_13
REMARK    5  A    between atoms: C_13  and  N_14
REMARK    6  A    between atoms: C_15  and  C_17
REMARK                            x       y       z     vdW  Elec       q    Type
REMARK                         _______ _______ _______ _____ _____    ______ ____
ROOT
ATOM      1  C   UNL     1      45.567   5.231  11.692  0.00  0.00    +0.000 A 
ATOM      2  C   UNL     1      45.275   4.042  12.326  0.00  0.00    +0.000 A 
ATOM      3  N   UNL     1      45.788   3.676  13.522  0.00  0.00    +0.000 NA
ATOM      4  C   UNL     1      46.638   4.544  14.104  0.00  0.00    +0.000 A 
ATOM      5  N   UNL     1      47.055   5.695  13.532  0.00  0.00    +0.000 NA
ATOM      6  C   UNL     1      46.509   6.004  12.337  0.00  0.00    +0.000 A 
ENDROOT
BRANCH   1   7
ATOM      7  O   UNL     1      44.924   5.519  10.529  0.00  0.00    +0.000 OA
BRANCH   7   8
ATOM      8  C   UNL     1      44.106   4.452  10.030  0.00  0.00    +0.000 C 
BRANCH   8  14
ATOM      9  N   UNL     1      46.904   4.074   6.192  0.00  0.00    +0.000 N 
ATOM     10  C   UNL     1      46.267   3.413   7.238  0.00  0.00    +0.000 A 
ATOM     11  C   UNL     1      46.442   2.052   7.427  0.00  0.00    +0.000 A 
ATOM     12  C   UNL     1      45.801   1.435   8.497  0.00  0.00    +0.000 A 
ATOM     13  C   UNL     1      45.013   2.199   9.350  0.00  0.00    +0.000 A 
ATOM     14  C   UNL     1      44.901   3.563   9.103  0.00  0.00    +0.000 A 
ATOM     15  N   UNL     1      45.522   4.171   8.058  0.00  0.00    +0.000 NA
ATOM     16  H   UNL     1      46.701   3.640   5.298  0.00  0.00    +0.000 HD
ATOM     17  H   UNL     1      46.590   5.041   6.220  0.00  0.00    +0.000 HD
ENDBRANCH   8  14
ENDBRANCH   7   8
ENDBRANCH   1   7
BRANCH   4  18
ATOM     18  C   UNL     1      47.165   4.202  15.480  0.00  0.00    +0.000 C 
BRANCH  18  19
ATOM     19  N   UNL     1      47.475   5.368  16.278  0.00  0.00    +0.000 N 
ATOM     20  C   UNL     1      48.687   5.483  16.907  0.00  0.00    +0.000 C 
ATOM     21  O   UNL     1      49.548   4.614  16.807  0.00  0.00    +0.000 OA
ATOM     22  H   UNL     1      46.877   6.180  16.157  0.00  0.00    +0.000 HD
BRANCH  20  23
ATOM     23  C   UNL     1      48.874   6.650  17.776  0.00  0.00    +0.000 A 
ATOM     24  C   UNL     1      49.278   6.479  19.094  0.00  0.00    +0.000 A 
ATOM     25  S   UNL     1      49.160   7.901  20.030  0.00  0.00    +0.000 S 
ATOM     26  C   UNL     1      48.615   8.798  18.689  0.00  0.00    +0.000 A 
ATOM     27  N   UNL     1      48.216  10.092  18.818  0.00  0.00    +0.000 NA
ATOM     28  C   UNL     1      47.869  10.653  17.706  0.00  0.00    +0.000 A 
ATOM     29  N   UNL     1      47.931  10.054  16.475  0.00  0.00    +0.000 N 
ATOM     30  C   UNL     1      48.367   8.763  16.295  0.00  0.00    +0.000 A 
ATOM     31  O   UNL     1      48.520   8.292  15.176  0.00  0.00    +0.000 OA
ATOM     32  C   UNL     1      48.645   8.051  17.526  0.00  0.00    +0.000 A 
ATOM     33  H   UNL     1      47.725  10.574  15.636  0.00  0.00    +0.000 HD
ENDBRANCH  20  23
ENDBRANCH  18  19
ENDBRANCH   4  18
TORSDOF 6
ENDMDL
MODEL 6
REMARK VINA RESULT:    -7.695      2.545      3.816
REMARK INTER + INTRA:         -11.131
REMARK INTER:                 -10.334
REMARK INTRA:                  -0.798
REMARK UNBOUND:                -0.738
REMARK  Name = 
REMARK  6 active torsions:
REMARK  status: ('A' for Active; 'I' for Inactive)
REMARK    1  A    between atoms: C_6  and  C_7
REMARK    2  A    between atoms: C_7  and  O_8
REMARK    3  A    between atoms: O_8  and  C_9
REMARK    4  A    between atoms: C_12  and  C_13
REMARK    5  A    between atoms: C_13  and  N_14
REMARK    6  A    between atoms: C_15  and  C_17
REMARK                            x       y       z     vdW  Elec       q    Type
REMARK                         _______ _______ _______ _____ _____    ______ ____
ROOT
ATOM      1  C   UNL     1      45.821   5.432  11.833  0.00  0.00    +0.000 A 
ATOM      2  C   UNL     1      45.228   4.431  12.573  0.00  0.00    +0.000 A 
ATOM      3  N   UNL     1      45.685   4.003  13.771  0.00  0.00    +0.000 NA
ATOM      4  C   UNL     1      46.792   4.608  14.244  0.00  0.00    +0.000 A 
ATOM      5  N   UNL     1      47.496   5.539  13.565  0.00  0.00    +0.000 NA
ATOM      6  C   UNL     1      46.991   5.923  12.373  0.00  0.00    +0.000 A 
ENDROOT
BRANCH   1   7
ATOM      7  O   UNL     1      45.220   5.827  10.680  0.00  0.00    +0.000 OA
BRANCH   7   8
ATOM      8  C   UNL     1      44.243   4.904  10.181  0.00  0.00    +0.000 C 
BRANCH   8  14
ATOM      9  N   UNL     1      47.018   3.981   6.419  0.00  0.00    +0.000 N 
ATOM     10  C   UNL     1      46.254   3.458   7.458  0.00  0.00    +0.000 A 
ATOM     11  C   UNL     1      46.187   2.091   7.671  0.00  0.00    +0.000 A 
ATOM     12  C   UNL     1      45.425   1.613   8.733  0.00  0.00    +0.000 A 
ATOM     13  C   UNL     1      44.763   2.516   9.555  0.00  0.00    +0.000 A 
ATOM     14  C   UNL     1      44.892   3.875   9.286  0.00  0.00    +0.000 A 
ATOM     15  N   UNL     1      45.633   4.348   8.249  0.00  0.00    +0.000 NA
ATOM     16  H   UNL     1      46.764   3.573   5.527  0.00  0.00    +0.000 HD
ATOM     17  H   UNL     1      46.875   4.988   6.426  0.00  0.00    +0.000 HD
ENDBRANCH   8  14
ENDBRANCH   7   8
ENDBRANCH   1   7
BRANCH   4  18
ATOM     18  C   UNL     1      47.280   4.210  15.620  0.00  0.00    +0.000 C 
BRANCH  18  19
ATOM     19  N   UNL     1      47.726   5.334  16.414  0.00  0.00    +0.000 N 
ATOM     20  C   UNL     1      48.979   5.348  16.966  0.00  0.00    +0.000 C 
ATOM     21  O   UNL     1      49.765   4.420  16.799  0.00  0.00    +0.000 OA
ATOM     22  H   UNL     1      47.184   6.191  16.343  0.00  0.00    +0.000 HD
BRANCH  20  23
ATOM     23  C   UNL     1      49.307   6.482  17.839  0.00  0.00    +0.000 A 
ATOM     24  C   UNL     1      50.386   7.303  17.537  0.00  0.00    +0.000 A 
ATOM     25  S   UNL     1      50.796   8.375  18.799  0.00  0.00    +0.000 S 
ATOM     26  C   UNL     1      49.514   7.809  19.765  0.00  0.00    +0.000 A 
ATOM     27  N   UNL     1      49.350   8.235  21.046  0.00  0.00    +0.000 NA
ATOM     28  C   UNL     1      48.309   7.748  21.638  0.00  0.00    +0.000 A 
ATOM     29  N   UNL     1      47.393   6.915  21.050  0.00  0.00    +0.000 N 
ATOM     30  C   UNL     1      47.498   6.493  19.747  0.00  0.00    +0.000 A 
ATOM     31  O   UNL     1      46.609   5.843  19.214  0.00  0.00    +0.000 OA
ATOM     32  C   UNL     1      48.717   6.909  19.082  0.00  0.00    +0.000 A 
ATOM     33  H   UNL     1      46.557   6.637  21.542  0.00  0.00    +0.000 HD
ENDBRANCH  20  23
ENDBRANCH  18  19
ENDBRANCH   4  18
TORSDOF 6
ENDMDL
MODEL 7
REMARK VINA RESULT:    -7.573      2.669      4.443
REMARK INTER + INTRA:         -10.967
REMARK INTER:                 -10.030
REMARK INTRA:                  -0.937
REMARK UNBOUND:                -0.738
REMARK  Name = 
REMARK  6 active torsions:
REMARK  status: ('A' for Active; 'I' for Inactive)
REMARK    1  A    between atoms: C_6  and  C_7
REMARK    2  A    between atoms: C_7  and  O_8
REMARK    3  A    between atoms: O_8  and  C_9
REMARK    4  A    between atoms: C_12  and  C_13
REMARK    5  A    between atoms: C_13  and  N_14
REMARK    6  A    between atoms: C_15  and  C_17
REMARK                            x       y       z     vdW  Elec       q    Type
REMARK                         _______ _______ _______ _____ _____    ______ ____
ROOT
ATOM      1  C   UNL     1      46.059   5.455  12.595  0.00  0.00    +0.000 A 
ATOM      2  C   UNL     1      46.580   4.756  13.664  0.00  0.00    +0.000 A 
ATOM      3  N   UNL     1      47.521   5.244  14.502  0.00  0.00    +0.000 NA
ATOM      4  C   UNL     1      47.962   6.493  14.250  0.00  0.00    +0.000 A 
ATOM      5  N   UNL     1      47.580   7.231  13.186  0.00  0.00    +0.000 NA
ATOM      6  C   UNL     1      46.639   6.688  12.384  0.00  0.00    +0.000 A 
ENDROOT
BRANCH   1   7
ATOM      7  O   UNL     1      45.058   4.884  11.874  0.00  0.00    +0.000 OA
BRANCH   7   8
ATOM      8  C   UNL     1      44.967   5.354  10.522  0.00  0.00    +0.000 C 
BRANCH   8  14
ATOM      9  N   UNL     1      46.976   4.015   6.414  0.00  0.00    +0.000 N 
ATOM     10  C   UNL     1      46.279   3.620   7.553  0.00  0.00    +0.000 A 
ATOM     11  C   UNL     1      45.991   2.284   7.780  0.00  0.00    +0.000 A 
ATOM     12  C   UNL     1      45.309   1.932   8.941  0.00  0.00    +0.000 A 
ATOM     13  C   UNL     1      44.945   2.925   9.842  0.00  0.00    +0.000 A 
ATOM     14  C   UNL     1      45.285   4.242   9.551  0.00  0.00    +0.000 A 
ATOM     15  N   UNL     1      45.949   4.592   8.418  0.00  0.00    +0.000 NA
ATOM     16  H   UNL     1      46.529   3.679   5.569  0.00  0.00    +0.000 HD
ATOM     17  H   UNL     1      47.024   5.030   6.436  0.00  0.00    +0.000 HD
ENDBRANCH   8  14
ENDBRANCH   7   8
ENDBRANCH   1   7
BRANCH   4  18
ATOM     18  C   UNL     1      48.953   7.099  15.218  0.00  0.00    +0.000 C 
BRANCH  18  19
ATOM     19  N   UNL     1      49.739   6.111  15.925  0.00  0.00    +0.000 N 
ATOM     20  C   UNL     1      49.976   6.235  17.268  0.00  0.00    +0.000 C 
ATOM     21  O   UNL     1      49.526   7.175  17.916  0.00  0.00    +0.000 OA
ATOM     22  H   UNL     1      49.893   5.224  15.453  0.00  0.00    +0.000 HD
BRANCH  20  23
ATOM     23  C   UNL     1      50.866   5.240  17.878  0.00  0.00    +0.000 A 
ATOM     24  C   UNL     1      51.905   5.650  18.705  0.00  0.00    +0.000 A 
ATOM     25  S   UNL     1      53.004   4.401  19.082  0.00  0.00    +0.000 S 
ATOM     26  C   UNL     1      52.097   3.266  18.196  0.00  0.00    +0.000 A 
ATOM     27  N   UNL     1      52.541   1.993  18.011  0.00  0.00    +0.000 NA
ATOM     28  C   UNL     1      51.725   1.237  17.353  0.00  0.00    +0.000 A 
ATOM     29  N   UNL     1      50.487   1.623  16.907  0.00  0.00    +0.000 N 
ATOM     30  C   UNL     1      49.984   2.886  17.108  0.00  0.00    +0.000 A 
ATOM     31  O   UNL     1      48.834   3.170  16.799  0.00  0.00    +0.000 OA
ATOM     32  C   UNL     1      50.914   3.808  17.728  0.00  0.00    +0.000 A 
ATOM     33  H   UNL     1      49.865   0.960  16.472  0.00  0.00    +0.000 HD
ENDBRANCH  20  23
ENDBRANCH  18  19
ENDBRANCH   4  18
TORSDOF 6
ENDMDL
MODEL 8
REMARK VINA RESULT:    -7.174      2.681      4.342
REMARK INTER + INTRA:         -10.427
REMARK INTER:                  -9.449
REMARK INTRA:                  -0.978
REMARK UNBOUND:                -0.738
REMARK  Name = 
REMARK  6 active torsions:
REMARK  status: ('A' for Active; 'I' for Inactive)
REMARK    1  A    between atoms: C_6  and  C_7
REMARK    2  A    between atoms: C_7  and  O_8
REMARK    3  A    between atoms: O_8  and  C_9
REMARK    4  A    between atoms: C_12  and  C_13
REMARK    5  A    between atoms: C_13  and  N_14
REMARK    6  A    between atoms: C_15  and  C_17
REMARK                            x       y       z     vdW  Elec       q    Type
REMARK                         _______ _______ _______ _____ _____    ______ ____
ROOT
ATOM      1  C   UNL     1      46.098   5.646  12.520  0.00  0.00    +0.000 A 
ATOM      2  C   UNL     1      46.677   4.966  13.570  0.00  0.00    +0.000 A 
ATOM      3  N   UNL     1      47.743   5.417  14.268  0.00  0.00    +0.000 NA
ATOM      4  C   UNL     1      48.252   6.606  13.888  0.00  0.00    +0.000 A 
ATOM      5  N   UNL     1      47.814   7.313  12.824  0.00  0.00    +0.000 NA
ATOM      6  C   UNL     1      46.749   6.809  12.166  0.00  0.00    +0.000 A 
ENDROOT
BRANCH   1   7
ATOM      7  O   UNL     1      44.980   5.124  11.950  0.00  0.00    +0.000 OA
BRANCH   7   8
ATOM      8  C   UNL     1      44.780   5.513  10.584  0.00  0.00    +0.000 C 
BRANCH   8  14
ATOM      9  N   UNL     1      46.943   4.023   6.608  0.00  0.00    +0.000 N 
ATOM     10  C   UNL     1      46.180   3.675   7.719  0.00  0.00    +0.000 A 
ATOM     11  C   UNL     1      45.840   2.354   7.960  0.00  0.00    +0.000 A 
ATOM     12  C   UNL     1      45.092   2.048   9.093  0.00  0.00    +0.000 A 
ATOM     13  C   UNL     1      44.716   3.072   9.955  0.00  0.00    +0.000 A 
ATOM     14  C   UNL     1      45.110   4.371   9.653  0.00  0.00    +0.000 A 
ATOM     15  N   UNL     1      45.839   4.675   8.546  0.00  0.00    +0.000 NA
ATOM     16  H   UNL     1      46.527   3.681   5.749  0.00  0.00    +0.000 HD
ATOM     17  H   UNL     1      47.021   5.037   6.611  0.00  0.00    +0.000 HD
ENDBRANCH   8  14
ENDBRANCH   7   8
ENDBRANCH   1   7
BRANCH   4  18
ATOM     18  C   UNL     1      49.392   7.178  14.702  0.00  0.00    +0.000 C 
BRANCH  18  19
ATOM     19  N   UNL     1      49.225   6.993  16.127  0.00  0.00    +0.000 N 
ATOM     20  C   UNL     1      48.604   7.947  16.888  0.00  0.00    +0.000 C 
ATOM     21  O   UNL     1      48.162   8.979  16.391  0.00  0.00    +0.000 OA
ATOM     22  H   UNL     1      49.359   6.053  16.487  0.00  0.00    +0.000 HD
BRANCH  20  23
ATOM     23  C   UNL     1      48.569   7.721  18.338  0.00  0.00    +0.000 A 
ATOM     24  C   UNL     1      48.792   8.777  19.213  0.00  0.00    +0.000 A 
ATOM     25  S   UNL     1      49.007   8.282  20.831  0.00  0.00    +0.000 S 
ATOM     26  C   UNL     1      48.758   6.649  20.418  0.00  0.00    +0.000 A 
ATOM     27  N   UNL     1      48.912   5.656  21.334  0.00  0.00    +0.000 NA
ATOM     28  C   UNL     1      48.649   4.473  20.884  0.00  0.00    +0.000 A 
ATOM     29  N   UNL     1      48.199   4.200  19.618  0.00  0.00    +0.000 N 
ATOM     30  C   UNL     1      47.991   5.178  18.675  0.00  0.00    +0.000 A 
ATOM     31  O   UNL     1      47.482   4.921  17.592  0.00  0.00    +0.000 OA
ATOM     32  C   UNL     1      48.394   6.505  19.092  0.00  0.00    +0.000 A 
ATOM     33  H   UNL     1      47.933   3.264  19.354  0.00  0.00    +0.000 HD
ENDBRANCH  20  23
ENDBRANCH  18  19
ENDBRANCH   4  18
TORSDOF 6
ENDMDL
MODEL 9
REMARK VINA RESULT:    -7.099      2.971      4.386
REMARK INTER + INTRA:         -10.327
REMARK INTER:                  -9.419
REMARK INTRA:                  -0.907
REMARK UNBOUND:                -0.738
REMARK  Name = 
REMARK  6 active torsions:
REMARK  status: ('A' for Active; 'I' for Inactive)
REMARK    1  A    between atoms: C_6  and  C_7
REMARK    2  A    between atoms: C_7  and  O_8
REMARK    3  A    between atoms: O_8  and  C_9
REMARK    4  A    between atoms: C_12  and  C_13
REMARK    5  A    between atoms: C_13  and  N_14
REMARK    6  A    between atoms: C_15  and  C_17
REMARK                            x       y       z     vdW  Elec       q    Type
REMARK                         _______ _______ _______ _____ _____    ______ ____
ROOT
ATOM      1  C   UNL     1      45.590   5.228  12.471  0.00  0.00    +0.000 A 
ATOM      2  C   UNL     1      45.865   6.576  12.378  0.00  0.00    +0.000 A 
ATOM      3  N   UNL     1      46.820   7.204  13.100  0.00  0.00    +0.000 NA
ATOM      4  C   UNL     1      47.527   6.442  13.957  0.00  0.00    +0.000 A 
ATOM      5  N   UNL     1      47.284   5.133  14.185  0.00  0.00    +0.000 NA
ATOM      6  C   UNL     1      46.317   4.563  13.435  0.00  0.00    +0.000 A 
ENDROOT
BRANCH   1   7
ATOM      7  O   UNL     1      44.659   4.699  11.633  0.00  0.00    +0.000 OA
BRANCH   7   8
ATOM      8  C   UNL     1      44.739   5.182  10.286  0.00  0.00    +0.000 C 
BRANCH   8  14
ATOM      9  N   UNL     1      46.974   3.904   6.276  0.00  0.00    +0.000 N 
ATOM     10  C   UNL     1      46.265   3.485   7.399  0.00  0.00    +0.000 A 
ATOM     11  C   UNL     1      46.058   2.138   7.643  0.00  0.00    +0.000 A 
ATOM     12  C   UNL     1      45.359   1.762   8.788  0.00  0.00    +0.000 A 
ATOM     13  C   UNL     1      44.900   2.745   9.656  0.00  0.00    +0.000 A 
ATOM     14  C   UNL     1      45.163   4.076   9.349  0.00  0.00    +0.000 A 
ATOM     15  N   UNL     1      45.842   4.449   8.232  0.00  0.00    +0.000 NA
ATOM     16  H   UNL     1      46.580   3.524   5.423  0.00  0.00    +0.000 HD
ATOM     17  H   UNL     1      46.954   4.921   6.279  0.00  0.00    +0.000 HD
ENDBRANCH   8  14
ENDBRANCH   7   8
ENDBRANCH   1   7
BRANCH   4  18
ATOM     18  C   UNL     1      48.658   7.099  14.718  0.00  0.00    +0.000 C 
BRANCH  18  19
ATOM     19  N   UNL     1      48.551   6.937  16.151  0.00  0.00    +0.000 N 
ATOM     20  C   UNL     1      49.489   6.222  16.847  0.00  0.00    +0.000 C 
ATOM     21  O   UNL     1      50.451   5.706  16.285  0.00  0.00    +0.000 OA
ATOM     22  H   UNL     1      47.912   7.560  16.637  0.00  0.00    +0.000 HD
BRANCH  20  23
ATOM     23  C   UNL     1      49.245   6.026  18.281  0.00  0.00    +0.000 A 
ATOM     24  C   UNL     1      49.447   4.778  18.857  0.00  0.00    +0.000 A 
ATOM     25  S   UNL     1      48.838   4.659  20.446  0.00  0.00    +0.000 S 
ATOM     26  C   UNL     1      48.333   6.284  20.429  0.00  0.00    +0.000 A 
ATOM     27  N   UNL     1      47.623   6.816  21.460  0.00  0.00    +0.000 NA
ATOM     28  C   UNL     1      47.346   8.071  21.322  0.00  0.00    +0.000 A 
ATOM     29  N   UNL     1      47.758   8.852  20.273  0.00  0.00    +0.000 N 
ATOM     30  C   UNL     1      48.511   8.365  19.232  0.00  0.00    +0.000 A 
ATOM     31  O   UNL     1      48.959   9.106  18.368  0.00  0.00    +0.000 OA
ATOM     32  C   UNL     1      48.736   6.934  19.277  0.00  0.00    +0.000 A 
ATOM     33  H   UNL     1      47.579   9.845  20.266  0.00  0.00    +0.000 HD
ENDBRANCH  20  23
ENDBRANCH  18  19
ENDBRANCH   4  18
TORSDOF 6
ENDMDL
