MODEL 1
REMARK VINA RESULT:    -7.767      0.000      0.000
REMARK INTER + INTRA:         -11.670
REMARK INTER:                 -10.946
REMARK INTRA:                  -0.724
REMARK UNBOUND:                -0.724
REMARK  Name = 
REMARK  8 active torsions:
REMARK  status: ('A' for Active; 'I' for Inactive)
REMARK    1  A    between atoms: C_1  and  C_2
REMARK    2  A    between atoms: C_7  and  C_8
REMARK    3  A    between atoms: N_10  and  C_11
REMARK    4  A    between atoms: C_11  and  C_12
REMARK    5  A    between atoms: C_15  and  C_16
REMARK    6  A    between atoms: C_16  and  S_17
REMARK    7  A    between atoms: S_17  and  C_18
REMARK    8  A    between atoms: C_18  and  C_19
REMARK                            x       y       z     vdW  Elec       q    Type
REMARK                         _______ _______ _______ _____ _____    ______ ____
ROOT
ATOM      1  C   UNL     1      48.250   6.805  13.914  0.00  0.00    +0.000 C 
ENDROOT
BRANCH   1   2
ATOM      2  C   UNL     1      47.152   6.240  13.049  0.00  0.00    +0.000 A 
ATOM      3  C   UNL     1      46.589   4.998  13.363  0.00  0.00    +0.000 A 
ATOM      4  C   UNL     1      45.568   4.457  12.579  0.00  0.00    +0.000 A 
ATOM      5  C   UNL     1      45.067   5.147  11.464  0.00  0.00    +0.000 A 
ATOM      6  C   UNL     1      45.659   6.372  11.126  0.00  0.00    +0.000 A 
ATOM      7  C   UNL     1      46.689   6.915  11.911  0.00  0.00    +0.000 A 
BRANCH   5   8
ATOM      8  C   UNL     1      43.893   4.591  10.677  0.00  0.00    +0.000 C 
BRANCH   8   9
ATOM      9  S   UNL     1      44.418   3.130   9.701  0.00  0.00    +0.000 S 
BRANCH   9  10
ATOM     10  C   UNL     1      45.311   3.915   8.321  0.00  0.00    +0.000 C 
BRANCH  10  11
ATOM     11  C   UNL     1      46.086   2.880   7.543  0.00  0.00    +0.000 A 
ATOM     12  C   UNL     1      46.598   3.155   6.269  0.00  0.00    +0.000 A 
ATOM     13  C   UNL     1      47.281   2.166   5.564  0.00  0.00    +0.000 A 
ATOM     14  C   UNL     1      47.430   0.923   6.155  0.00  0.00    +0.000 A 
ATOM     15  N   UNL     1      46.948   0.613   7.376  0.00  0.00    +0.000 NA
ATOM     16  C   UNL     1      46.280   1.591   8.035  0.00  0.00    +0.000 A 
ENDBRANCH  10  11
ENDBRANCH   9  10
ENDBRANCH   8   9
ENDBRANCH   5   8
ENDBRANCH   1   2
BRANCH   1  19
ATOM     17  C   UNL     1      49.180   6.187  16.092  0.00  0.00    +0.000 C 
ATOM     18  O   UNL     1      50.330   6.288  15.683  0.00  0.00    +0.000 OA
ATOM     19  N   UNL     1      48.082   6.410  15.293  0.00  0.00    +0.000 N 
ATOM     20  H   UNL     1      47.213   6.642  15.752  0.00  0.00    +0.000 HD
BRANCH  17  27
ATOM     21  C   UNL     1      47.415   5.505  22.086  0.00  0.00    +0.000 C 
ATOM     22  C   UNL     1      47.693   6.363  20.892  0.00  0.00    +0.000 A 
ATOM     23  N   UNL     1      47.426   7.692  20.987  0.00  0.00    +0.000 NA
ATOM     24  C   UNL     1      47.626   8.493  19.921  0.00  0.00    +0.000 A 
ATOM     25  C   UNL     1      48.100   8.067  18.689  0.00  0.00    +0.000 A 
ATOM     26  C   UNL     1      48.401   6.703  18.559  0.00  0.00    +0.000 A 
ATOM     27  C   UNL     1      48.869   5.864  17.486  0.00  0.00    +0.000 A 
ATOM     28  C   UNL     1      48.928   4.576  17.995  0.00  0.00    +0.000 A 
ATOM     29  N   UNL     1      48.529   4.601  19.301  0.00  0.00    +0.000 N 
ATOM     30  C   UNL     1      48.188   5.881  19.672  0.00  0.00    +0.000 A 
ATOM     31  H   UNL     1      48.468   3.792  19.904  0.00  0.00    +0.000 HD
ENDBRANCH  17  27
ENDBRANCH   1  19
TORSDOF 7
ENDMDL
MODEL 2
REMARK VINA RESULT:    -7.494      1.516      2.253
REMARK INTER + INTRA:         -11.284
REMARK INTER:                 -10.347
REMARK INTRA:                  -0.937
REMARK UNBOUND:                -0.724
REMARK  Name = 
REMARK  8 active torsions:
REMARK  status: ('A' for Active; 'I' for Inactive)
REMARK    1  A    between atoms: C_1  and  C_2
REMARK    2  A    between atoms: C_7  and  C_8
REMARK    3  A    between atoms: N_10  and  C_11
REMARK    4  A    between atoms: C_11  and  C_12
REMARK    5  A    between atoms: C_15  and  C_16
REMARK    6  A    between atoms: C_16  and  S_17
REMARK    7  A    between atoms: S_17  and  C_18
REMARK    8  A    between atoms: C_18  and  C_19
REMARK                            x       y       z     vdW  Elec       q    Type
REMARK                         _______ _______ _______ _____ _____    ______ ____
ROOT
ATOM      1  C   UNL     1      48.703   7.259  13.116  0.00  0.00    +0.000 C 
ENDROOT
BRANCH   1   2
ATOM      2  C   UNL     1      47.406   6.608  12.705  0.00  0.00    +0.000 A 
ATOM      3  C   UNL     1      46.659   7.150  11.654  0.00  0.00    +0.000 A 
ATOM      4  C   UNL     1      45.457   6.562  11.253  0.00  0.00    +0.000 A 
ATOM      5  C   UNL     1      44.971   5.404  11.882  0.00  0.00    +0.000 A 
ATOM      6  C   UNL     1      45.700   4.885  12.962  0.00  0.00    +0.000 A 
ATOM      7  C   UNL     1      46.906   5.479  13.368  0.00  0.00    +0.000 A 
BRANCH   5   8
ATOM      8  C   UNL     1      43.713   4.721  11.374  0.00  0.00    +0.000 C 
BRANCH   8   9
ATOM      9  S   UNL     1      44.146   3.193  10.458  0.00  0.00    +0.000 S 
BRANCH   9  10
ATOM     10  C   UNL     1      44.631   3.864   8.836  0.00  0.00    +0.000 C 
BRANCH  10  11
ATOM     11  C   UNL     1      45.674   2.982   8.195  0.00  0.00    +0.000 A 
ATOM     12  C   UNL     1      46.565   3.480   7.236  0.00  0.00    +0.000 A 
ATOM     13  C   UNL     1      47.494   2.631   6.640  0.00  0.00    +0.000 A 
ATOM     14  C   UNL     1      47.505   1.300   7.019  0.00  0.00    +0.000 A 
ATOM     15  N   UNL     1      46.661   0.777   7.932  0.00  0.00    +0.000 NA
ATOM     16  C   UNL     1      45.762   1.623   8.489  0.00  0.00    +0.000 A 
ENDBRANCH  10  11
ENDBRANCH   9  10
ENDBRANCH   8   9
ENDBRANCH   5   8
ENDBRANCH   1   2
BRANCH   1  19
ATOM     17  C   UNL     1      48.713   7.845  15.492  0.00  0.00    +0.000 C 
ATOM     18  O   UNL     1      48.181   8.926  15.277  0.00  0.00    +0.000 OA
ATOM     19  N   UNL     1      49.025   6.954  14.490  0.00  0.00    +0.000 N 
ATOM     20  H   UNL     1      49.136   5.984  14.749  0.00  0.00    +0.000 HD
BRANCH  17  27
ATOM     21  C   UNL     1      49.936   5.090  21.008  0.00  0.00    +0.000 C 
ATOM     22  C   UNL     1      49.286   5.092  19.660  0.00  0.00    +0.000 A 
ATOM     23  N   UNL     1      48.629   3.968  19.269  0.00  0.00    +0.000 NA
ATOM     24  C   UNL     1      48.064   3.914  18.046  0.00  0.00    +0.000 A 
ATOM     25  C   UNL     1      48.091   4.944  17.116  0.00  0.00    +0.000 A 
ATOM     26  C   UNL     1      48.747   6.126  17.492  0.00  0.00    +0.000 A 
ATOM     27  C   UNL     1      49.028   7.380  16.845  0.00  0.00    +0.000 A 
ATOM     28  C   UNL     1      49.759   8.132  17.752  0.00  0.00    +0.000 A 
ATOM     29  N   UNL     1      49.925   7.402  18.894  0.00  0.00    +0.000 N 
ATOM     30  C   UNL     1      49.331   6.168  18.764  0.00  0.00    +0.000 A 
ATOM     31  H   UNL     1      50.434   7.712  19.711  0.00  0.00    +0.000 HD
ENDBRANCH  17  27
ENDBRANCH   1  19
TORSDOF 7
ENDMDL
MODEL 3
REMARK VINA RESULT:    -7.410      1.241      1.785
REMARK INTER + INTRA:         -11.167
REMARK INTER:                 -10.505
REMARK INTRA:                  -0.662
REMARK UNBOUND:                -0.724
REMARK  Name = 
REMARK  8 active torsions:
REMARK  status: ('A' for Active; 'I' for Inactive)
REMARK    1  A    between atoms: C_1  and  C_2
REMARK    2  A    between atoms: C_7  and  C_8
REMARK    3  A    between atoms: N_10  and  C_11
REMARK    4  A    between atoms: C_11  and  C_12
REMARK    5  A    between atoms: C_15  and  C_16
REMARK    6  A    between atoms: C_16  and  S_17
REMARK    7  A    between atoms: S_17  and  C_18
REMARK    8  A    between atoms: C_18  and  C_19
REMARK                            x       y       z     vdW  Elec       q    Type
REMARK                         _______ _______ _______ _____ _____    ______ ____
ROOT
ATOM      1  C   UNL     1      48.516   6.788  13.868  0.00  0.00    +0.000 C 
ENDROOT
BRANCH   1   2
ATOM      2  C   UNL     1      47.355   6.180  13.122  0.00  0.00    +0.000 A 
ATOM      3  C   UNL     1      46.772   4.997  13.589  0.00  0.00    +0.000 A 
ATOM      4  C   UNL     1      45.693   4.418  12.917  0.00  0.00    +0.000 A 
ATOM      5  C   UNL     1      45.154   5.011  11.765  0.00  0.00    +0.000 A 
ATOM      6  C   UNL     1      45.764   6.174  11.274  0.00  0.00    +0.000 A 
ATOM      7  C   UNL     1      46.853   6.754  11.947  0.00  0.00    +0.000 A 
BRANCH   5   8
ATOM      8  C   UNL     1      43.921   4.422  11.099  0.00  0.00    +0.000 C 
BRANCH   8   9
ATOM      9  S   UNL     1      44.397   3.037   9.996  0.00  0.00    +0.000 S 
BRANCH   9  10
ATOM     10  C   UNL     1      45.102   3.928   8.573  0.00  0.00    +0.000 C 
BRANCH  10  11
ATOM     11  C   UNL     1      45.934   2.994   7.730  0.00  0.00    +0.000 A 
ATOM     12  C   UNL     1      46.239   1.696   8.159  0.00  0.00    +0.000 A 
ATOM     13  C   UNL     1      47.038   0.871   7.370  0.00  0.00    +0.000 A 
ATOM     14  C   UNL     1      47.515   1.371   6.171  0.00  0.00    +0.000 A 
ATOM     15  N   UNL     1      47.253   2.616   5.723  0.00  0.00    +0.000 NA
ATOM     16  C   UNL     1      46.481   3.400   6.514  0.00  0.00    +0.000 A 
ENDBRANCH  10  11
ENDBRANCH   9  10
ENDBRANCH   8   9
ENDBRANCH   5   8
ENDBRANCH   1   2
BRANCH   1  19
ATOM     17  C   UNL     1      48.857   6.577  16.283  0.00  0.00    +0.000 C 
ATOM     18  O   UNL     1      49.796   5.806  16.130  0.00  0.00    +0.000 OA
ATOM     19  N   UNL     1      48.150   7.108  15.228  0.00  0.00    +0.000 N 
ATOM     20  H   UNL     1      47.640   7.964  15.394  0.00  0.00    +0.000 HD
BRANCH  17  27
ATOM     21  C   UNL     1      46.745   9.245  21.568  0.00  0.00    +0.000 C 
ATOM     22  C   UNL     1      47.243   9.341  20.160  0.00  0.00    +0.000 A 
ATOM     23  N   UNL     1      47.255  10.567  19.572  0.00  0.00    +0.000 NA
ATOM     24  C   UNL     1      47.660  10.691  18.292  0.00  0.00    +0.000 A 
ATOM     25  C   UNL     1      48.085   9.641  17.491  0.00  0.00    +0.000 A 
ATOM     26  C   UNL     1      48.102   8.363  18.071  0.00  0.00    +0.000 A 
ATOM     27  C   UNL     1      48.428   7.041  17.603  0.00  0.00    +0.000 A 
ATOM     28  C   UNL     1      48.198   6.184  18.668  0.00  0.00    +0.000 A 
ATOM     29  N   UNL     1      47.760   6.916  19.735  0.00  0.00    +0.000 N 
ATOM     30  C   UNL     1      47.677   8.247  19.399  0.00  0.00    +0.000 A 
ATOM     31  H   UNL     1      47.507   6.533  20.636  0.00  0.00    +0.000 HD
ENDBRANCH  17  27
ENDBRANCH   1  19
TORSDOF 7
ENDMDL
MODEL 4
REMARK VINA RESULT:    -7.328      4.389      8.613
REMARK INTER + INTRA:         -11.050
REMARK INTER:                  -9.332
REMARK INTRA:                  -1.719
REMARK UNBOUND:                -0.724
REMARK  Name = 
REMARK  8 active torsions:
REMARK  status: ('A' for Active; 'I' for Inactive)
REMARK    1  A    between atoms: C_1  and  C_2
REMARK    2  A    between atoms: C_7  and  C_8
REMARK    3  A    between atoms: N_10  and  C_11
REMARK    4  A    between atoms: C_11  and  C_12
REMARK    5  A    between atoms: C_15  and  C_16
REMARK    6  A    between atoms: C_16  and  S_17
REMARK    7  A    between atoms: S_17  and  C_18
REMARK    8  A    between atoms: C_18  and  C_19
REMARK                            x       y       z     vdW  Elec       q    Type
REMARK                         _______ _______ _______ _____ _____    ______ ____
ROOT
ATOM      1  C   UNL     1      48.646   8.391  14.860  0.00  0.00    +0.000 C 
ENDROOT
BRANCH   1   2
ATOM      2  C   UNL     1      49.515   7.933  16.004  0.00  0.00    +0.000 A 
ATOM      3  C   UNL     1      49.020   7.972  17.312  0.00  0.00    +0.000 A 
ATOM      4  C   UNL     1      49.806   7.549  18.387  0.00  0.00    +0.000 A 
ATOM      5  C   UNL     1      51.106   7.059  18.186  0.00  0.00    +0.000 A 
ATOM      6  C   UNL     1      51.616   7.059  16.880  0.00  0.00    +0.000 A 
ATOM      7  C   UNL     1      50.829   7.489  15.799  0.00  0.00    +0.000 A 
BRANCH   5   8
ATOM      8  C   UNL     1      51.913   6.514  19.351  0.00  0.00    +0.000 C 
BRANCH   8   9
ATOM      9  S   UNL     1      51.248   4.889  19.879  0.00  0.00    +0.000 S 
BRANCH   9  10
ATOM     10  C   UNL     1      51.785   3.813  18.512  0.00  0.00    +0.000 C 
BRANCH  10  11
ATOM     11  C   UNL     1      50.589   3.309  17.741  0.00  0.00    +0.000 A 
ATOM     12  C   UNL     1      49.340   3.935  17.836  0.00  0.00    +0.000 A 
ATOM     13  C   UNL     1      48.249   3.424  17.137  0.00  0.00    +0.000 A 
ATOM     14  C   UNL     1      48.437   2.293  16.362  0.00  0.00    +0.000 A 
ATOM     15  N   UNL     1      49.620   1.654  16.248  0.00  0.00    +0.000 NA
ATOM     16  C   UNL     1      50.662   2.168  16.946  0.00  0.00    +0.000 A 
ENDBRANCH  10  11
ENDBRANCH   9  10
ENDBRANCH   8   9
ENDBRANCH   5   8
ENDBRANCH   1   2
BRANCH   1  19
ATOM     17  C   UNL     1      47.971   6.482  13.485  0.00  0.00    +0.000 C 
ATOM     18  O   UNL     1      49.013   6.516  12.843  0.00  0.00    +0.000 OA
ATOM     19  N   UNL     1      47.688   7.374  14.495  0.00  0.00    +0.000 N 
ATOM     20  H   UNL     1      47.005   7.094  15.184  0.00  0.00    +0.000 HD
BRANCH  17  27
ATOM     21  C   UNL     1      43.302   2.570  11.936  0.00  0.00    +0.000 C 
ATOM     22  C   UNL     1      43.909   3.937  11.967  0.00  0.00    +0.000 A 
ATOM     23  N   UNL     1      43.252   4.940  11.328  0.00  0.00    +0.000 NA
ATOM     24  C   UNL     1      43.785   6.178  11.299  0.00  0.00    +0.000 A 
ATOM     25  C   UNL     1      44.991   6.534  11.886  0.00  0.00    +0.000 A 
ATOM     26  C   UNL     1      45.689   5.527  12.569  0.00  0.00    +0.000 A 
ATOM     27  C   UNL     1      46.947   5.459  13.267  0.00  0.00    +0.000 A 
ATOM     28  C   UNL     1      47.087   4.146  13.689  0.00  0.00    +0.000 A 
ATOM     29  N   UNL     1      45.992   3.436  13.288  0.00  0.00    +0.000 N 
ATOM     30  C   UNL     1      45.126   4.246  12.590  0.00  0.00    +0.000 A 
ATOM     31  H   UNL     1      45.846   2.450  13.457  0.00  0.00    +0.000 HD
ENDBRANCH  17  27
ENDBRANCH   1  19
TORSDOF 7
ENDMDL
MODEL 5
REMARK VINA RESULT:    -7.294      3.221      9.919
REMARK INTER + INTRA:         -11.003
REMARK INTER:                 -10.159
REMARK INTRA:                  -0.844
REMARK UNBOUND:                -0.724
REMARK  Name = 
REMARK  8 active torsions:
REMARK  status: ('A' for Active; 'I' for Inactive)
REMARK    1  A    between atoms: C_1  and  C_2
REMARK    2  A    between atoms: C_7  and  C_8
REMARK    3  A    between atoms: N_10  and  C_11
REMARK    4  A    between atoms: C_11  and  C_12
REMARK    5  A    between atoms: C_15  and  C_16
REMARK    6  A    between atoms: C_16  and  S_17
REMARK    7  A    between atoms: S_17  and  C_18
REMARK    8  A    between atoms: C_18  and  C_19
REMARK                            x       y       z     vdW  Elec       q    Type
REMARK                         _______ _______ _______ _____ _____    ______ ____
ROOT
ATOM      1  C   UNL     1      45.021   6.869  11.351  0.00  0.00    +0.000 C 
ENDROOT
BRANCH   1   2
ATOM      2  C   UNL     1      46.110   7.280  12.309  0.00  0.00    +0.000 A 
ATOM      3  C   UNL     1      46.187   8.606  12.747  0.00  0.00    +0.000 A 
ATOM      4  C   UNL     1      47.184   9.010  13.638  0.00  0.00    +0.000 A 
ATOM      5  C   UNL     1      48.129   8.095  14.130  0.00  0.00    +0.000 A 
ATOM      6  C   UNL     1      48.077   6.775  13.660  0.00  0.00    +0.000 A 
ATOM      7  C   UNL     1      47.077   6.371  12.760  0.00  0.00    +0.000 A 
BRANCH   5   8
ATOM      8  C   UNL     1      49.149   8.525  15.171  0.00  0.00    +0.000 C 
BRANCH   8   9
ATOM      9  S   UNL     1      49.965   7.056  15.905  0.00  0.00    +0.000 S 
BRANCH   9  10
ATOM     10  C   UNL     1      48.977   6.806  17.414  0.00  0.00    +0.000 C 
BRANCH  10  11
ATOM     11  C   UNL     1      48.462   5.389  17.473  0.00  0.00    +0.000 A 
ATOM     12  C   UNL     1      48.896   4.493  18.458  0.00  0.00    +0.000 A 
ATOM     13  C   UNL     1      48.426   3.182  18.464  0.00  0.00    +0.000 A 
ATOM     14  C   UNL     1      47.532   2.801  17.478  0.00  0.00    +0.000 A 
ATOM     15  N   UNL     1      47.093   3.628  16.507  0.00  0.00    +0.000 NA
ATOM     16  C   UNL     1      47.574   4.895  16.520  0.00  0.00    +0.000 A 
ENDBRANCH  10  11
ENDBRANCH   9  10
ENDBRANCH   8   9
ENDBRANCH   5   8
ENDBRANCH   1   2
BRANCH   1  19
ATOM     17  C   UNL     1      44.279   4.817  10.240  0.00  0.00    +0.000 C 
ATOM     18  O   UNL     1      43.110   5.180  10.247  0.00  0.00    +0.000 OA
ATOM     19  N   UNL     1      45.298   5.574  10.773  0.00  0.00    +0.000 N 
ATOM     20  H   UNL     1      46.235   5.391  10.443  0.00  0.00    +0.000 HD
BRANCH  17  27
ATOM     21  C   UNL     1      46.779  -0.160   7.328  0.00  0.00    +0.000 C 
ATOM     22  C   UNL     1      46.628   1.319   7.497  0.00  0.00    +0.000 A 
ATOM     23  N   UNL     1      47.403   2.130   6.730  0.00  0.00    +0.000 NA
ATOM     24  C   UNL     1      47.326   3.468   6.880  0.00  0.00    +0.000 A 
ATOM     25  C   UNL     1      46.492   4.116   7.780  0.00  0.00    +0.000 A 
ATOM     26  C   UNL     1      45.665   3.310   8.577  0.00  0.00    +0.000 A 
ATOM     27  C   UNL     1      44.708   3.561   9.623  0.00  0.00    +0.000 A 
ATOM     28  C   UNL     1      44.253   2.319  10.040  0.00  0.00    +0.000 A 
ATOM     29  N   UNL     1      44.878   1.353   9.306  0.00  0.00    +0.000 N 
ATOM     30  C   UNL     1      45.756   1.923   8.413  0.00  0.00    +0.000 A 
ATOM     31  H   UNL     1      44.737   0.358   9.417  0.00  0.00    +0.000 HD
ENDBRANCH  17  27
ENDBRANCH   1  19
TORSDOF 7
ENDMDL
MODEL 6
REMARK VINA RESULT:    -7.083      4.424      8.539
REMARK INTER + INTRA:         -10.705
REMARK INTER:                  -8.893
REMARK INTRA:                  -1.812
REMARK UNBOUND:                -0.724
REMARK  Name = 
REMARK  8 active torsions:
REMARK  status: ('A' for Active; 'I' for Inactive)
REMARK    1  A    between atoms: C_1  and  C_2
REMARK    2  A    between atoms: C_7  and  C_8
REMARK    3  A    between atoms: N_10  and  C_11
REMARK    4  A    between atoms: C_11  and  C_12
REMARK    5  A    between atoms: C_15  and  C_16
REMARK    6  A    between atoms: C_16  and  S_17
REMARK    7  A    between atoms: S_17  and  C_18
REMARK    8  A    between atoms: C_18  and  C_19
REMARK                            x       y       z     vdW  Elec       q    Type
REMARK                         _______ _______ _______ _____ _____    ______ ____
ROOT
ATOM      1  C   UNL     1      48.611   9.650  15.416  0.00  0.00    +0.000 C 
ENDROOT
BRANCH   1   2
ATOM      2  C   UNL     1      49.126   8.876  16.603  0.00  0.00    +0.000 A 
ATOM      3  C   UNL     1      50.487   8.563  16.691  0.00  0.00    +0.000 A 
ATOM      4  C   UNL     1      50.987   7.850  17.783  0.00  0.00    +0.000 A 
ATOM      5  C   UNL     1      50.145   7.441  18.829  0.00  0.00    +0.000 A 
ATOM      6  C   UNL     1      48.775   7.719  18.720  0.00  0.00    +0.000 A 
ATOM      7  C   UNL     1      48.271   8.432  17.620  0.00  0.00    +0.000 A 
BRANCH   5   8
ATOM      8  C   UNL     1      50.718   6.750  20.055  0.00  0.00    +0.000 C 
BRANCH   8   9
ATOM      9  S   UNL     1      50.184   4.996  20.103  0.00  0.00    +0.000 S 
BRANCH   9  10
ATOM     10  C   UNL     1      51.026   4.318  18.638  0.00  0.00    +0.000 C 
BRANCH  10  11
ATOM     11  C   UNL     1      50.028   3.652  17.722  0.00  0.00    +0.000 A 
ATOM     12  C   UNL     1      48.729   4.151  17.568  0.00  0.00    +0.000 A 
ATOM     13  C   UNL     1      47.823   3.492  16.740  0.00  0.00    +0.000 A 
ATOM     14  C   UNL     1      48.243   2.345  16.088  0.00  0.00    +0.000 A 
ATOM     15  N   UNL     1      49.482   1.826  16.213  0.00  0.00    +0.000 NA
ATOM     16  C   UNL     1      50.339   2.482  17.032  0.00  0.00    +0.000 A 
ENDBRANCH  10  11
ENDBRANCH   9  10
ENDBRANCH   8   9
ENDBRANCH   5   8
ENDBRANCH   1   2
BRANCH   1  19
ATOM     17  C   UNL     1      47.713   8.268  13.606  0.00  0.00    +0.000 C 
ATOM     18  O   UNL     1      48.797   8.223  13.039  0.00  0.00    +0.000 OA
ATOM     19  N   UNL     1      47.514   8.959  14.780  0.00  0.00    +0.000 N 
ATOM     20  H   UNL     1      46.729   8.685  15.353  0.00  0.00    +0.000 HD
BRANCH  17  27
ATOM     21  C   UNL     1      42.934   4.555  11.909  0.00  0.00    +0.000 C 
ATOM     22  C   UNL     1      44.337   4.745  12.392  0.00  0.00    +0.000 A 
ATOM     23  N   UNL     1      45.053   3.638  12.721  0.00  0.00    +0.000 NA
ATOM     24  C   UNL     1      46.308   3.768  13.198  0.00  0.00    +0.000 A 
ATOM     25  C   UNL     1      46.960   4.978  13.388  0.00  0.00    +0.000 A 
ATOM     26  C   UNL     1      46.257   6.142  13.043  0.00  0.00    +0.000 A 
ATOM     27  C   UNL     1      46.536   7.553  13.109  0.00  0.00    +0.000 A 
ATOM     28  C   UNL     1      45.399   8.197  12.646  0.00  0.00    +0.000 A 
ATOM     29  N   UNL     1      44.468   7.257  12.308  0.00  0.00    +0.000 N 
ATOM     30  C   UNL     1      44.955   5.994  12.551  0.00  0.00    +0.000 A 
ATOM     31  H   UNL     1      43.543   7.458  11.954  0.00  0.00    +0.000 HD
ENDBRANCH  17  27
ENDBRANCH   1  19
TORSDOF 7
ENDMDL
MODEL 7
REMARK VINA RESULT:    -6.934      1.664      1.994
REMARK INTER + INTRA:         -10.495
REMARK INTER:                  -9.674
REMARK INTRA:                  -0.821
REMARK UNBOUND:                -0.724
REMARK  Name = 
REMARK  8 active torsions:
REMARK  status: ('A' for Active; 'I' for Inactive)
REMARK    1  A    between atoms: C_1  and  C_2
REMARK    2  A    between atoms: C_7  and  C_8
REMARK    3  A    between atoms: N_10  and  C_11
REMARK    4  A    between atoms: C_11  and  C_12
REMARK    5  A    between atoms: C_15  and  C_16
REMARK    6  A    between atoms: C_16  and  S_17
REMARK    7  A    between atoms: S_17  and  C_18
REMARK    8  A    between atoms: C_18  and  C_19
REMARK                            x       y       z     vdW  Elec       q    Type
REMARK                         _______ _______ _______ _____ _____    ______ ____
ROOT
ATOM      1  C   UNL     1      48.503   6.680  14.194  0.00  0.00    +0.000 C 
ENDROOT
BRANCH   1   2
ATOM      2  C   UNL     1      47.189   6.150  13.679  0.00  0.00    +0.000 A 
ATOM      3  C   UNL     1      46.880   4.794  13.829  0.00  0.00    +0.000 A 
ATOM      4  C   UNL     1      45.666   4.281  13.364  0.00  0.00    +0.000 A 
ATOM      5  C   UNL     1      44.717   5.111  12.747  0.00  0.00    +0.000 A 
ATOM      6  C   UNL     1      45.045   6.462  12.560  0.00  0.00    +0.000 A 
ATOM      7  C   UNL     1      46.267   6.977  13.024  0.00  0.00    +0.000 A 
BRANCH   5   8
ATOM      8  C   UNL     1      43.364   4.559  12.332  0.00  0.00    +0.000 C 
BRANCH   8   9
ATOM      9  S   UNL     1      43.574   3.255  11.060  0.00  0.00    +0.000 S 
BRANCH   9  10
ATOM     10  C   UNL     1      44.244   4.211   9.663  0.00  0.00    +0.000 C 
BRANCH  10  11
ATOM     11  C   UNL     1      45.195   3.362   8.855  0.00  0.00    +0.000 A 
ATOM     12  C   UNL     1      45.980   3.911   7.834  0.00  0.00    +0.000 A 
ATOM     13  C   UNL     1      46.823   3.092   7.085  0.00  0.00    +0.000 A 
ATOM     14  C   UNL     1      46.853   1.740   7.377  0.00  0.00    +0.000 A 
ATOM     15  N   UNL     1      46.108   1.167   8.346  0.00  0.00    +0.000 NA
ATOM     16  C   UNL     1      45.291   1.986   9.052  0.00  0.00    +0.000 A 
ENDBRANCH  10  11
ENDBRANCH   9  10
ENDBRANCH   8   9
ENDBRANCH   5   8
ENDBRANCH   1   2
BRANCH   1  19
ATOM     17  C   UNL     1      48.853   6.124  16.551  0.00  0.00    +0.000 C 
ATOM     18  O   UNL     1      49.307   5.022  16.273  0.00  0.00    +0.000 OA
ATOM     19  N   UNL     1      48.416   7.014  15.596  0.00  0.00    +0.000 N 
ATOM     20  H   UNL     1      48.381   7.990  15.852  0.00  0.00    +0.000 HD
BRANCH  17  27
ATOM     21  C   UNL     1      49.102   8.779  22.243  0.00  0.00    +0.000 C 
ATOM     22  C   UNL     1      49.724   8.451  20.923  0.00  0.00    +0.000 A 
ATOM     23  N   UNL     1      50.953   8.965  20.653  0.00  0.00    +0.000 NA
ATOM     24  C   UNL     1      51.532   8.726  19.459  0.00  0.00    +0.000 A 
ATOM     25  C   UNL     1      50.965   7.971  18.442  0.00  0.00    +0.000 A 
ATOM     26  C   UNL     1      49.703   7.410  18.692  0.00  0.00    +0.000 A 
ATOM     27  C   UNL     1      48.776   6.616  17.928  0.00  0.00    +0.000 A 
ATOM     28  C   UNL     1      47.671   6.418  18.742  0.00  0.00    +0.000 A 
ATOM     29  N   UNL     1      47.888   7.041  19.937  0.00  0.00    +0.000 N 
ATOM     30  C   UNL     1      49.112   7.668  19.934  0.00  0.00    +0.000 A 
ATOM     31  H   UNL     1      47.232   7.063  20.707  0.00  0.00    +0.000 HD
ENDBRANCH  17  27
ENDBRANCH   1  19
TORSDOF 7
ENDMDL
MODEL 8
REMARK VINA RESULT:    -6.923      4.863      9.292
REMARK INTER + INTRA:         -10.480
REMARK INTER:                  -9.128
REMARK INTRA:                  -1.352
REMARK UNBOUND:                -0.724
REMARK  Name = 
REMARK  8 active torsions:
REMARK  status: ('A' for Active; 'I' for Inactive)
REMARK    1  A    between atoms: C_1  and  C_2
REMARK    2  A    between atoms: C_7  and  C_8
REMARK    3  A    between atoms: N_10  and  C_11
REMARK    4  A    between atoms: C_11  and  C_12
REMARK    5  A    between atoms: C_15  and  C_16
REMARK    6  A    between atoms: C_16  and  S_17
REMARK    7  A    between atoms: S_17  and  C_18
REMARK    8  A    between atoms: C_18  and  C_19
REMARK                            x       y       z     vdW  Elec       q    Type
REMARK                         _______ _______ _______ _____ _____    ______ ____
ROOT
ATOM      1  C   UNL     1      47.294   3.930  15.622  0.00  0.00    +0.000 C 
ENDROOT
BRANCH   1   2
ATOM      2  C   UNL     1      48.068   4.557  16.754  0.00  0.00    +0.000 A 
ATOM      3  C   UNL     1      48.005   3.995  18.034  0.00  0.00    +0.000 A 
ATOM      4  C   UNL     1      48.717   4.556  19.097  0.00  0.00    +0.000 A 
ATOM      5  C   UNL     1      49.525   5.689  18.911  0.00  0.00    +0.000 A 
ATOM      6  C   UNL     1      49.555   6.276  17.637  0.00  0.00    +0.000 A 
ATOM      7  C   UNL     1      48.835   5.715  16.569  0.00  0.00    +0.000 A 
BRANCH   5   8
ATOM      8  C   UNL     1      50.367   6.232  20.052  0.00  0.00    +0.000 C 
BRANCH   8   9
ATOM      9  S   UNL     1      51.603   4.983  20.578  0.00  0.00    +0.000 S 
BRANCH   9  10
ATOM     10  C   UNL     1      52.616   4.817  19.074  0.00  0.00    +0.000 C 
BRANCH  10  11
ATOM     11  C   UNL     1      52.582   3.393  18.574  0.00  0.00    +0.000 A 
ATOM     12  C   UNL     1      51.553   2.933  17.744  0.00  0.00    +0.000 A 
ATOM     13  C   UNL     1      51.533   1.604  17.328  0.00  0.00    +0.000 A 
ATOM     14  C   UNL     1      52.548   0.767  17.759  0.00  0.00    +0.000 A 
ATOM     15  N   UNL     1      53.555   1.166  18.564  0.00  0.00    +0.000 NA
ATOM     16  C   UNL     1      53.543   2.461  18.961  0.00  0.00    +0.000 A 
ENDBRANCH  10  11
ENDBRANCH   9  10
ENDBRANCH   8   9
ENDBRANCH   5   8
ENDBRANCH   1   2
BRANCH   1  19
ATOM     17  C   UNL     1      46.052   4.600  13.622  0.00  0.00    +0.000 C 
ATOM     18  O   UNL     1      46.081   3.464  13.166  0.00  0.00    +0.000 OA
ATOM     19  N   UNL     1      46.634   4.936  14.823  0.00  0.00    +0.000 N 
ATOM     20  H   UNL     1      46.294   5.766  15.288  0.00  0.00    +0.000 HD
BRANCH  17  27
ATOM     21  C   UNL     1      43.795   9.688  10.703  0.00  0.00    +0.000 C 
ATOM     22  C   UNL     1      44.818   9.019  11.566  0.00  0.00    +0.000 A 
ATOM     23  N   UNL     1      45.898   9.747  11.954  0.00  0.00    +0.000 NA
ATOM     24  C   UNL     1      46.862   9.170  12.699  0.00  0.00    +0.000 A 
ATOM     25  C   UNL     1      46.849   7.849  13.124  0.00  0.00    +0.000 A 
ATOM     26  C   UNL     1      45.741   7.072  12.756  0.00  0.00    +0.000 A 
ATOM     27  C   UNL     1      45.356   5.698  12.950  0.00  0.00    +0.000 A 
ATOM     28  C   UNL     1      44.144   5.537  12.295  0.00  0.00    +0.000 A 
ATOM     29  N   UNL     1      43.789   6.729  11.730  0.00  0.00    +0.000 N 
ATOM     30  C   UNL     1      44.748   7.682  11.981  0.00  0.00    +0.000 A 
ATOM     31  H   UNL     1      42.953   6.884  11.182  0.00  0.00    +0.000 HD
ENDBRANCH  17  27
ENDBRANCH   1  19
TORSDOF 7
ENDMDL
MODEL 9
REMARK VINA RESULT:    -6.799      4.621     10.248
REMARK INTER + INTRA:         -10.304
REMARK INTER:                  -8.715
REMARK INTRA:                  -1.590
REMARK UNBOUND:                -0.724
REMARK  Name = 
REMARK  8 active torsions:
REMARK  status: ('A' for Active; 'I' for Inactive)
REMARK    1  A    between atoms: C_1  and  C_2
REMARK    2  A    between atoms: C_7  and  C_8
REMARK    3  A    between atoms: N_10  and  C_11
REMARK    4  A    between atoms: C_11  and  C_12
REMARK    5  A    between atoms: C_15  and  C_16
REMARK    6  A    between atoms: C_16  and  S_17
REMARK    7  A    between atoms: S_17  and  C_18
REMARK    8  A    between atoms: C_18  and  C_19
REMARK                            x       y       z     vdW  Elec       q    Type
REMARK                         _______ _______ _______ _____ _____    ______ ____
ROOT
ATOM      1  C   UNL     1      47.405   3.535  16.815  0.00  0.00    +0.000 C 
ENDROOT
BRANCH   1   2
ATOM      2  C   UNL     1      48.870   3.720  17.122  0.00  0.00    +0.000 A 
ATOM      3  C   UNL     1      49.424   5.005  17.118  0.00  0.00    +0.000 A 
ATOM      4  C   UNL     1      50.777   5.201  17.404  0.00  0.00    +0.000 A 
ATOM      5  C   UNL     1      51.616   4.119  17.715  0.00  0.00    +0.000 A 
ATOM      6  C   UNL     1      51.070   2.829  17.679  0.00  0.00    +0.000 A 
ATOM      7  C   UNL     1      49.710   2.631  17.388  0.00  0.00    +0.000 A 
BRANCH   5   8
ATOM      8  C   UNL     1      53.062   4.356  18.116  0.00  0.00    +0.000 C 
BRANCH   8   9
ATOM      9  S   UNL     1      53.292   4.004  19.901  0.00  0.00    +0.000 S 
BRANCH   9  10
ATOM     10  C   UNL     1      52.931   5.628  20.642  0.00  0.00    +0.000 C 
BRANCH  10  11
ATOM     11  C   UNL     1      51.441   5.816  20.792  0.00  0.00    +0.000 A 
ATOM     12  C   UNL     1      50.595   4.742  21.092  0.00  0.00    +0.000 A 
ATOM     13  C   UNL     1      49.220   4.944  21.191  0.00  0.00    +0.000 A 
ATOM     14  C   UNL     1      48.728   6.221  20.982  0.00  0.00    +0.000 A 
ATOM     15  N   UNL     1      49.506   7.282  20.683  0.00  0.00    +0.000 NA
ATOM     16  C   UNL     1      50.838   7.055  20.585  0.00  0.00    +0.000 A 
ENDBRANCH  10  11
ENDBRANCH   9  10
ENDBRANCH   8   9
ENDBRANCH   5   8
ENDBRANCH   1   2
BRANCH   1  19
ATOM     17  C   UNL     1      46.923   4.180  14.504  0.00  0.00    +0.000 C 
ATOM     18  O   UNL     1      47.291   3.095  14.074  0.00  0.00    +0.000 OA
ATOM     19  N   UNL     1      46.952   4.501  15.843  0.00  0.00    +0.000 N 
ATOM     20  H   UNL     1      46.340   5.241  16.156  0.00  0.00    +0.000 HD
BRANCH  17  27
ATOM     21  C   UNL     1      43.828   8.323  10.931  0.00  0.00    +0.000 C 
ATOM     22  C   UNL     1      43.934   6.985  11.592  0.00  0.00    +0.000 A 
ATOM     23  N   UNL     1      42.869   6.145  11.503  0.00  0.00    +0.000 NA
ATOM     24  C   UNL     1      42.908   4.946  12.118  0.00  0.00    +0.000 A 
ATOM     25  C   UNL     1      43.981   4.473  12.861  0.00  0.00    +0.000 A 
ATOM     26  C   UNL     1      45.104   5.307  12.960  0.00  0.00    +0.000 A 
ATOM     27  C   UNL     1      46.373   5.223  13.635  0.00  0.00    +0.000 A 
ATOM     28  C   UNL     1      47.036   6.411  13.367  0.00  0.00    +0.000 A 
ATOM     29  N   UNL     1      46.241   7.188  12.575  0.00  0.00    +0.000 N 
ATOM     30  C   UNL     1      45.050   6.550  12.319  0.00  0.00    +0.000 A 
ATOM     31  H   UNL     1      46.481   8.113  12.242  0.00  0.00    +0.000 HD
ENDBRANCH  17  27
ENDBRANCH   1  19
TORSDOF 7
ENDMDL
