MODEL 1
REMARK VINA RESULT:    -8.217      0.000      0.000
REMARK INTER + INTRA:         -13.576
REMARK INTER:                 -12.540
REMARK INTRA:                  -1.036
REMARK UNBOUND:                -1.036
REMARK  Name = 
REMARK  10 active torsions:
REMARK  status: ('A' for Active; 'I' for Inactive)
REMARK    1  A    between atoms: C_1  and  O_2
REMARK    2  A    between atoms: O_2  and  C_3
REMARK    3  A    between atoms: C_3  and  C_4
REMARK    4  A    between atoms: C_3  and  C_13
REMARK    5  A    between atoms: C_4  and  N_5
REMARK    6  A    between atoms: N_5  and  C_6
REMARK    7  A    between atoms: C_6  and  C_7
REMARK    8  A    between atoms: C_16  and  C_17
REMARK    9  A    between atoms: C_17  and  N_18
REMARK   10  A    between atoms: C_19  and  C_21
REMARK                            x       y       z     vdW  Elec       q    Type
REMARK                         _______ _______ _______ _____ _____    ______ ____
ROOT
ATOM      1  C   UNL     1      45.365   4.718  11.995  0.00  0.00    +0.000 A 
ATOM      2  C   UNL     1      45.839   4.335  13.262  0.00  0.00    +0.000 A 
ATOM      3  C   UNL     1      46.866   5.039  13.903  0.00  0.00    +0.000 A 
ATOM      4  C   UNL     1      47.444   6.157  13.297  0.00  0.00    +0.000 A 
ATOM      5  C   UNL     1      47.006   6.528  12.022  0.00  0.00    +0.000 A 
ATOM      6  C   UNL     1      45.987   5.815  11.380  0.00  0.00    +0.000 A 
ENDROOT
BRANCH   1   7
ATOM      7  C   UNL     1      44.242   3.951  11.292  0.00  0.00    +0.000 C 
BRANCH   7   9
ATOM      8  C   UNL     1      42.392   5.452  11.795  0.00  0.00    +0.000 C 
ATOM      9  O   UNL     1      43.023   4.208  12.029  0.00  0.00    +0.000 OA
ENDBRANCH   7   9
BRANCH   7  10
ATOM     10  C   UNL     1      44.076   4.331   9.783  0.00  0.00    +0.000 C 
BRANCH  10  11
ATOM     11  N   UNL     1      44.103   3.194   8.847  0.00  0.00    +0.000 NA
ATOM     12  H   UNL     1      44.121   3.527   7.883  0.00  0.00    +0.000 HD
BRANCH  11  13
ATOM     13  C   UNL     1      45.255   2.324   9.083  0.00  0.00    +0.000 C 
BRANCH  13  14
ATOM     14  C   UNL     1      46.126   2.237   7.861  0.00  0.00    +0.000 A 
ATOM     15  C   UNL     1      46.151   3.252   6.899  0.00  0.00    +0.000 A 
ATOM     16  C   UNL     1      46.954   3.120   5.770  0.00  0.00    +0.000 A 
ATOM     17  C   UNL     1      47.711   1.970   5.636  0.00  0.00    +0.000 A 
ATOM     18  N   UNL     1      47.716   0.963   6.540  0.00  0.00    +0.000 NA
ATOM     19  C   UNL     1      46.923   1.121   7.625  0.00  0.00    +0.000 A 
ENDBRANCH  13  14
ENDBRANCH  11  13
ENDBRANCH  10  11
ENDBRANCH   7  10
ENDBRANCH   1   7
BRANCH   4  20
ATOM     20  C   UNL     1      48.555   6.914  13.974  0.00  0.00    +0.000 C 
BRANCH  20  21
ATOM     21  N   UNL     1      48.296   7.049  15.385  0.00  0.00    +0.000 N 
ATOM     22  C   UNL     1      49.215   6.655  16.322  0.00  0.00    +0.000 C 
ATOM     23  O   UNL     1      50.311   6.197  16.011  0.00  0.00    +0.000 OA
ATOM     24  H   UNL     1      47.332   7.202  15.660  0.00  0.00    +0.000 HD
BRANCH  22  25
ATOM     25  C   UNL     1      48.844   6.871  17.727  0.00  0.00    +0.000 A 
ATOM     26  C   UNL     1      48.563   8.154  18.174  0.00  0.00    +0.000 A 
ATOM     27  S   UNL     1      48.108   8.219  19.818  0.00  0.00    +0.000 S 
ATOM     28  C   UNL     1      48.319   6.543  20.000  0.00  0.00    +0.000 A 
ATOM     29  N   UNL     1      48.123   5.939  21.201  0.00  0.00    +0.000 NA
ATOM     30  C   UNL     1      48.351   4.669  21.205  0.00  0.00    +0.000 A 
ATOM     31  N   UNL     1      48.747   3.945  20.109  0.00  0.00    +0.000 N 
ATOM     32  C   UNL     1      48.924   4.507  18.867  0.00  0.00    +0.000 A 
ATOM     33  O   UNL     1      49.227   3.814  17.896  0.00  0.00    +0.000 OA
ATOM     34  C   UNL     1      48.704   5.937  18.816  0.00  0.00    +0.000 A 
ATOM     35  H   UNL     1      48.894   2.946  20.175  0.00  0.00    +0.000 HD
ENDBRANCH  22  25
ENDBRANCH  20  21
ENDBRANCH   4  20
TORSDOF 9
ENDMDL
MODEL 2
REMARK VINA RESULT:    -7.956      1.278      2.105
REMARK INTER + INTRA:         -13.178
REMARK INTER:                 -12.125
REMARK INTRA:                  -1.053
REMARK UNBOUND:                -1.036
REMARK  Name = 
REMARK  10 active torsions:
REMARK  status: ('A' for Active; 'I' for Inactive)
REMARK    1  A    between atoms: C_1  and  O_2
REMARK    2  A    between atoms: O_2  and  C_3
REMARK    3  A    between atoms: C_3  and  C_4
REMARK    4  A    between atoms: C_3  and  C_13
REMARK    5  A    between atoms: C_4  and  N_5
REMARK    6  A    between atoms: N_5  and  C_6
REMARK    7  A    between atoms: C_6  and  C_7
REMARK    8  A    between atoms: C_16  and  C_17
REMARK    9  A    between atoms: C_17  and  N_18
REMARK   10  A    between atoms: C_19  and  C_21
REMARK                            x       y       z     vdW  Elec       q    Type
REMARK                         _______ _______ _______ _____ _____    ______ ____
ROOT
ATOM      1  C   UNL     1      45.323   4.655  11.979  0.00  0.00    +0.000 A 
ATOM      2  C   UNL     1      45.919   5.806  11.436  0.00  0.00    +0.000 A 
ATOM      3  C   UNL     1      46.869   6.545  12.151  0.00  0.00    +0.000 A 
ATOM      4  C   UNL     1      47.261   6.147  13.431  0.00  0.00    +0.000 A 
ATOM      5  C   UNL     1      46.650   5.023  13.997  0.00  0.00    +0.000 A 
ATOM      6  C   UNL     1      45.693   4.294  13.284  0.00  0.00    +0.000 A 
ENDROOT
BRANCH   1   7
ATOM      7  C   UNL     1      44.284   3.845  11.201  0.00  0.00    +0.000 C 
BRANCH   7   9
ATOM      8  C   UNL     1      42.486   5.386  11.763  0.00  0.00    +0.000 C 
ATOM      9  O   UNL     1      43.003   4.072  11.834  0.00  0.00    +0.000 OA
ENDBRANCH   7   9
BRANCH   7  10
ATOM     10  C   UNL     1      44.228   4.200   9.677  0.00  0.00    +0.000 C 
BRANCH  10  11
ATOM     11  N   UNL     1      44.158   3.042   8.769  0.00  0.00    +0.000 NA
ATOM     12  H   UNL     1      44.095   3.354   7.800  0.00  0.00    +0.000 HD
BRANCH  11  13
ATOM     13  C   UNL     1      45.316   2.162   8.923  0.00  0.00    +0.000 C 
BRANCH  13  14
ATOM     14  C   UNL     1      46.193   2.204   7.702  0.00  0.00    +0.000 A 
ATOM     15  C   UNL     1      46.147   3.270   6.797  0.00  0.00    +0.000 A 
ATOM     16  C   UNL     1      46.959   3.256   5.667  0.00  0.00    +0.000 A 
ATOM     17  C   UNL     1      47.796   2.172   5.474  0.00  0.00    +0.000 A 
ATOM     18  N   UNL     1      47.871   1.120   6.321  0.00  0.00    +0.000 NA
ATOM     19  C   UNL     1      47.068   1.162   7.410  0.00  0.00    +0.000 A 
ENDBRANCH  13  14
ENDBRANCH  11  13
ENDBRANCH  10  11
ENDBRANCH   7  10
ENDBRANCH   1   7
BRANCH   4  20
ATOM     20  C   UNL     1      48.275   6.940  14.210  0.00  0.00    +0.000 C 
BRANCH  20  21
ATOM     21  N   UNL     1      48.093   6.750  15.627  0.00  0.00    +0.000 N 
ATOM     22  C   UNL     1      49.117   6.320  16.429  0.00  0.00    +0.000 C 
ATOM     23  O   UNL     1      50.243   6.101  15.991  0.00  0.00    +0.000 OA
ATOM     24  H   UNL     1      47.137   6.699  15.962  0.00  0.00    +0.000 HD
BRANCH  22  25
ATOM     25  C   UNL     1      48.812   6.193  17.861  0.00  0.00    +0.000 A 
ATOM     26  C   UNL     1      49.030   4.983  18.505  0.00  0.00    +0.000 A 
ATOM     27  S   UNL     1      48.665   5.023  20.172  0.00  0.00    +0.000 S 
ATOM     28  C   UNL     1      48.157   6.643  20.079  0.00  0.00    +0.000 A 
ATOM     29  N   UNL     1      47.679   7.291  21.173  0.00  0.00    +0.000 NA
ATOM     30  C   UNL     1      47.298   8.503  20.953  0.00  0.00    +0.000 A 
ATOM     31  N   UNL     1      47.364   9.132  19.735  0.00  0.00    +0.000 N 
ATOM     32  C   UNL     1      47.871   8.527  18.609  0.00  0.00    +0.000 A 
ATOM     33  O   UNL     1      47.965   9.143  17.548  0.00  0.00    +0.000 OA
ATOM     34  C   UNL     1      48.290   7.155  18.799  0.00  0.00    +0.000 A 
ATOM     35  H   UNL     1      47.063  10.092  19.632  0.00  0.00    +0.000 HD
ENDBRANCH  22  25
ENDBRANCH  20  21
ENDBRANCH   4  20
TORSDOF 9
ENDMDL
MODEL 3
REMARK VINA RESULT:    -7.634      2.350      2.797
REMARK INTER + INTRA:         -12.687
REMARK INTER:                 -11.340
REMARK INTRA:                  -1.347
REMARK UNBOUND:                -1.036
REMARK  Name = 
REMARK  10 active torsions:
REMARK  status: ('A' for Active; 'I' for Inactive)
REMARK    1  A    between atoms: C_1  and  O_2
REMARK    2  A    between atoms: O_2  and  C_3
REMARK    3  A    between atoms: C_3  and  C_4
REMARK    4  A    between atoms: C_3  and  C_13
REMARK    5  A    between atoms: C_4  and  N_5
REMARK    6  A    between atoms: N_5  and  C_6
REMARK    7  A    between atoms: C_6  and  C_7
REMARK    8  A    between atoms: C_16  and  C_17
REMARK    9  A    between atoms: C_17  and  N_18
REMARK   10  A    between atoms: C_19  and  C_21
REMARK                            x       y       z     vdW  Elec       q    Type
REMARK                         _______ _______ _______ _____ _____    ______ ____
ROOT
ATOM      1  C   UNL     1      45.863   5.128  12.196  0.00  0.00    +0.000 A 
ATOM      2  C   UNL     1      46.627   4.934  13.360  0.00  0.00    +0.000 A 
ATOM      3  C   UNL     1      47.645   5.823  13.725  0.00  0.00    +0.000 A 
ATOM      4  C   UNL     1      47.924   6.943  12.939  0.00  0.00    +0.000 A 
ATOM      5  C   UNL     1      47.195   7.130  11.760  0.00  0.00    +0.000 A 
ATOM      6  C   UNL     1      46.186   6.233  11.393  0.00  0.00    +0.000 A 
ENDROOT
BRANCH   1   7
ATOM      7  C   UNL     1      44.750   4.159  11.795  0.00  0.00    +0.000 C 
BRANCH   7   9
ATOM      8  C   UNL     1      42.897   5.084  13.074  0.00  0.00    +0.000 C 
ATOM      9  O   UNL     1      43.850   4.051  12.923  0.00  0.00    +0.000 OA
ENDBRANCH   7   9
BRANCH   7  10
ATOM     10  C   UNL     1      43.979   4.592  10.503  0.00  0.00    +0.000 C 
BRANCH  10  11
ATOM     11  N   UNL     1      44.080   3.655   9.372  0.00  0.00    +0.000 NA
ATOM     12  H   UNL     1      43.163   3.503   8.953  0.00  0.00    +0.000 HD
BRANCH  11  13
ATOM     13  C   UNL     1      45.009   4.136   8.350  0.00  0.00    +0.000 C 
BRANCH  13  14
ATOM     14  C   UNL     1      45.878   3.020   7.839  0.00  0.00    +0.000 A 
ATOM     15  C   UNL     1      46.745   3.197   6.757  0.00  0.00    +0.000 A 
ATOM     16  C   UNL     1      47.514   2.130   6.302  0.00  0.00    +0.000 A 
ATOM     17  C   UNL     1      47.390   0.912   6.945  0.00  0.00    +0.000 A 
ATOM     18  N   UNL     1      46.564   0.696   7.994  0.00  0.00    +0.000 NA
ATOM     19  C   UNL     1      45.828   1.752   8.412  0.00  0.00    +0.000 A 
ENDBRANCH  13  14
ENDBRANCH  11  13
ENDBRANCH  10  11
ENDBRANCH   7  10
ENDBRANCH   1   7
BRANCH   4  20
ATOM     20  C   UNL     1      49.023   7.899  13.318  0.00  0.00    +0.000 C 
BRANCH  20  21
ATOM     21  N   UNL     1      50.032   7.233  14.102  0.00  0.00    +0.000 N 
ATOM     22  C   UNL     1      50.796   7.913  15.012  0.00  0.00    +0.000 C 
ATOM     23  O   UNL     1      50.644   9.113  15.228  0.00  0.00    +0.000 OA
ATOM     24  H   UNL     1      50.328   6.317  13.782  0.00  0.00    +0.000 HD
BRANCH  22  25
ATOM     25  C   UNL     1      51.771   7.115  15.768  0.00  0.00    +0.000 A 
ATOM     26  C   UNL     1      53.128   7.367  15.621  0.00  0.00    +0.000 A 
ATOM     27  S   UNL     1      54.115   6.381  16.603  0.00  0.00    +0.000 S 
ATOM     28  C   UNL     1      52.767   5.551  17.221  0.00  0.00    +0.000 A 
ATOM     29  N   UNL     1      52.918   4.532  18.108  0.00  0.00    +0.000 NA
ATOM     30  C   UNL     1      51.815   3.970  18.469  0.00  0.00    +0.000 A 
ATOM     31  N   UNL     1      50.569   4.343  18.030  0.00  0.00    +0.000 N 
ATOM     32  C   UNL     1      50.366   5.389  17.161  0.00  0.00    +0.000 A 
ATOM     33  O   UNL     1      49.230   5.728  16.835  0.00  0.00    +0.000 OA
ATOM     34  C   UNL     1      51.578   6.038  16.707  0.00  0.00    +0.000 A 
ATOM     35  H   UNL     1      49.740   3.870  18.365  0.00  0.00    +0.000 HD
ENDBRANCH  22  25
ENDBRANCH  20  21
ENDBRANCH   4  20
TORSDOF 9
ENDMDL
MODEL 4
REMARK VINA RESULT:    -7.276      1.463      1.761
REMARK INTER + INTRA:         -12.140
REMARK INTER:                 -11.377
REMARK INTRA:                  -0.763
REMARK UNBOUND:                -1.036
REMARK  Name = 
REMARK  10 active torsions:
REMARK  status: ('A' for Active; 'I' for Inactive)
REMARK    1  A    between atoms: C_1  and  O_2
REMARK    2  A    between atoms: O_2  and  C_3
REMARK    3  A    between atoms: C_3  and  C_4
REMARK    4  A    between atoms: C_3  and  C_13
REMARK    5  A    between atoms: C_4  and  N_5
REMARK    6  A    between atoms: N_5  and  C_6
REMARK    7  A    between atoms: C_6  and  C_7
REMARK    8  A    between atoms: C_16  and  C_17
REMARK    9  A    between atoms: C_17  and  N_18
REMARK   10  A    between atoms: C_19  and  C_21
REMARK                            x       y       z     vdW  Elec       q    Type
REMARK                         _______ _______ _______ _____ _____    ______ ____
ROOT
ATOM      1  C   UNL     1      45.171   4.563  11.958  0.00  0.00    +0.000 A 
ATOM      2  C   UNL     1      45.655   4.261  13.243  0.00  0.00    +0.000 A 
ATOM      3  C   UNL     1      46.660   5.027  13.846  0.00  0.00    +0.000 A 
ATOM      4  C   UNL     1      47.205   6.129  13.184  0.00  0.00    +0.000 A 
ATOM      5  C   UNL     1      46.758   6.420  11.891  0.00  0.00    +0.000 A 
ATOM      6  C   UNL     1      45.761   5.645  11.287  0.00  0.00    +0.000 A 
ENDROOT
BRANCH   1   7
ATOM      7  C   UNL     1      44.073   3.729  11.296  0.00  0.00    +0.000 C 
BRANCH   7   9
ATOM      8  C   UNL     1      42.391   5.392  11.869  0.00  0.00    +0.000 C 
ATOM      9  O   UNL     1      43.043   4.647  10.860  0.00  0.00    +0.000 OA
ENDBRANCH   7   9
BRANCH   7  10
ATOM     10  C   UNL     1      44.586   2.853  10.104  0.00  0.00    +0.000 C 
BRANCH  10  11
ATOM     11  N   UNL     1      44.294   3.391   8.764  0.00  0.00    +0.000 NA
ATOM     12  H   UNL     1      43.556   4.093   8.816  0.00  0.00    +0.000 HD
BRANCH  11  13
ATOM     13  C   UNL     1      45.482   3.977   8.145  0.00  0.00    +0.000 C 
BRANCH  13  14
ATOM     14  C   UNL     1      46.210   2.963   7.306  0.00  0.00    +0.000 A 
ATOM     15  C   UNL     1      46.530   3.208   5.967  0.00  0.00    +0.000 A 
ATOM     16  C   UNL     1      47.184   2.232   5.220  0.00  0.00    +0.000 A 
ATOM     17  C   UNL     1      47.498   1.035   5.838  0.00  0.00    +0.000 A 
ATOM     18  N   UNL     1      47.207   0.756   7.129  0.00  0.00    +0.000 NA
ATOM     19  C   UNL     1      46.569   1.724   7.828  0.00  0.00    +0.000 A 
ENDBRANCH  13  14
ENDBRANCH  11  13
ENDBRANCH  10  11
ENDBRANCH   7  10
ENDBRANCH   1   7
BRANCH   4  20
ATOM     20  C   UNL     1      48.292   6.952  13.820  0.00  0.00    +0.000 C 
BRANCH  20  21
ATOM     21  N   UNL     1      48.558   6.500  15.162  0.00  0.00    +0.000 N 
ATOM     22  C   UNL     1      48.669   7.379  16.206  0.00  0.00    +0.000 C 
ATOM     23  O   UNL     1      48.522   8.590  16.060  0.00  0.00    +0.000 OA
ATOM     24  H   UNL     1      48.907   5.553  15.264  0.00  0.00    +0.000 HD
BRANCH  22  25
ATOM     25  C   UNL     1      48.912   6.790  17.530  0.00  0.00    +0.000 A 
ATOM     26  C   UNL     1      47.953   6.916  18.524  0.00  0.00    +0.000 A 
ATOM     27  S   UNL     1      48.377   6.137  19.983  0.00  0.00    +0.000 S 
ATOM     28  C   UNL     1      49.878   5.649  19.351  0.00  0.00    +0.000 A 
ATOM     29  N   UNL     1      50.766   4.956  20.111  0.00  0.00    +0.000 NA
ATOM     30  C   UNL     1      51.877   4.679  19.517  0.00  0.00    +0.000 A 
ATOM     31  N   UNL     1      52.176   5.024  18.223  0.00  0.00    +0.000 N 
ATOM     32  C   UNL     1      51.295   5.694  17.406  0.00  0.00    +0.000 A 
ATOM     33  O   UNL     1      51.580   5.937  16.234  0.00  0.00    +0.000 OA
ATOM     34  C   UNL     1      50.042   6.050  18.036  0.00  0.00    +0.000 A 
ATOM     35  H   UNL     1      53.061   4.762  17.809  0.00  0.00    +0.000 HD
ENDBRANCH  22  25
ENDBRANCH  20  21
ENDBRANCH   4  20
TORSDOF 9
ENDMDL
MODEL 5
REMARK VINA RESULT:    -7.259      3.999     10.349
REMARK INTER + INTRA:         -12.114
REMARK INTER:                  -9.968
REMARK INTRA:                  -2.146
REMARK UNBOUND:                -1.036
REMARK  Name = 
REMARK  10 active torsions:
REMARK  status: ('A' for Active; 'I' for Inactive)
REMARK    1  A    between atoms: C_1  and  O_2
REMARK    2  A    between atoms: O_2  and  C_3
REMARK    3  A    between atoms: C_3  and  C_4
REMARK    4  A    between atoms: C_3  and  C_13
REMARK    5  A    between atoms: C_4  and  N_5
REMARK    6  A    between atoms: N_5  and  C_6
REMARK    7  A    between atoms: C_6  and  C_7
REMARK    8  A    between atoms: C_16  and  C_17
REMARK    9  A    between atoms: C_17  and  N_18
REMARK   10  A    between atoms: C_19  and  C_21
REMARK                            x       y       z     vdW  Elec       q    Type
REMARK                         _______ _______ _______ _____ _____    ______ ____
ROOT
ATOM      1  C   UNL     1      51.426   4.544  17.888  0.00  0.00    +0.000 A 
ATOM      2  C   UNL     1      50.483   5.540  17.579  0.00  0.00    +0.000 A 
ATOM      3  C   UNL     1      49.178   5.217  17.187  0.00  0.00    +0.000 A 
ATOM      4  C   UNL     1      48.774   3.883  17.100  0.00  0.00    +0.000 A 
ATOM      5  C   UNL     1      49.712   2.881  17.370  0.00  0.00    +0.000 A 
ATOM      6  C   UNL     1      51.018   3.208  17.752  0.00  0.00    +0.000 A 
ENDROOT
BRANCH   1   7
ATOM      7  C   UNL     1      52.851   4.893  18.318  0.00  0.00    +0.000 C 
BRANCH   7   9
ATOM      8  C   UNL     1      54.077   5.811  16.426  0.00  0.00    +0.000 C 
ATOM      9  O   UNL     1      53.257   6.052  17.552  0.00  0.00    +0.000 OA
ENDBRANCH   7   9
BRANCH   7  10
ATOM     10  C   UNL     1      52.994   5.159  19.855  0.00  0.00    +0.000 C 
BRANCH  10  11
ATOM     11  N   UNL     1      52.243   4.234  20.720  0.00  0.00    +0.000 NA
ATOM     12  H   UNL     1      52.864   3.521  21.102  0.00  0.00    +0.000 HD
BRANCH  11  13
ATOM     13  C   UNL     1      51.576   4.938  21.816  0.00  0.00    +0.000 C 
BRANCH  13  14
ATOM     14  C   UNL     1      50.261   5.514  21.368  0.00  0.00    +0.000 A 
ATOM     15  C   UNL     1      49.184   4.699  21.007  0.00  0.00    +0.000 A 
ATOM     16  C   UNL     1      47.993   5.275  20.575  0.00  0.00    +0.000 A 
ATOM     17  C   UNL     1      47.915   6.654  20.515  0.00  0.00    +0.000 A 
ATOM     18  N   UNL     1      48.932   7.480  20.852  0.00  0.00    +0.000 NA
ATOM     19  C   UNL     1      50.078   6.890  21.266  0.00  0.00    +0.000 A 
ENDBRANCH  13  14
ENDBRANCH  11  13
ENDBRANCH  10  11
ENDBRANCH   7  10
ENDBRANCH   1   7
BRANCH   4  20
ATOM     20  C   UNL     1      47.377   3.526  16.669  0.00  0.00    +0.000 C 
BRANCH  20  21
ATOM     21  N   UNL     1      46.870   4.491  15.727  0.00  0.00    +0.000 N 
ATOM     22  C   UNL     1      46.833   4.229  14.383  0.00  0.00    +0.000 C 
ATOM     23  O   UNL     1      47.201   3.154  13.916  0.00  0.00    +0.000 OA
ATOM     24  H   UNL     1      46.782   5.446  16.055  0.00  0.00    +0.000 HD
BRANCH  22  25
ATOM     25  C   UNL     1      46.267   5.283  13.531  0.00  0.00    +0.000 A 
ATOM     26  C   UNL     1      46.987   6.448  13.308  0.00  0.00    +0.000 A 
ATOM     27  S   UNL     1      46.204   7.545  12.261  0.00  0.00    +0.000 S 
ATOM     28  C   UNL     1      44.855   6.523  12.110  0.00  0.00    +0.000 A 
ATOM     29  N   UNL     1      43.780   6.888  11.363  0.00  0.00    +0.000 NA
ATOM     30  C   UNL     1      42.814   6.034  11.362  0.00  0.00    +0.000 A 
ATOM     31  N   UNL     1      42.830   4.837  12.034  0.00  0.00    +0.000 N 
ATOM     32  C   UNL     1      43.909   4.411  12.773  0.00  0.00    +0.000 A 
ATOM     33  O   UNL     1      43.907   3.307  13.315  0.00  0.00    +0.000 OA
ATOM     34  C   UNL     1      45.011   5.348  12.825  0.00  0.00    +0.000 A 
ATOM     35  H   UNL     1      42.044   4.203  11.979  0.00  0.00    +0.000 HD
ENDBRANCH  22  25
ENDBRANCH  20  21
ENDBRANCH   4  20
TORSDOF 9
ENDMDL
MODEL 6
REMARK VINA RESULT:    -7.185      3.073      9.343
REMARK INTER + INTRA:         -12.000
REMARK INTER:                 -10.118
REMARK INTRA:                  -1.883
REMARK UNBOUND:                -1.036
REMARK  Name = 
REMARK  10 active torsions:
REMARK  status: ('A' for Active; 'I' for Inactive)
REMARK    1  A    between atoms: C_1  and  O_2
REMARK    2  A    between atoms: O_2  and  C_3
REMARK    3  A    between atoms: C_3  and  C_4
REMARK    4  A    between atoms: C_3  and  C_13
REMARK    5  A    between atoms: C_4  and  N_5
REMARK    6  A    between atoms: N_5  and  C_6
REMARK    7  A    between atoms: C_6  and  C_7
REMARK    8  A    between atoms: C_16  and  C_17
REMARK    9  A    between atoms: C_17  and  N_18
REMARK   10  A    between atoms: C_19  and  C_21
REMARK                            x       y       z     vdW  Elec       q    Type
REMARK                         _______ _______ _______ _____ _____    ______ ____
ROOT
ATOM      1  C   UNL     1      48.842   8.138  16.186  0.00  0.00    +0.000 A 
ATOM      2  C   UNL     1      48.111   9.134  15.516  0.00  0.00    +0.000 A 
ATOM      3  C   UNL     1      47.751   8.998  14.170  0.00  0.00    +0.000 A 
ATOM      4  C   UNL     1      48.104   7.851  13.455  0.00  0.00    +0.000 A 
ATOM      5  C   UNL     1      48.862   6.868  14.099  0.00  0.00    +0.000 A 
ATOM      6  C   UNL     1      49.229   7.014  15.441  0.00  0.00    +0.000 A 
ENDROOT
BRANCH   1   7
ATOM      7  C   UNL     1      49.236   8.284  17.657  0.00  0.00    +0.000 C 
BRANCH   7   9
ATOM      8  C   UNL     1      51.482   9.222  17.720  0.00  0.00    +0.000 C 
ATOM      9  O   UNL     1      50.087   9.451  17.758  0.00  0.00    +0.000 OA
ENDBRANCH   7   9
BRANCH   7  10
ATOM     10  C   UNL     1      48.011   8.398  18.625  0.00  0.00    +0.000 C 
BRANCH  10  11
ATOM     11  N   UNL     1      47.308   7.133  18.893  0.00  0.00    +0.000 NA
ATOM     12  H   UNL     1      46.817   6.815  18.057  0.00  0.00    +0.000 HD
BRANCH  11  13
ATOM     13  C   UNL     1      48.225   6.087  19.347  0.00  0.00    +0.000 C 
BRANCH  13  14
ATOM     14  C   UNL     1      48.178   4.893  18.433  0.00  0.00    +0.000 A 
ATOM     15  C   UNL     1      49.297   4.081  18.226  0.00  0.00    +0.000 A 
ATOM     16  C   UNL     1      49.217   3.000  17.353  0.00  0.00    +0.000 A 
ATOM     17  C   UNL     1      48.015   2.764  16.711  0.00  0.00    +0.000 A 
ATOM     18  N   UNL     1      46.909   3.525  16.881  0.00  0.00    +0.000 NA
ATOM     19  C   UNL     1      47.020   4.570  17.734  0.00  0.00    +0.000 A 
ENDBRANCH  13  14
ENDBRANCH  11  13
ENDBRANCH  10  11
ENDBRANCH   7  10
ENDBRANCH   1   7
BRANCH   4  20
ATOM     20  C   UNL     1      47.730   7.700  12.005  0.00  0.00    +0.000 C 
BRANCH  20  21
ATOM     21  N   UNL     1      46.994   6.480  11.791  0.00  0.00    +0.000 N 
ATOM     22  C   UNL     1      45.632   6.430  11.934  0.00  0.00    +0.000 C 
ATOM     23  O   UNL     1      44.968   7.422  12.221  0.00  0.00    +0.000 OA
ATOM     24  H   UNL     1      47.529   5.618  11.784  0.00  0.00    +0.000 HD
BRANCH  22  25
ATOM     25  C   UNL     1      44.997   5.134  11.660  0.00  0.00    +0.000 A 
ATOM     26  C   UNL     1      44.300   4.484  12.669  0.00  0.00    +0.000 A 
ATOM     27  S   UNL     1      43.589   3.015  12.170  0.00  0.00    +0.000 S 
ATOM     28  C   UNL     1      44.229   3.173  10.603  0.00  0.00    +0.000 A 
ATOM     29  N   UNL     1      44.021   2.216   9.662  0.00  0.00    +0.000 NA
ATOM     30  C   UNL     1      44.592   2.447   8.528  0.00  0.00    +0.000 A 
ATOM     31  N   UNL     1      45.344   3.560   8.247  0.00  0.00    +0.000 N 
ATOM     32  C   UNL     1      45.553   4.569   9.157  0.00  0.00    +0.000 A 
ATOM     33  O   UNL     1      46.188   5.577   8.849  0.00  0.00    +0.000 OA
ATOM     34  C   UNL     1      44.952   4.344  10.455  0.00  0.00    +0.000 A 
ATOM     35  H   UNL     1      45.753   3.689   7.331  0.00  0.00    +0.000 HD
ENDBRANCH  22  25
ENDBRANCH  20  21
ENDBRANCH   4  20
TORSDOF 9
ENDMDL
MODEL 7
REMARK VINA RESULT:    -6.935      4.973      6.209
REMARK INTER + INTRA:         -11.620
REMARK INTER:                 -10.450
REMARK INTRA:                  -1.170
REMARK UNBOUND:                -1.036
REMARK  Name = 
REMARK  10 active torsions:
REMARK  status: ('A' for Active; 'I' for Inactive)
REMARK    1  A    between atoms: C_1  and  O_2
REMARK    2  A    between atoms: O_2  and  C_3
REMARK    3  A    between atoms: C_3  and  C_4
REMARK    4  A    between atoms: C_3  and  C_13
REMARK    5  A    between atoms: C_4  and  N_5
REMARK    6  A    between atoms: N_5  and  C_6
REMARK    7  A    between atoms: C_6  and  C_7
REMARK    8  A    between atoms: C_16  and  C_17
REMARK    9  A    between atoms: C_17  and  N_18
REMARK   10  A    between atoms: C_19  and  C_21
REMARK                            x       y       z     vdW  Elec       q    Type
REMARK                         _______ _______ _______ _____ _____    ______ ____
ROOT
ATOM      1  C   UNL     1      45.444   5.703  11.830  0.00  0.00    +0.000 A 
ATOM      2  C   UNL     1      46.772   5.837  12.272  0.00  0.00    +0.000 A 
ATOM      3  C   UNL     1      47.376   7.093  12.405  0.00  0.00    +0.000 A 
ATOM      4  C   UNL     1      46.663   8.257  12.109  0.00  0.00    +0.000 A 
ATOM      5  C   UNL     1      45.353   8.137  11.636  0.00  0.00    +0.000 A 
ATOM      6  C   UNL     1      44.757   6.879  11.493  0.00  0.00    +0.000 A 
ENDROOT
BRANCH   1   7
ATOM      7  C   UNL     1      44.781   4.332  11.684  0.00  0.00    +0.000 C 
BRANCH   7   9
ATOM      8  C   UNL     1      43.055   4.311  13.401  0.00  0.00    +0.000 C 
ATOM      9  O   UNL     1      44.355   3.921  13.005  0.00  0.00    +0.000 OA
ENDBRANCH   7   9
BRANCH   7  10
ATOM     10  C   UNL     1      43.580   4.322  10.680  0.00  0.00    +0.000 C 
BRANCH  10  11
ATOM     11  N   UNL     1      43.820   3.585   9.428  0.00  0.00    +0.000 NA
ATOM     12  H   UNL     1      42.972   3.561   8.861  0.00  0.00    +0.000 HD
BRANCH  11  13
ATOM     13  C   UNL     1      44.909   4.176   8.650  0.00  0.00    +0.000 C 
BRANCH  13  14
ATOM     14  C   UNL     1      45.783   3.111   8.048  0.00  0.00    +0.000 A 
ATOM     15  C   UNL     1      46.624   3.375   6.962  0.00  0.00    +0.000 A 
ATOM     16  C   UNL     1      47.399   2.354   6.421  0.00  0.00    +0.000 A 
ATOM     17  C   UNL     1      47.309   1.094   6.983  0.00  0.00    +0.000 A 
ATOM     18  N   UNL     1      46.509   0.794   8.032  0.00  0.00    +0.000 NA
ATOM     19  C   UNL     1      45.766   1.808   8.535  0.00  0.00    +0.000 A 
ENDBRANCH  13  14
ENDBRANCH  11  13
ENDBRANCH  10  11
ENDBRANCH   7  10
ENDBRANCH   1   7
BRANCH   4  20
ATOM     20  C   UNL     1      47.308   9.611  12.240  0.00  0.00    +0.000 C 
BRANCH  20  21
ATOM     21  N   UNL     1      48.585   9.636  11.573  0.00  0.00    +0.000 N 
ATOM     22  C   UNL     1      49.325  10.786  11.487  0.00  0.00    +0.000 C 
ATOM     23  O   UNL     1      48.956  11.842  11.994  0.00  0.00    +0.000 OA
ATOM     24  H   UNL     1      48.796   8.856  10.961  0.00  0.00    +0.000 HD
BRANCH  22  25
ATOM     25  C   UNL     1      50.623  10.674  10.807  0.00  0.00    +0.000 A 
ATOM     26  C   UNL     1      50.985  11.618   9.857  0.00  0.00    +0.000 A 
ATOM     27  S   UNL     1      52.539  11.363   9.199  0.00  0.00    +0.000 S 
ATOM     28  C   UNL     1      52.761   9.955  10.125  0.00  0.00    +0.000 A 
ATOM     29  N   UNL     1      53.894   9.214  10.013  0.00  0.00    +0.000 NA
ATOM     30  C   UNL     1      53.916   8.155  10.748  0.00  0.00    +0.000 A 
ATOM     31  N   UNL     1      52.907   7.774  11.598  0.00  0.00    +0.000 N 
ATOM     32  C   UNL     1      51.759   8.510  11.769  0.00  0.00    +0.000 A 
ATOM     33  O   UNL     1      50.901   8.165  12.582  0.00  0.00    +0.000 OA
ATOM     34  C   UNL     1      51.676   9.698  10.946  0.00  0.00    +0.000 A 
ATOM     35  H   UNL     1      52.993   6.938  12.161  0.00  0.00    +0.000 HD
ENDBRANCH  22  25
ENDBRANCH  20  21
ENDBRANCH   4  20
TORSDOF 9
ENDMDL
MODEL 8
REMARK VINA RESULT:    -6.668      3.862      9.157
REMARK INTER + INTRA:         -11.212
REMARK INTER:                  -8.947
REMARK INTRA:                  -2.266
REMARK UNBOUND:                -1.036
REMARK  Name = 
REMARK  10 active torsions:
REMARK  status: ('A' for Active; 'I' for Inactive)
REMARK    1  A    between atoms: C_1  and  O_2
REMARK    2  A    between atoms: O_2  and  C_3
REMARK    3  A    between atoms: C_3  and  C_4
REMARK    4  A    between atoms: C_3  and  C_13
REMARK    5  A    between atoms: C_4  and  N_5
REMARK    6  A    between atoms: N_5  and  C_6
REMARK    7  A    between atoms: C_6  and  C_7
REMARK    8  A    between atoms: C_16  and  C_17
REMARK    9  A    between atoms: C_17  and  N_18
REMARK   10  A    between atoms: C_19  and  C_21
REMARK                            x       y       z     vdW  Elec       q    Type
REMARK                         _______ _______ _______ _____ _____    ______ ____
ROOT
ATOM      1  C   UNL     1      50.104   7.197  18.249  0.00  0.00    +0.000 A 
ATOM      2  C   UNL     1      50.464   6.544  17.057  0.00  0.00    +0.000 A 
ATOM      3  C   UNL     1      49.936   6.933  15.820  0.00  0.00    +0.000 A 
ATOM      4  C   UNL     1      49.036   7.998  15.737  0.00  0.00    +0.000 A 
ATOM      5  C   UNL     1      48.641   8.633  16.919  0.00  0.00    +0.000 A 
ATOM      6  C   UNL     1      49.164   8.234  18.155  0.00  0.00    +0.000 A 
ENDROOT
BRANCH   1   7
ATOM      7  C   UNL     1      50.680   6.774  19.602  0.00  0.00    +0.000 C 
BRANCH   7   9
ATOM      8  C   UNL     1      51.467   8.471  21.160  0.00  0.00    +0.000 C 
ATOM      9  O   UNL     1      51.684   7.752  19.962  0.00  0.00    +0.000 OA
ENDBRANCH   7   9
BRANCH   7  10
ATOM     10  C   UNL     1      49.600   6.639  20.727  0.00  0.00    +0.000 C 
BRANCH  10  11
ATOM     11  N   UNL     1      48.432   5.814  20.375  0.00  0.00    +0.000 NA
ATOM     12  H   UNL     1      47.963   6.194  19.553  0.00  0.00    +0.000 HD
BRANCH  11  13
ATOM     13  C   UNL     1      48.807   4.423  20.122  0.00  0.00    +0.000 C 
BRANCH  13  14
ATOM     14  C   UNL     1      48.503   4.031  18.703  0.00  0.00    +0.000 A 
ATOM     15  C   UNL     1      47.416   4.568  18.006  0.00  0.00    +0.000 A 
ATOM     16  C   UNL     1      47.157   4.158  16.701  0.00  0.00    +0.000 A 
ATOM     17  C   UNL     1      47.997   3.219  16.130  0.00  0.00    +0.000 A 
ATOM     18  N   UNL     1      49.057   2.673  16.768  0.00  0.00    +0.000 NA
ATOM     19  C   UNL     1      49.281   3.089  18.036  0.00  0.00    +0.000 A 
ENDBRANCH  13  14
ENDBRANCH  11  13
ENDBRANCH  10  11
ENDBRANCH   7  10
ENDBRANCH   1   7
BRANCH   4  20
ATOM     20  C   UNL     1      48.455   8.417  14.414  0.00  0.00    +0.000 C 
BRANCH  20  21
ATOM     21  N   UNL     1      47.413   7.511  14.002  0.00  0.00    +0.000 N 
ATOM     22  C   UNL     1      47.658   6.489  13.124  0.00  0.00    +0.000 C 
ATOM     23  O   UNL     1      48.776   6.275  12.664  0.00  0.00    +0.000 OA
ATOM     24  H   UNL     1      46.458   7.802  14.180  0.00  0.00    +0.000 HD
BRANCH  22  25
ATOM     25  C   UNL     1      46.518   5.617  12.806  0.00  0.00    +0.000 A 
ATOM     26  C   UNL     1      46.616   4.251  13.026  0.00  0.00    +0.000 A 
ATOM     27  S   UNL     1      45.190   3.394  12.645  0.00  0.00    +0.000 S 
ATOM     28  C   UNL     1      44.411   4.813  12.126  0.00  0.00    +0.000 A 
ATOM     29  N   UNL     1      43.146   4.777  11.632  0.00  0.00    +0.000 NA
ATOM     30  C   UNL     1      42.689   5.919  11.245  0.00  0.00    +0.000 A 
ATOM     31  N   UNL     1      43.383   7.101  11.317  0.00  0.00    +0.000 N 
ATOM     32  C   UNL     1      44.651   7.191  11.841  0.00  0.00    +0.000 A 
ATOM     33  O   UNL     1      45.219   8.278  11.940  0.00  0.00    +0.000 OA
ATOM     34  C   UNL     1      45.218   5.929  12.268  0.00  0.00    +0.000 A 
ATOM     35  H   UNL     1      42.961   7.968  11.010  0.00  0.00    +0.000 HD
ENDBRANCH  22  25
ENDBRANCH  20  21
ENDBRANCH   4  20
TORSDOF 9
ENDMDL
MODEL 9
REMARK VINA RESULT:    -6.631      3.747      9.598
REMARK INTER + INTRA:         -11.155
REMARK INTER:                  -8.597
REMARK INTRA:                  -2.559
REMARK UNBOUND:                -1.036
REMARK  Name = 
REMARK  10 active torsions:
REMARK  status: ('A' for Active; 'I' for Inactive)
REMARK    1  A    between atoms: C_1  and  O_2
REMARK    2  A    between atoms: O_2  and  C_3
REMARK    3  A    between atoms: C_3  and  C_4
REMARK    4  A    between atoms: C_3  and  C_13
REMARK    5  A    between atoms: C_4  and  N_5
REMARK    6  A    between atoms: N_5  and  C_6
REMARK    7  A    between atoms: C_6  and  C_7
REMARK    8  A    between atoms: C_16  and  C_17
REMARK    9  A    between atoms: C_17  and  N_18
REMARK   10  A    between atoms: C_19  and  C_21
REMARK                            x       y       z     vdW  Elec       q    Type
REMARK                         _______ _______ _______ _____ _____    ______ ____
ROOT
ATOM      1  C   UNL     1      49.042   9.066  19.185  0.00  0.00    +0.000 A 
ATOM      2  C   UNL     1      48.068   9.142  18.175  0.00  0.00    +0.000 A 
ATOM      3  C   UNL     1      48.235   8.495  16.945  0.00  0.00    +0.000 A 
ATOM      4  C   UNL     1      49.383   7.740  16.692  0.00  0.00    +0.000 A 
ATOM      5  C   UNL     1      50.377   7.685  17.674  0.00  0.00    +0.000 A 
ATOM      6  C   UNL     1      50.210   8.342  18.899  0.00  0.00    +0.000 A 
ENDROOT
BRANCH   1   7
ATOM      7  C   UNL     1      48.861   9.772  20.530  0.00  0.00    +0.000 C 
BRANCH   7   9
ATOM      8  C   UNL     1      47.674  11.762  21.275  0.00  0.00    +0.000 C 
ATOM      9  O   UNL     1      48.401  11.115  20.250  0.00  0.00    +0.000 OA
ENDBRANCH   7   9
BRANCH   7  10
ATOM     10  C   UNL     1      47.877   9.032  21.498  0.00  0.00    +0.000 C 
BRANCH  10  11
ATOM     11  N   UNL     1      48.310   7.690  21.922  0.00  0.00    +0.000 NA
ATOM     12  H   UNL     1      48.474   7.672  22.929  0.00  0.00    +0.000 HD
BRANCH  11  13
ATOM     13  C   UNL     1      47.327   6.666  21.570  0.00  0.00    +0.000 C 
BRANCH  13  14
ATOM     14  C   UNL     1      47.765   5.890  20.359  0.00  0.00    +0.000 A 
ATOM     15  C   UNL     1      46.966   5.797  19.215  0.00  0.00    +0.000 A 
ATOM     16  C   UNL     1      47.400   5.048  18.125  0.00  0.00    +0.000 A 
ATOM     17  C   UNL     1      48.624   4.410  18.213  0.00  0.00    +0.000 A 
ATOM     18  N   UNL     1      49.427   4.472  19.300  0.00  0.00    +0.000 NA
ATOM     19  C   UNL     1      48.977   5.206  20.344  0.00  0.00    +0.000 A 
ENDBRANCH  13  14
ENDBRANCH  11  13
ENDBRANCH  10  11
ENDBRANCH   7  10
ENDBRANCH   1   7
BRANCH   4  20
ATOM     20  C   UNL     1      49.577   7.049  15.369  0.00  0.00    +0.000 C 
BRANCH  20  21
ATOM     21  N   UNL     1      48.316   6.869  14.697  0.00  0.00    +0.000 N 
ATOM     22  C   UNL     1      48.251   6.612  13.353  0.00  0.00    +0.000 C 
ATOM     23  O   UNL     1      49.258   6.495  12.660  0.00  0.00    +0.000 OA
ATOM     24  H   UNL     1      47.487   7.185  15.188  0.00  0.00    +0.000 HD
BRANCH  22  25
ATOM     25  C   UNL     1      46.907   6.420  12.792  0.00  0.00    +0.000 A 
ATOM     26  C   UNL     1      46.229   7.500  12.245  0.00  0.00    +0.000 A 
ATOM     27  S   UNL     1      44.702   7.093  11.600  0.00  0.00    +0.000 S 
ATOM     28  C   UNL     1      44.874   5.469  12.074  0.00  0.00    +0.000 A 
ATOM     29  N   UNL     1      43.885   4.566  11.848  0.00  0.00    +0.000 NA
ATOM     30  C   UNL     1      44.133   3.379  12.288  0.00  0.00    +0.000 A 
ATOM     31  N   UNL     1      45.291   3.011  12.926  0.00  0.00    +0.000 N 
ATOM     32  C   UNL     1      46.332   3.882  13.145  0.00  0.00    +0.000 A 
ATOM     33  O   UNL     1      47.377   3.500  13.671  0.00  0.00    +0.000 OA
ATOM     34  C   UNL     1      46.091   5.235  12.690  0.00  0.00    +0.000 A 
ATOM     35  H   UNL     1      45.431   2.057  13.233  0.00  0.00    +0.000 HD
ENDBRANCH  22  25
ENDBRANCH  20  21
ENDBRANCH   4  20
TORSDOF 9
ENDMDL
