MODEL 1
REMARK VINA RESULT:    -8.126      0.000      0.000
REMARK INTER + INTRA:         -12.239
REMARK INTER:                 -10.976
REMARK INTRA:                  -1.263
REMARK UNBOUND:                -1.263
REMARK  Name = 
REMARK  6 active torsions:
REMARK  status: ('A' for Active; 'I' for Inactive)
REMARK    1  A    between atoms: C_2  and  C_20
REMARK    2  A    between atoms: N_3  and  C_4
REMARK    3  A    between atoms: C_4  and  C_5
REMARK    4  A    between atoms: C_8  and  C_9
REMARK    5  A    between atoms: C_9  and  C_10
REMARK    6  A    between atoms: C_10  and  N_11
REMARK                            x       y       z     vdW  Elec       q    Type
REMARK                         _______ _______ _______ _____ _____    ______ ____
ROOT
ATOM      1  C   UNL     1      47.141   8.229  12.936  0.00  0.00    +0.000 C 
ENDROOT
BRANCH   1   2
ATOM      2  C   UNL     1      46.228   7.179  12.367  0.00  0.00    +0.000 A 
ATOM      3  C   UNL     1      46.588   6.532  11.185  0.00  0.00    +0.000 A 
ATOM      4  C   UNL     1      45.764   5.551  10.636  0.00  0.00    +0.000 A 
ATOM      5  C   UNL     1      44.546   5.200  11.239  0.00  0.00    +0.000 A 
ATOM      6  C   UNL     1      44.168   5.883  12.405  0.00  0.00    +0.000 A 
ATOM      7  C   UNL     1      44.996   6.869  12.959  0.00  0.00    +0.000 A 
BRANCH   5   8
ATOM      8  C   UNL     1      43.636   4.113  10.686  0.00  0.00    +0.000 C 
BRANCH   8   9
ATOM      9  C   UNL     1      44.136   3.485   9.381  0.00  0.00    +0.000 C 
BRANCH   9  10
ATOM     10  N   UNL     1      44.923   2.278   9.596  0.00  0.00    +0.000 N 
ATOM     11  C   UNL     1      45.862   2.103   8.561  0.00  0.00    +0.000 A 
ATOM     12  N   UNL     1      46.349   3.180   7.930  0.00  0.00    +0.000 NA
ATOM     13  C   UNL     1      47.194   2.980   6.914  0.00  0.00    +0.000 A 
ATOM     14  C   UNL     1      47.593   1.730   6.509  0.00  0.00    +0.000 A 
ATOM     15  C   UNL     1      47.052   0.691   7.233  0.00  0.00    +0.000 A 
ATOM     16  N   UNL     1      46.182   0.846   8.248  0.00  0.00    +0.000 NA
ATOM     17  H   UNL     1      44.406   1.407   9.650  0.00  0.00    +0.000 HD
ENDBRANCH   9  10
ENDBRANCH   8   9
ENDBRANCH   5   8
ENDBRANCH   1   2
BRANCH   1  20
ATOM     18  O   UNL     1      49.390   6.726  13.741  0.00  0.00    +0.000 OA
ATOM     19  C   UNL     1      48.566   7.092  14.567  0.00  0.00    +0.000 C 
ATOM     20  N   UNL     1      47.480   7.887  14.286  0.00  0.00    +0.000 N 
ATOM     21  H   UNL     1      46.698   7.827  14.920  0.00  0.00    +0.000 HD
BRANCH  19  22
ATOM     22  C   UNL     1      48.446   6.531  15.901  0.00  0.00    +0.000 A 
ATOM     23  C   UNL     1      48.866   7.226  17.023  0.00  0.00    +0.000 A 
ATOM     24  S   UNL     1      49.390   6.136  18.241  0.00  0.00    +0.000 S 
ATOM     25  C   UNL     1      48.822   4.789  17.354  0.00  0.00    +0.000 A 
ATOM     26  N   UNL     1      49.076   3.508  17.742  0.00  0.00    +0.000 NA
ATOM     27  C   UNL     1      48.504   2.614  17.000  0.00  0.00    +0.000 A 
ATOM     28  N   UNL     1      47.671   2.877  15.945  0.00  0.00    +0.000 N 
ATOM     29  C   UNL     1      47.397   4.160  15.503  0.00  0.00    +0.000 A 
ATOM     30  O   UNL     1      46.611   4.379  14.599  0.00  0.00    +0.000 OA
ATOM     31  C   UNL     1      48.117   5.177  16.242  0.00  0.00    +0.000 A 
ATOM     32  H   UNL     1      47.176   2.131  15.473  0.00  0.00    +0.000 HD
ENDBRANCH  19  22
ENDBRANCH   1  20
TORSDOF 6
ENDMDL
MODEL 2
REMARK VINA RESULT:    -7.843      1.811      2.420
REMARK INTER + INTRA:         -11.857
REMARK INTER:                 -10.960
REMARK INTRA:                  -0.896
REMARK UNBOUND:                -1.263
REMARK  Name = 
REMARK  6 active torsions:
REMARK  status: ('A' for Active; 'I' for Inactive)
REMARK    1  A    between atoms: C_2  and  C_20
REMARK    2  A    between atoms: N_3  and  C_4
REMARK    3  A    between atoms: C_4  and  C_5
REMARK    4  A    between atoms: C_8  and  C_9
REMARK    5  A    between atoms: C_9  and  C_10
REMARK    6  A    between atoms: C_10  and  N_11
REMARK                            x       y       z     vdW  Elec       q    Type
REMARK                         _______ _______ _______ _____ _____    ______ ____
ROOT
ATOM      1  C   UNL     1      48.715   6.887  13.836  0.00  0.00    +0.000 C 
ENDROOT
BRANCH   1   2
ATOM      2  C   UNL     1      47.440   6.425  13.190  0.00  0.00    +0.000 A 
ATOM      3  C   UNL     1      46.712   5.391  13.780  0.00  0.00    +0.000 A 
ATOM      4  C   UNL     1      45.523   4.944  13.207  0.00  0.00    +0.000 A 
ATOM      5  C   UNL     1      45.034   5.502  12.014  0.00  0.00    +0.000 A 
ATOM      6  C   UNL     1      45.790   6.512  11.402  0.00  0.00    +0.000 A 
ATOM      7  C   UNL     1      46.985   6.964  11.979  0.00  0.00    +0.000 A 
BRANCH   5   8
ATOM      8  C   UNL     1      43.725   5.062  11.377  0.00  0.00    +0.000 C 
BRANCH   8   9
ATOM      9  C   UNL     1      43.872   3.904  10.385  0.00  0.00    +0.000 C 
BRANCH   9  10
ATOM     10  N   UNL     1      44.118   4.351   9.020  0.00  0.00    +0.000 N 
ATOM     11  C   UNL     1      45.089   3.544   8.397  0.00  0.00    +0.000 A 
ATOM     12  N   UNL     1      45.213   2.263   8.771  0.00  0.00    +0.000 NA
ATOM     13  C   UNL     1      46.182   1.538   8.203  0.00  0.00    +0.000 A 
ATOM     14  C   UNL     1      47.031   2.042   7.249  0.00  0.00    +0.000 A 
ATOM     15  C   UNL     1      46.810   3.361   6.921  0.00  0.00    +0.000 A 
ATOM     16  N   UNL     1      45.861   4.134   7.482  0.00  0.00    +0.000 NA
ATOM     17  H   UNL     1      44.442   5.307   8.911  0.00  0.00    +0.000 HD
ENDBRANCH   9  10
ENDBRANCH   8   9
ENDBRANCH   5   8
ENDBRANCH   1   2
BRANCH   1  20
ATOM     18  O   UNL     1      50.277   6.111  16.056  0.00  0.00    +0.000 OA
ATOM     19  C   UNL     1      49.247   6.751  16.220  0.00  0.00    +0.000 C 
ATOM     20  N   UNL     1      48.460   7.236  15.203  0.00  0.00    +0.000 N 
ATOM     21  H   UNL     1      47.491   7.413  15.424  0.00  0.00    +0.000 HD
BRANCH  19  22
ATOM     22  C   UNL     1      48.552   6.861  17.490  0.00  0.00    +0.000 A 
ATOM     23  C   UNL     1      48.219   8.091  18.032  0.00  0.00    +0.000 A 
ATOM     24  S   UNL     1      48.212   8.009  19.747  0.00  0.00    +0.000 S 
ATOM     25  C   UNL     1      48.404   6.309  19.717  0.00  0.00    +0.000 A 
ATOM     26  N   UNL     1      48.625   5.587  20.851  0.00  0.00    +0.000 NA
ATOM     27  C   UNL     1      48.666   4.308  20.656  0.00  0.00    +0.000 A 
ATOM     28  N   UNL     1      48.462   3.684  19.453  0.00  0.00    +0.000 N 
ATOM     29  C   UNL     1      48.252   4.375  18.272  0.00  0.00    +0.000 A 
ATOM     30  O   UNL     1      48.017   3.806  17.221  0.00  0.00    +0.000 OA
ATOM     31  C   UNL     1      48.317   5.813  18.441  0.00  0.00    +0.000 A 
ATOM     32  H   UNL     1      48.406   2.676  19.392  0.00  0.00    +0.000 HD
ENDBRANCH  19  22
ENDBRANCH   1  20
TORSDOF 6
ENDMDL
MODEL 3
REMARK VINA RESULT:    -7.817      1.535      1.929
REMARK INTER + INTRA:         -11.822
REMARK INTER:                 -10.913
REMARK INTRA:                  -0.909
REMARK UNBOUND:                -1.263
REMARK  Name = 
REMARK  6 active torsions:
REMARK  status: ('A' for Active; 'I' for Inactive)
REMARK    1  A    between atoms: C_2  and  C_20
REMARK    2  A    between atoms: N_3  and  C_4
REMARK    3  A    between atoms: C_4  and  C_5
REMARK    4  A    between atoms: C_8  and  C_9
REMARK    5  A    between atoms: C_9  and  C_10
REMARK    6  A    between atoms: C_10  and  N_11
REMARK                            x       y       z     vdW  Elec       q    Type
REMARK                         _______ _______ _______ _____ _____    ______ ____
ROOT
ATOM      1  C   UNL     1      48.171   7.367  14.044  0.00  0.00    +0.000 C 
ENDROOT
BRANCH   1   2
ATOM      2  C   UNL     1      47.015   6.785  13.279  0.00  0.00    +0.000 A 
ATOM      3  C   UNL     1      46.674   5.446  13.475  0.00  0.00    +0.000 A 
ATOM      4  C   UNL     1      45.604   4.880  12.784  0.00  0.00    +0.000 A 
ATOM      5  C   UNL     1      44.855   5.627  11.860  0.00  0.00    +0.000 A 
ATOM      6  C   UNL     1      45.228   6.960  11.635  0.00  0.00    +0.000 A 
ATOM      7  C   UNL     1      46.302   7.532  12.331  0.00  0.00    +0.000 A 
BRANCH   5   8
ATOM      8  C   UNL     1      43.662   5.051  11.111  0.00  0.00    +0.000 C 
BRANCH   8   9
ATOM      9  C   UNL     1      44.008   3.868  10.201  0.00  0.00    +0.000 C 
BRANCH   9  10
ATOM     10  N   UNL     1      44.297   4.270   8.831  0.00  0.00    +0.000 N 
ATOM     11  C   UNL     1      45.266   3.425   8.257  0.00  0.00    +0.000 A 
ATOM     12  N   UNL     1      45.355   2.155   8.670  0.00  0.00    +0.000 NA
ATOM     13  C   UNL     1      46.322   1.394   8.149  0.00  0.00    +0.000 A 
ATOM     14  C   UNL     1      47.205   1.853   7.202  0.00  0.00    +0.000 A 
ATOM     15  C   UNL     1      47.019   3.165   6.830  0.00  0.00    +0.000 A 
ATOM     16  N   UNL     1      46.072   3.973   7.344  0.00  0.00    +0.000 NA
ATOM     17  H   UNL     1      44.642   5.216   8.702  0.00  0.00    +0.000 HD
ENDBRANCH   9  10
ENDBRANCH   8   9
ENDBRANCH   5   8
ENDBRANCH   1   2
BRANCH   1  20
ATOM     18  O   UNL     1      48.595   8.245  16.692  0.00  0.00    +0.000 OA
ATOM     19  C   UNL     1      48.727   7.063  16.407  0.00  0.00    +0.000 C 
ATOM     20  N   UNL     1      48.473   6.528  15.166  0.00  0.00    +0.000 N 
ATOM     21  H   UNL     1      48.945   5.665  14.938  0.00  0.00    +0.000 HD
BRANCH  19  22
ATOM     22  C   UNL     1      49.427   6.098  17.236  0.00  0.00    +0.000 A 
ATOM     23  C   UNL     1      50.569   6.438  17.941  0.00  0.00    +0.000 A 
ATOM     24  S   UNL     1      51.599   5.075  18.108  0.00  0.00    +0.000 S 
ATOM     25  C   UNL     1      50.405   4.030  17.467  0.00  0.00    +0.000 A 
ATOM     26  N   UNL     1      50.665   2.724  17.182  0.00  0.00    +0.000 NA
ATOM     27  C   UNL     1      49.629   2.060  16.781  0.00  0.00    +0.000 A 
ATOM     28  N   UNL     1      48.357   2.563  16.682  0.00  0.00    +0.000 N 
ATOM     29  C   UNL     1      48.048   3.886  16.943  0.00  0.00    +0.000 A 
ATOM     30  O   UNL     1      46.904   4.303  16.905  0.00  0.00    +0.000 OA
ATOM     31  C   UNL     1      49.211   4.681  17.282  0.00  0.00    +0.000 A 
ATOM     32  H   UNL     1      47.575   1.960  16.460  0.00  0.00    +0.000 HD
ENDBRANCH  19  22
ENDBRANCH   1  20
TORSDOF 6
ENDMDL
MODEL 4
REMARK VINA RESULT:    -7.204      2.065      2.865
REMARK INTER + INTRA:         -10.995
REMARK INTER:                 -10.000
REMARK INTRA:                  -0.995
REMARK UNBOUND:                -1.263
REMARK  Name = 
REMARK  6 active torsions:
REMARK  status: ('A' for Active; 'I' for Inactive)
REMARK    1  A    between atoms: C_2  and  C_20
REMARK    2  A    between atoms: N_3  and  C_4
REMARK    3  A    between atoms: C_4  and  C_5
REMARK    4  A    between atoms: C_8  and  C_9
REMARK    5  A    between atoms: C_9  and  C_10
REMARK    6  A    between atoms: C_10  and  N_11
REMARK                            x       y       z     vdW  Elec       q    Type
REMARK                         _______ _______ _______ _____ _____    ______ ____
ROOT
ATOM      1  C   UNL     1      48.313   6.852  13.636  0.00  0.00    +0.000 C 
ENDROOT
BRANCH   1   2
ATOM      2  C   UNL     1      47.137   6.160  13.005  0.00  0.00    +0.000 A 
ATOM      3  C   UNL     1      46.530   5.099  13.676  0.00  0.00    +0.000 A 
ATOM      4  C   UNL     1      45.435   4.441  13.118  0.00  0.00    +0.000 A 
ATOM      5  C   UNL     1      44.925   4.810  11.863  0.00  0.00    +0.000 A 
ATOM      6  C   UNL     1      45.564   5.850  11.172  0.00  0.00    +0.000 A 
ATOM      7  C   UNL     1      46.664   6.514  11.733  0.00  0.00    +0.000 A 
BRANCH   5   8
ATOM      8  C   UNL     1      43.713   4.136  11.237  0.00  0.00    +0.000 C 
BRANCH   8   9
ATOM      9  C   UNL     1      43.991   3.491   9.875  0.00  0.00    +0.000 C 
BRANCH   9  10
ATOM     10  N   UNL     1      44.992   2.434   9.940  0.00  0.00    +0.000 N 
ATOM     11  C   UNL     1      45.763   2.405   8.762  0.00  0.00    +0.000 A 
ATOM     12  N   UNL     1      45.954   3.540   8.076  0.00  0.00    +0.000 NA
ATOM     13  C   UNL     1      46.642   3.470   6.932  0.00  0.00    +0.000 A 
ATOM     14  C   UNL     1      47.171   2.298   6.448  0.00  0.00    +0.000 A 
ATOM     15  C   UNL     1      46.936   1.193   7.235  0.00  0.00    +0.000 A 
ATOM     16  N   UNL     1      46.231   1.214   8.382  0.00  0.00    +0.000 NA
ATOM     17  H   UNL     1      44.642   1.490  10.065  0.00  0.00    +0.000 HD
ENDBRANCH   9  10
ENDBRANCH   8   9
ENDBRANCH   5   8
ENDBRANCH   1   2
BRANCH   1  20
ATOM     18  O   UNL     1      50.565   6.933  15.335  0.00  0.00    +0.000 OA
ATOM     19  C   UNL     1      49.471   6.613  15.777  0.00  0.00    +0.000 C 
ATOM     20  N   UNL     1      48.305   6.614  15.049  0.00  0.00    +0.000 N 
ATOM     21  H   UNL     1      47.566   6.009  15.376  0.00  0.00    +0.000 HD
BRANCH  19  22
ATOM     22  C   UNL     1      49.275   5.926  17.042  0.00  0.00    +0.000 A 
ATOM     23  C   UNL     1      49.080   4.557  17.103  0.00  0.00    +0.000 A 
ATOM     24  S   UNL     1      48.094   4.151  18.448  0.00  0.00    +0.000 S 
ATOM     25  C   UNL     1      48.158   5.753  19.044  0.00  0.00    +0.000 A 
ATOM     26  N   UNL     1      47.404   6.161  20.102  0.00  0.00    +0.000 NA
ATOM     27  C   UNL     1      47.636   7.380  20.470  0.00  0.00    +0.000 A 
ATOM     28  N   UNL     1      48.576   8.209  19.915  0.00  0.00    +0.000 N 
ATOM     29  C   UNL     1      49.352   7.845  18.829  0.00  0.00    +0.000 A 
ATOM     30  O   UNL     1      50.223   8.572  18.382  0.00  0.00    +0.000 OA
ATOM     31  C   UNL     1      49.032   6.526  18.322  0.00  0.00    +0.000 A 
ATOM     32  H   UNL     1      48.776   9.114  20.319  0.00  0.00    +0.000 HD
ENDBRANCH  19  22
ENDBRANCH   1  20
TORSDOF 6
ENDMDL
MODEL 5
REMARK VINA RESULT:    -7.170      3.192      5.314
REMARK INTER + INTRA:         -10.948
REMARK INTER:                  -9.773
REMARK INTRA:                  -1.175
REMARK UNBOUND:                -1.263
REMARK  Name = 
REMARK  6 active torsions:
REMARK  status: ('A' for Active; 'I' for Inactive)
REMARK    1  A    between atoms: C_2  and  C_20
REMARK    2  A    between atoms: N_3  and  C_4
REMARK    3  A    between atoms: C_4  and  C_5
REMARK    4  A    between atoms: C_8  and  C_9
REMARK    5  A    between atoms: C_9  and  C_10
REMARK    6  A    between atoms: C_10  and  N_11
REMARK                            x       y       z     vdW  Elec       q    Type
REMARK                         _______ _______ _______ _____ _____    ______ ____
ROOT
ATOM      1  C   UNL     1      48.163   6.476  13.425  0.00  0.00    +0.000 C 
ENDROOT
BRANCH   1   2
ATOM      2  C   UNL     1      47.060   5.649  12.826  0.00  0.00    +0.000 A 
ATOM      3  C   UNL     1      46.707   4.443  13.432  0.00  0.00    +0.000 A 
ATOM      4  C   UNL     1      45.685   3.657  12.903  0.00  0.00    +0.000 A 
ATOM      5  C   UNL     1      44.997   4.040  11.740  0.00  0.00    +0.000 A 
ATOM      6  C   UNL     1      45.384   5.233  11.110  0.00  0.00    +0.000 A 
ATOM      7  C   UNL     1      46.410   6.026  11.643  0.00  0.00    +0.000 A 
BRANCH   5   8
ATOM      8  C   UNL     1      43.857   3.224  11.151  0.00  0.00    +0.000 C 
BRANCH   8   9
ATOM      9  C   UNL     1      44.109   2.740   9.720  0.00  0.00    +0.000 C 
BRANCH   9  10
ATOM     10  N   UNL     1      45.207   1.787   9.626  0.00  0.00    +0.000 N 
ATOM     11  C   UNL     1      45.964   2.012   8.460  0.00  0.00    +0.000 A 
ATOM     12  N   UNL     1      46.037   3.250   7.955  0.00  0.00    +0.000 NA
ATOM     13  C   UNL     1      46.715   3.422   6.816  0.00  0.00    +0.000 A 
ATOM     14  C   UNL     1      47.349   2.393   6.162  0.00  0.00    +0.000 A 
ATOM     15  C   UNL     1      47.230   1.164   6.771  0.00  0.00    +0.000 A 
ATOM     16  N   UNL     1      46.540   0.943   7.905  0.00  0.00    +0.000 NA
ATOM     17  H   UNL     1      44.951   0.806   9.605  0.00  0.00    +0.000 HD
ENDBRANCH   9  10
ENDBRANCH   8   9
ENDBRANCH   5   8
ENDBRANCH   1   2
BRANCH   1  20
ATOM     18  O   UNL     1      47.883   9.142  14.308  0.00  0.00    +0.000 OA
ATOM     19  C   UNL     1      48.141   8.905  13.137  0.00  0.00    +0.000 C 
ATOM     20  N   UNL     1      48.368   7.648  12.627  0.00  0.00    +0.000 N 
ATOM     21  H   UNL     1      48.209   7.525  11.638  0.00  0.00    +0.000 HD
BRANCH  19  22
ATOM     22  C   UNL     1      47.980   9.864  12.058  0.00  0.00    +0.000 A 
ATOM     23  C   UNL     1      49.068  10.382  11.377  0.00  0.00    +0.000 A 
ATOM     24  S   UNL     1      48.729  11.971  10.825  0.00  0.00    +0.000 S 
ATOM     25  C   UNL     1      47.086  11.835  11.283  0.00  0.00    +0.000 A 
ATOM     26  N   UNL     1      46.232  12.895  11.235  0.00  0.00    +0.000 NA
ATOM     27  C   UNL     1      45.010  12.596  11.539  0.00  0.00    +0.000 A 
ATOM     28  N   UNL     1      44.555  11.338  11.840  0.00  0.00    +0.000 N 
ATOM     29  C   UNL     1      45.387  10.235  11.918  0.00  0.00    +0.000 A 
ATOM     30  O   UNL     1      44.958   9.115  12.131  0.00  0.00    +0.000 OA
ATOM     31  C   UNL     1      46.781  10.563  11.696  0.00  0.00    +0.000 A 
ATOM     32  H   UNL     1      43.567  11.158  11.967  0.00  0.00    +0.000 HD
ENDBRANCH  19  22
ENDBRANCH   1  20
TORSDOF 6
ENDMDL
MODEL 6
REMARK VINA RESULT:    -6.863      4.217      9.001
REMARK INTER + INTRA:         -10.534
REMARK INTER:                  -9.639
REMARK INTRA:                  -0.894
REMARK UNBOUND:                -1.263
REMARK  Name = 
REMARK  6 active torsions:
REMARK  status: ('A' for Active; 'I' for Inactive)
REMARK    1  A    between atoms: C_2  and  C_20
REMARK    2  A    between atoms: N_3  and  C_4
REMARK    3  A    between atoms: C_4  and  C_5
REMARK    4  A    between atoms: C_8  and  C_9
REMARK    5  A    between atoms: C_9  and  C_10
REMARK    6  A    between atoms: C_10  and  N_11
REMARK                            x       y       z     vdW  Elec       q    Type
REMARK                         _______ _______ _______ _____ _____    ______ ____
ROOT
ATOM      1  C   UNL     1      47.056   3.670  16.720  0.00  0.00    +0.000 C 
ENDROOT
BRANCH   1   2
ATOM      2  C   UNL     1      48.512   3.508  17.057  0.00  0.00    +0.000 A 
ATOM      3  C   UNL     1      49.255   4.630  17.423  0.00  0.00    +0.000 A 
ATOM      4  C   UNL     1      50.606   4.511  17.745  0.00  0.00    +0.000 A 
ATOM      5  C   UNL     1      51.261   3.270  17.691  0.00  0.00    +0.000 A 
ATOM      6  C   UNL     1      50.521   2.151  17.282  0.00  0.00    +0.000 A 
ATOM      7  C   UNL     1      49.161   2.270  16.960  0.00  0.00    +0.000 A 
BRANCH   5   8
ATOM      8  C   UNL     1      52.726   3.096  18.065  0.00  0.00    +0.000 C 
BRANCH   8   9
ATOM      9  C   UNL     1      53.310   1.733  17.683  0.00  0.00    +0.000 C 
BRANCH   9  10
ATOM     10  N   UNL     1      53.804   0.984  18.832  0.00  0.00    +0.000 N 
ATOM     11  C   UNL     1      54.196  -0.314  18.449  0.00  0.00    +0.000 A 
ATOM     12  N   UNL     1      54.644  -0.522  17.204  0.00  0.00    +0.000 NA
ATOM     13  C   UNL     1      54.954  -1.774  16.853  0.00  0.00    +0.000 A 
ATOM     14  C   UNL     1      54.852  -2.839  17.715  0.00  0.00    +0.000 A 
ATOM     15  C   UNL     1      54.401  -2.517  18.975  0.00  0.00    +0.000 A 
ATOM     16  N   UNL     1      54.057  -1.275  19.365  0.00  0.00    +0.000 NA
ATOM     17  H   UNL     1      53.154   0.861  19.602  0.00  0.00    +0.000 HD
ENDBRANCH   9  10
ENDBRANCH   8   9
ENDBRANCH   5   8
ENDBRANCH   1   2
BRANCH   1  20
ATOM     18  O   UNL     1      47.206   3.283  13.929  0.00  0.00    +0.000 OA
ATOM     19  C   UNL     1      47.062   4.407  14.388  0.00  0.00    +0.000 C 
ATOM     20  N   UNL     1      46.906   4.690  15.724  0.00  0.00    +0.000 N 
ATOM     21  H   UNL     1      47.159   5.619  16.024  0.00  0.00    +0.000 HD
BRANCH  19  22
ATOM     22  C   UNL     1      47.308   5.628  13.641  0.00  0.00    +0.000 A 
ATOM     23  C   UNL     1      48.300   6.520  14.011  0.00  0.00    +0.000 A 
ATOM     24  S   UNL     1      47.861   8.121  13.574  0.00  0.00    +0.000 S 
ATOM     25  C   UNL     1      46.502   7.564  12.698  0.00  0.00    +0.000 A 
ATOM     26  N   UNL     1      45.578   8.419  12.177  0.00  0.00    +0.000 NA
ATOM     27  C   UNL     1      44.660   7.833  11.477  0.00  0.00    +0.000 A 
ATOM     28  N   UNL     1      44.604   6.489  11.212  0.00  0.00    +0.000 N 
ATOM     29  C   UNL     1      45.509   5.581  11.732  0.00  0.00    +0.000 A 
ATOM     30  O   UNL     1      45.479   4.398  11.442  0.00  0.00    +0.000 OA
ATOM     31  C   UNL     1      46.480   6.194  12.615  0.00  0.00    +0.000 A 
ATOM     32  H   UNL     1      43.917   6.113  10.571  0.00  0.00    +0.000 HD
ENDBRANCH  19  22
ENDBRANCH   1  20
TORSDOF 6
ENDMDL
MODEL 7
REMARK VINA RESULT:    -6.745      3.307      9.018
REMARK INTER + INTRA:         -10.374
REMARK INTER:                  -9.412
REMARK INTRA:                  -0.962
REMARK UNBOUND:                -1.263
REMARK  Name = 
REMARK  6 active torsions:
REMARK  status: ('A' for Active; 'I' for Inactive)
REMARK    1  A    between atoms: C_2  and  C_20
REMARK    2  A    between atoms: N_3  and  C_4
REMARK    3  A    between atoms: C_4  and  C_5
REMARK    4  A    between atoms: C_8  and  C_9
REMARK    5  A    between atoms: C_9  and  C_10
REMARK    6  A    between atoms: C_10  and  N_11
REMARK                            x       y       z     vdW  Elec       q    Type
REMARK                         _______ _______ _______ _____ _____    ______ ____
ROOT
ATOM      1  C   UNL     1      47.848   6.729  12.642  0.00  0.00    +0.000 C 
ENDROOT
BRANCH   1   2
ATOM      2  C   UNL     1      47.879   6.037  13.976  0.00  0.00    +0.000 A 
ATOM      3  C   UNL     1      48.664   6.565  15.000  0.00  0.00    +0.000 A 
ATOM      4  C   UNL     1      48.709   5.949  16.249  0.00  0.00    +0.000 A 
ATOM      5  C   UNL     1      47.987   4.773  16.508  0.00  0.00    +0.000 A 
ATOM      6  C   UNL     1      47.231   4.221  15.463  0.00  0.00    +0.000 A 
ATOM      7  C   UNL     1      47.184   4.842  14.206  0.00  0.00    +0.000 A 
BRANCH   5   8
ATOM      8  C   UNL     1      47.987   4.089  17.867  0.00  0.00    +0.000 C 
BRANCH   8   9
ATOM      9  C   UNL     1      48.611   4.928  18.987  0.00  0.00    +0.000 C 
BRANCH   9  10
ATOM     10  N   UNL     1      47.727   5.094  20.133  0.00  0.00    +0.000 N 
ATOM     11  C   UNL     1      47.536   6.459  20.423  0.00  0.00    +0.000 A 
ATOM     12  N   UNL     1      47.607   7.355  19.429  0.00  0.00    +0.000 NA
ATOM     13  C   UNL     1      47.479   8.647  19.743  0.00  0.00    +0.000 A 
ATOM     14  C   UNL     1      47.261   9.087  21.026  0.00  0.00    +0.000 A 
ATOM     15  C   UNL     1      47.186   8.088  21.971  0.00  0.00    +0.000 A 
ATOM     16  N   UNL     1      47.330   6.777  21.702  0.00  0.00    +0.000 NA
ATOM     17  H   UNL     1      48.031   4.667  21.002  0.00  0.00    +0.000 HD
ENDBRANCH   9  10
ENDBRANCH   8   9
ENDBRANCH   5   8
ENDBRANCH   1   2
BRANCH   1  20
ATOM     18  O   UNL     1      45.641   8.224  11.716  0.00  0.00    +0.000 OA
ATOM     19  C   UNL     1      45.695   7.019  11.517  0.00  0.00    +0.000 C 
ATOM     20  N   UNL     1      46.759   6.219  11.863  0.00  0.00    +0.000 N 
ATOM     21  H   UNL     1      46.564   5.237  11.994  0.00  0.00    +0.000 HD
BRANCH  19  22
ATOM     22  C   UNL     1      44.553   6.204  11.143  0.00  0.00    +0.000 A 
ATOM     23  C   UNL     1      43.327   6.338  11.771  0.00  0.00    +0.000 A 
ATOM     24  S   UNL     1      42.491   4.840  11.780  0.00  0.00    +0.000 S 
ATOM     25  C   UNL     1      43.653   4.125  10.748  0.00  0.00    +0.000 A 
ATOM     26  N   UNL     1      43.642   2.794  10.458  0.00  0.00    +0.000 NA
ATOM     27  C   UNL     1      44.544   2.439   9.600  0.00  0.00    +0.000 A 
ATOM     28  N   UNL     1      45.418   3.288   8.973  0.00  0.00    +0.000 N 
ATOM     29  C   UNL     1      45.478   4.643   9.247  0.00  0.00    +0.000 A 
ATOM     30  O   UNL     1      46.222   5.394   8.641  0.00  0.00    +0.000 OA
ATOM     31  C   UNL     1      44.559   5.050  10.291  0.00  0.00    +0.000 A 
ATOM     32  H   UNL     1      46.027   2.958   8.236  0.00  0.00    +0.000 HD
ENDBRANCH  19  22
ENDBRANCH   1  20
TORSDOF 6
ENDMDL
MODEL 8
REMARK VINA RESULT:    -6.700      2.415      4.231
REMARK INTER + INTRA:         -10.313
REMARK INTER:                  -9.427
REMARK INTRA:                  -0.887
REMARK UNBOUND:                -1.263
REMARK  Name = 
REMARK  6 active torsions:
REMARK  status: ('A' for Active; 'I' for Inactive)
REMARK    1  A    between atoms: C_2  and  C_20
REMARK    2  A    between atoms: N_3  and  C_4
REMARK    3  A    between atoms: C_4  and  C_5
REMARK    4  A    between atoms: C_8  and  C_9
REMARK    5  A    between atoms: C_9  and  C_10
REMARK    6  A    between atoms: C_10  and  N_11
REMARK                            x       y       z     vdW  Elec       q    Type
REMARK                         _______ _______ _______ _____ _____    ______ ____
ROOT
ATOM      1  C   UNL     1      47.701   5.815  14.328  0.00  0.00    +0.000 C 
ENDROOT
BRANCH   1   2
ATOM      2  C   UNL     1      46.703   5.518  13.243  0.00  0.00    +0.000 A 
ATOM      3  C   UNL     1      45.850   4.424  13.384  0.00  0.00    +0.000 A 
ATOM      4  C   UNL     1      44.912   4.126  12.398  0.00  0.00    +0.000 A 
ATOM      5  C   UNL     1      44.810   4.900  11.230  0.00  0.00    +0.000 A 
ATOM      6  C   UNL     1      45.698   5.974  11.073  0.00  0.00    +0.000 A 
ATOM      7  C   UNL     1      46.641   6.276  12.066  0.00  0.00    +0.000 A 
BRANCH   5   8
ATOM      8  C   UNL     1      43.778   4.623  10.147  0.00  0.00    +0.000 C 
BRANCH   8   9
ATOM      9  C   UNL     1      44.328   3.854   8.942  0.00  0.00    +0.000 C 
BRANCH   9  10
ATOM     10  N   UNL     1      44.944   2.586   9.310  0.00  0.00    +0.000 N 
ATOM     11  C   UNL     1      45.932   2.222   8.375  0.00  0.00    +0.000 A 
ATOM     12  N   UNL     1      46.593   3.181   7.714  0.00  0.00    +0.000 NA
ATOM     13  C   UNL     1      47.485   2.804   6.792  0.00  0.00    +0.000 A 
ATOM     14  C   UNL     1      47.760   1.487   6.513  0.00  0.00    +0.000 A 
ATOM     15  C   UNL     1      47.042   0.579   7.259  0.00  0.00    +0.000 A 
ATOM     16  N   UNL     1      46.121   0.915   8.182  0.00  0.00    +0.000 NA
ATOM     17  H   UNL     1      44.322   1.787   9.381  0.00  0.00    +0.000 HD
ENDBRANCH   9  10
ENDBRANCH   8   9
ENDBRANCH   5   8
ENDBRANCH   1   2
BRANCH   1  20
ATOM     18  O   UNL     1      50.169   6.628  15.429  0.00  0.00    +0.000 OA
ATOM     19  C   UNL     1      49.566   7.363  14.660  0.00  0.00    +0.000 C 
ATOM     20  N   UNL     1      48.398   7.028  14.017  0.00  0.00    +0.000 N 
ATOM     21  H   UNL     1      47.811   7.792  13.717  0.00  0.00    +0.000 HD
BRANCH  19  22
ATOM     22  C   UNL     1      49.830   8.784  14.518  0.00  0.00    +0.000 A 
ATOM     23  C   UNL     1      50.281   9.549  15.580  0.00  0.00    +0.000 A 
ATOM     24  S   UNL     1      49.727  11.167  15.431  0.00  0.00    +0.000 S 
ATOM     25  C   UNL     1      49.121  10.869  13.859  0.00  0.00    +0.000 A 
ATOM     26  N   UNL     1      48.375  11.789  13.186  0.00  0.00    +0.000 NA
ATOM     27  C   UNL     1      48.067  11.431  11.980  0.00  0.00    +0.000 A 
ATOM     28  N   UNL     1      48.471  10.271  11.373  0.00  0.00    +0.000 N 
ATOM     29  C   UNL     1      49.213   9.300  12.021  0.00  0.00    +0.000 A 
ATOM     30  O   UNL     1      49.611   8.300  11.450  0.00  0.00    +0.000 OA
ATOM     31  C   UNL     1      49.473   9.621  13.410  0.00  0.00    +0.000 A 
ATOM     32  H   UNL     1      48.280  10.102  10.393  0.00  0.00    +0.000 HD
ENDBRANCH  19  22
ENDBRANCH   1  20
TORSDOF 6
ENDMDL
MODEL 9
REMARK VINA RESULT:    -6.683      3.109      7.589
REMARK INTER + INTRA:         -10.290
REMARK INTER:                  -9.156
REMARK INTRA:                  -1.134
REMARK UNBOUND:                -1.263
REMARK  Name = 
REMARK  6 active torsions:
REMARK  status: ('A' for Active; 'I' for Inactive)
REMARK    1  A    between atoms: C_2  and  C_20
REMARK    2  A    between atoms: N_3  and  C_4
REMARK    3  A    between atoms: C_4  and  C_5
REMARK    4  A    between atoms: C_8  and  C_9
REMARK    5  A    between atoms: C_9  and  C_10
REMARK    6  A    between atoms: C_10  and  N_11
REMARK                            x       y       z     vdW  Elec       q    Type
REMARK                         _______ _______ _______ _____ _____    ______ ____
ROOT
ATOM      1  C   UNL     1      46.562   8.501  12.875  0.00  0.00    +0.000 C 
ENDROOT
BRANCH   1   2
ATOM      2  C   UNL     1      47.699   8.299  13.837  0.00  0.00    +0.000 A 
ATOM      3  C   UNL     1      47.794   9.119  14.962  0.00  0.00    +0.000 A 
ATOM      4  C   UNL     1      48.834   8.953  15.873  0.00  0.00    +0.000 A 
ATOM      5  C   UNL     1      49.826   7.977  15.679  0.00  0.00    +0.000 A 
ATOM      6  C   UNL     1      49.751   7.183  14.525  0.00  0.00    +0.000 A 
ATOM      7  C   UNL     1      48.703   7.348  13.608  0.00  0.00    +0.000 A 
BRANCH   5   8
ATOM      8  C   UNL     1      50.958   7.747  16.669  0.00  0.00    +0.000 C 
BRANCH   8   9
ATOM      9  C   UNL     1      50.711   6.591  17.643  0.00  0.00    +0.000 C 
BRANCH   9  10
ATOM     10  N   UNL     1      49.308   6.210  17.729  0.00  0.00    +0.000 N 
ATOM     11  C   UNL     1      49.141   4.846  17.417  0.00  0.00    +0.000 A 
ATOM     12  N   UNL     1      50.139   3.990  17.670  0.00  0.00    +0.000 NA
ATOM     13  C   UNL     1      49.973   2.713  17.310  0.00  0.00    +0.000 A 
ATOM     14  C   UNL     1      48.825   2.248  16.716  0.00  0.00    +0.000 A 
ATOM     15  C   UNL     1      47.854   3.202  16.515  0.00  0.00    +0.000 A 
ATOM     16  N   UNL     1      47.986   4.501  16.843  0.00  0.00    +0.000 NA
ATOM     17  H   UNL     1      48.667   6.713  17.125  0.00  0.00    +0.000 HD
ENDBRANCH   9  10
ENDBRANCH   8   9
ENDBRANCH   5   8
ENDBRANCH   1   2
BRANCH   1  20
ATOM     18  O   UNL     1      44.344   7.751  11.299  0.00  0.00    +0.000 OA
ATOM     19  C   UNL     1      45.373   7.091  11.268  0.00  0.00    +0.000 C 
ATOM     20  N   UNL     1      46.528   7.415  11.940  0.00  0.00    +0.000 N 
ATOM     21  H   UNL     1      47.162   6.657  12.144  0.00  0.00    +0.000 HD
BRANCH  19  22
ATOM     22  C   UNL     1      45.456   5.737  10.750  0.00  0.00    +0.000 A 
ATOM     23  C   UNL     1      45.804   5.482   9.434  0.00  0.00    +0.000 A 
ATOM     24  S   UNL     1      45.050   4.042   8.883  0.00  0.00    +0.000 S 
ATOM     25  C   UNL     1      44.493   3.670  10.458  0.00  0.00    +0.000 A 
ATOM     26  N   UNL     1      43.640   2.636  10.697  0.00  0.00    +0.000 NA
ATOM     27  C   UNL     1      43.384   2.448  11.952  0.00  0.00    +0.000 A 
ATOM     28  N   UNL     1      43.933   3.162  12.986  0.00  0.00    +0.000 N 
ATOM     29  C   UNL     1      44.789   4.231  12.791  0.00  0.00    +0.000 A 
ATOM     30  O   UNL     1      45.313   4.819  13.722  0.00  0.00    +0.000 OA
ATOM     31  C   UNL     1      45.001   4.538  11.391  0.00  0.00    +0.000 A 
ATOM     32  H   UNL     1      43.769   2.894  13.948  0.00  0.00    +0.000 HD
ENDBRANCH  19  22
ENDBRANCH   1  20
TORSDOF 6
ENDMDL
