MODEL 1
REMARK VINA RESULT:    -7.882      0.000      0.000
REMARK INTER + INTRA:         -11.346
REMARK INTER:                 -10.416
REMARK INTRA:                  -0.930
REMARK UNBOUND:                -0.930
REMARK  Name = 
REMARK  6 active torsions:
REMARK  status: ('A' for Active; 'I' for Inactive)
REMARK    1  A    between atoms: C_2  and  C_3
REMARK    2  A    between atoms: C_6  and  C_7
REMARK    3  A    between atoms: C_7  and  N_8
REMARK    4  A    between atoms: N_8  and  C_9
REMARK    5  A    between atoms: C_11  and  C_12
REMARK    6  A    between atoms: C_21  and  O_22
REMARK                            x       y       z     vdW  Elec       q    Type
REMARK                         _______ _______ _______ _____ _____    ______ ____
ROOT
ATOM      1  C   UNL     1      44.933   4.849  12.154  0.00  0.00    +0.000 A 
ATOM      2  N   UNL     1      45.050   6.188  12.021  0.00  0.00    +0.000 NA
ATOM      3  C   UNL     1      46.132   6.817  12.542  0.00  0.00    +0.000 A 
ATOM      4  C   UNL     1      47.109   6.132  13.259  0.00  0.00    +0.000 A 
ATOM      5  C   UNL     1      46.984   4.760  13.429  0.00  0.00    +0.000 A 
ATOM      6  C   UNL     1      45.896   4.108  12.859  0.00  0.00    +0.000 A 
ENDROOT
BRANCH   3   7
ATOM      7  C   UNL     1      46.229   8.257  12.247  0.00  0.00    +0.000 A 
ATOM      8  C   UNL     1      47.476   8.911  12.216  0.00  0.00    +0.000 A 
ATOM      9  C   UNL     1      47.570  10.290  12.005  0.00  0.00    +0.000 A 
ATOM     10  C   UNL     1      46.414  11.044  11.824  0.00  0.00    +0.000 A 
ATOM     11  C   UNL     1      45.181  10.408  11.834  0.00  0.00    +0.000 A 
ATOM     12  F   UNL     1      44.063  11.127  11.665  0.00  0.00    +0.000 F 
ATOM     13  C   UNL     1      45.079   9.037  12.037  0.00  0.00    +0.000 A 
ENDBRANCH   3   7
BRANCH   1  14
ATOM     14  N   UNL     1      43.822   4.196  11.576  0.00  0.00    +0.000 N 
ATOM     15  H   UNL     1      43.909   3.206  11.786  0.00  0.00    +0.000 HD
BRANCH  14  16
ATOM     16  C   UNL     1      43.666   4.459  10.147  0.00  0.00    +0.000 C 
BRANCH  16  20
ATOM     17  C   UNL     1      46.580   2.493   7.593  0.00  0.00    +0.000 A 
ATOM     18  C   UNL     1      45.791   1.733   8.464  0.00  0.00    +0.000 A 
ATOM     19  C   UNL     1      44.861   2.355   9.304  0.00  0.00    +0.000 A 
ATOM     20  C   UNL     1      44.715   3.752   9.306  0.00  0.00    +0.000 A 
ATOM     21  C   UNL     1      45.505   4.504   8.418  0.00  0.00    +0.000 A 
ATOM     22  C   UNL     1      46.431   3.886   7.573  0.00  0.00    +0.000 A 
BRANCH  17  24
ATOM     23  N   UNL     1      48.278   1.334   6.006  0.00  0.00    +0.000 NA
ATOM     24  C   UNL     1      47.519   1.855   6.719  0.00  0.00    +0.000 C 
ENDBRANCH  17  24
ENDBRANCH  16  20
ENDBRANCH  14  16
ENDBRANCH   1  14
BRANCH   6  25
ATOM     25  O   UNL     1      45.790   2.747  12.972  0.00  0.00    +0.000 OA
ATOM     26  H   UNL     1      46.299   2.461  13.748  0.00  0.00    +0.000 HD
ENDBRANCH   6  25
TORSDOF 6
ENDMDL
MODEL 2
REMARK VINA RESULT:    -7.486      3.299      7.043
REMARK INTER + INTRA:         -10.822
REMARK INTER:                 -10.207
REMARK INTRA:                  -0.615
REMARK UNBOUND:                -0.930
REMARK  Name = 
REMARK  6 active torsions:
REMARK  status: ('A' for Active; 'I' for Inactive)
REMARK    1  A    between atoms: C_2  and  C_3
REMARK    2  A    between atoms: C_6  and  C_7
REMARK    3  A    between atoms: C_7  and  N_8
REMARK    4  A    between atoms: N_8  and  C_9
REMARK    5  A    between atoms: C_11  and  C_12
REMARK    6  A    between atoms: C_21  and  O_22
REMARK                            x       y       z     vdW  Elec       q    Type
REMARK                         _______ _______ _______ _____ _____    ______ ____
ROOT
ATOM      1  C   UNL     1      44.127   5.604  11.275  0.00  0.00    +0.000 A 
ATOM      2  N   UNL     1      44.872   5.020  10.312  0.00  0.00    +0.000 NA
ATOM      3  C   UNL     1      44.727   3.695  10.069  0.00  0.00    +0.000 A 
ATOM      4  C   UNL     1      43.866   2.898  10.819  0.00  0.00    +0.000 A 
ATOM      5  C   UNL     1      43.117   3.480  11.833  0.00  0.00    +0.000 A 
ATOM      6  C   UNL     1      43.235   4.848  12.054  0.00  0.00    +0.000 A 
ENDROOT
BRANCH   3   7
ATOM      7  C   UNL     1      45.496   3.174   8.926  0.00  0.00    +0.000 A 
ATOM      8  C   UNL     1      45.941   4.028   7.899  0.00  0.00    +0.000 A 
ATOM      9  C   UNL     1      46.612   3.531   6.777  0.00  0.00    +0.000 A 
ATOM     10  C   UNL     1      46.850   2.164   6.661  0.00  0.00    +0.000 A 
ATOM     11  C   UNL     1      46.432   1.314   7.676  0.00  0.00    +0.000 A 
ATOM     12  F   UNL     1      46.653  -0.003   7.570  0.00  0.00    +0.000 F 
ATOM     13  C   UNL     1      45.771   1.802   8.796  0.00  0.00    +0.000 A 
ENDBRANCH   3   7
BRANCH   1  14
ATOM     14  N   UNL     1      44.256   6.993  11.497  0.00  0.00    +0.000 N 
ATOM     15  H   UNL     1      44.592   7.408  10.632  0.00  0.00    +0.000 HD
BRANCH  14  16
ATOM     16  C   UNL     1      45.093   7.328  12.647  0.00  0.00    +0.000 C 
BRANCH  16  20
ATOM     17  C   UNL     1      48.965   9.022  11.634  0.00  0.00    +0.000 A 
ATOM     18  C   UNL     1      47.890   9.867  11.935  0.00  0.00    +0.000 A 
ATOM     19  C   UNL     1      46.634   9.335  12.245  0.00  0.00    +0.000 A 
ATOM     20  C   UNL     1      46.420   7.947  12.242  0.00  0.00    +0.000 A 
ATOM     21  C   UNL     1      47.510   7.108  11.950  0.00  0.00    +0.000 A 
ATOM     22  C   UNL     1      48.768   7.635  11.645  0.00  0.00    +0.000 A 
BRANCH  17  24
ATOM     23  N   UNL     1      51.305  10.012  11.095  0.00  0.00    +0.000 NA
ATOM     24  C   UNL     1      50.256   9.566  11.334  0.00  0.00    +0.000 C 
ENDBRANCH  17  24
ENDBRANCH  16  20
ENDBRANCH  14  16
ENDBRANCH   1  14
BRANCH   6  25
ATOM     25  O   UNL     1      42.461   5.444  13.013  0.00  0.00    +0.000 OA
ATOM     26  H   UNL     1      41.576   5.045  12.988  0.00  0.00    +0.000 HD
ENDBRANCH   6  25
TORSDOF 6
ENDMDL
MODEL 3
REMARK VINA RESULT:    -7.325      2.170      2.791
REMARK INTER + INTRA:         -10.610
REMARK INTER:                 -10.608
REMARK INTRA:                  -0.002
REMARK UNBOUND:                -0.930
REMARK  Name = 
REMARK  6 active torsions:
REMARK  status: ('A' for Active; 'I' for Inactive)
REMARK    1  A    between atoms: C_2  and  C_3
REMARK    2  A    between atoms: C_6  and  C_7
REMARK    3  A    between atoms: C_7  and  N_8
REMARK    4  A    between atoms: N_8  and  C_9
REMARK    5  A    between atoms: C_11  and  C_12
REMARK    6  A    between atoms: C_21  and  O_22
REMARK                            x       y       z     vdW  Elec       q    Type
REMARK                         _______ _______ _______ _____ _____    ______ ____
ROOT
ATOM      1  C   UNL     1      45.208   5.484  11.684  0.00  0.00    +0.000 A 
ATOM      2  N   UNL     1      46.158   6.429  11.513  0.00  0.00    +0.000 NA
ATOM      3  C   UNL     1      47.152   6.547  12.428  0.00  0.00    +0.000 A 
ATOM      4  C   UNL     1      47.199   5.755  13.571  0.00  0.00    +0.000 A 
ATOM      5  C   UNL     1      46.211   4.801  13.774  0.00  0.00    +0.000 A 
ATOM      6  C   UNL     1      45.215   4.651  12.815  0.00  0.00    +0.000 A 
ENDROOT
BRANCH   3   7
ATOM      7  C   UNL     1      48.201   7.526  12.098  0.00  0.00    +0.000 A 
ATOM      8  C   UNL     1      47.911   8.903  12.015  0.00  0.00    +0.000 A 
ATOM      9  C   UNL     1      48.886   9.830  11.636  0.00  0.00    +0.000 A 
ATOM     10  C   UNL     1      50.173   9.397  11.327  0.00  0.00    +0.000 A 
ATOM     11  C   UNL     1      50.475   8.047  11.423  0.00  0.00    +0.000 A 
ATOM     12  F   UNL     1      51.710   7.621  11.124  0.00  0.00    +0.000 F 
ATOM     13  C   UNL     1      49.514   7.119  11.805  0.00  0.00    +0.000 A 
ENDBRANCH   3   7
BRANCH   1  14
ATOM     14  N   UNL     1      44.197   5.342  10.708  0.00  0.00    +0.000 N 
ATOM     15  H   UNL     1      43.377   5.837  11.046  0.00  0.00    +0.000 HD
BRANCH  14  16
ATOM     16  C   UNL     1      43.913   3.952  10.356  0.00  0.00    +0.000 C 
BRANCH  16  20
ATOM     17  C   UNL     1      46.646   2.397   7.358  0.00  0.00    +0.000 A 
ATOM     18  C   UNL     1      46.371   3.768   7.407  0.00  0.00    +0.000 A 
ATOM     19  C   UNL     1      45.479   4.280   8.356  0.00  0.00    +0.000 A 
ATOM     20  C   UNL     1      44.828   3.428   9.263  0.00  0.00    +0.000 A 
ATOM     21  C   UNL     1      45.121   2.054   9.212  0.00  0.00    +0.000 A 
ATOM     22  C   UNL     1      46.016   1.540   8.269  0.00  0.00    +0.000 A 
BRANCH  17  24
ATOM     23  N   UNL     1      48.324   1.445   5.619  0.00  0.00    +0.000 NA
ATOM     24  C   UNL     1      47.573   1.875   6.398  0.00  0.00    +0.000 C 
ENDBRANCH  17  24
ENDBRANCH  16  20
ENDBRANCH  14  16
ENDBRANCH   1  14
BRANCH   6  25
ATOM     25  O   UNL     1      44.267   3.675  12.975  0.00  0.00    +0.000 OA
ATOM     26  H   UNL     1      43.799   3.559  12.132  0.00  0.00    +0.000 HD
ENDBRANCH   6  25
TORSDOF 6
ENDMDL
MODEL 4
REMARK VINA RESULT:    -7.278      4.055      7.977
REMARK INTER + INTRA:         -10.548
REMARK INTER:                  -9.985
REMARK INTRA:                  -0.562
REMARK UNBOUND:                -0.930
REMARK  Name = 
REMARK  6 active torsions:
REMARK  status: ('A' for Active; 'I' for Inactive)
REMARK    1  A    between atoms: C_2  and  C_3
REMARK    2  A    between atoms: C_6  and  C_7
REMARK    3  A    between atoms: C_7  and  N_8
REMARK    4  A    between atoms: N_8  and  C_9
REMARK    5  A    between atoms: C_11  and  C_12
REMARK    6  A    between atoms: C_21  and  O_22
REMARK                            x       y       z     vdW  Elec       q    Type
REMARK                         _______ _______ _______ _____ _____    ______ ____
ROOT
ATOM      1  C   UNL     1      44.738   4.391  12.530  0.00  0.00    +0.000 A 
ATOM      2  N   UNL     1      45.306   3.793  11.460  0.00  0.00    +0.000 NA
ATOM      3  C   UNL     1      44.741   3.940  10.237  0.00  0.00    +0.000 A 
ATOM      4  C   UNL     1      43.557   4.649  10.052  0.00  0.00    +0.000 A 
ATOM      5  C   UNL     1      42.947   5.243  11.149  0.00  0.00    +0.000 A 
ATOM      6  C   UNL     1      43.549   5.128  12.397  0.00  0.00    +0.000 A 
ENDROOT
BRANCH   3   7
ATOM      7  C   UNL     1      45.493   3.348   9.118  0.00  0.00    +0.000 A 
ATOM      8  C   UNL     1      46.010   4.153   8.083  0.00  0.00    +0.000 A 
ATOM      9  C   UNL     1      46.666   3.591   6.984  0.00  0.00    +0.000 A 
ATOM     10  C   UNL     1      46.816   2.209   6.896  0.00  0.00    +0.000 A 
ATOM     11  C   UNL     1      46.327   1.408   7.918  0.00  0.00    +0.000 A 
ATOM     12  F   UNL     1      46.463   0.078   7.840  0.00  0.00    +0.000 F 
ATOM     13  C   UNL     1      45.680   1.959   9.017  0.00  0.00    +0.000 A 
ENDBRANCH   3   7
BRANCH   1  14
ATOM     14  N   UNL     1      45.354   4.266  13.795  0.00  0.00    +0.000 N 
ATOM     15  H   UNL     1      44.850   4.870  14.438  0.00  0.00    +0.000 HD
BRANCH  14  16
ATOM     16  C   UNL     1      46.790   4.532  13.777  0.00  0.00    +0.000 C 
BRANCH  16  20
ATOM     17  C   UNL     1      48.341   4.690  17.833  0.00  0.00    +0.000 A 
ATOM     18  C   UNL     1      48.592   5.745  16.948  0.00  0.00    +0.000 A 
ATOM     19  C   UNL     1      48.114   5.699  15.634  0.00  0.00    +0.000 A 
ATOM     20  C   UNL     1      47.391   4.587  15.171  0.00  0.00    +0.000 A 
ATOM     21  C   UNL     1      47.135   3.539  16.072  0.00  0.00    +0.000 A 
ATOM     22  C   UNL     1      47.606   3.584  17.387  0.00  0.00    +0.000 A 
BRANCH  17  24
ATOM     23  N   UNL     1      49.202   4.784  20.281  0.00  0.00    +0.000 NA
ATOM     24  C   UNL     1      48.815   4.745  19.184  0.00  0.00    +0.000 C 
ENDBRANCH  17  24
ENDBRANCH  16  20
ENDBRANCH  14  16
ENDBRANCH   1  14
BRANCH   6  25
ATOM     25  O   UNL     1      42.987   5.756  13.476  0.00  0.00    +0.000 OA
ATOM     26  H   UNL     1      43.073   5.175  14.250  0.00  0.00    +0.000 HD
ENDBRANCH   6  25
TORSDOF 6
ENDMDL
MODEL 5
REMARK VINA RESULT:    -6.950      1.779      2.380
REMARK INTER + INTRA:         -10.114
REMARK INTER:                  -9.528
REMARK INTRA:                  -0.586
REMARK UNBOUND:                -0.930
REMARK  Name = 
REMARK  6 active torsions:
REMARK  status: ('A' for Active; 'I' for Inactive)
REMARK    1  A    between atoms: C_2  and  C_3
REMARK    2  A    between atoms: C_6  and  C_7
REMARK    3  A    between atoms: C_7  and  N_8
REMARK    4  A    between atoms: N_8  and  C_9
REMARK    5  A    between atoms: C_11  and  C_12
REMARK    6  A    between atoms: C_21  and  O_22
REMARK                            x       y       z     vdW  Elec       q    Type
REMARK                         _______ _______ _______ _____ _____    ______ ____
ROOT
ATOM      1  C   UNL     1      44.506   4.493  10.524  0.00  0.00    +0.000 A 
ATOM      2  N   UNL     1      45.309   5.574  10.629  0.00  0.00    +0.000 NA
ATOM      3  C   UNL     1      45.230   6.358  11.732  0.00  0.00    +0.000 A 
ATOM      4  C   UNL     1      44.305   6.114  12.744  0.00  0.00    +0.000 A 
ATOM      5  C   UNL     1      43.453   5.023  12.633  0.00  0.00    +0.000 A 
ATOM      6  C   UNL     1      43.564   4.195  11.522  0.00  0.00    +0.000 A 
ENDROOT
BRANCH   3   7
ATOM      7  C   UNL     1      46.221   7.443  11.809  0.00  0.00    +0.000 A 
ATOM      8  C   UNL     1      47.603   7.171  11.763  0.00  0.00    +0.000 A 
ATOM      9  C   UNL     1      48.550   8.189  11.904  0.00  0.00    +0.000 A 
ATOM     10  C   UNL     1      48.133   9.504  12.096  0.00  0.00    +0.000 A 
ATOM     11  C   UNL     1      46.775   9.787  12.124  0.00  0.00    +0.000 A 
ATOM     12  F   UNL     1      46.365  11.048  12.313  0.00  0.00    +0.000 F 
ATOM     13  C   UNL     1      45.827   8.781  11.978  0.00  0.00    +0.000 A 
ENDBRANCH   3   7
BRANCH   1  14
ATOM     14  N   UNL     1      44.622   3.659   9.389  0.00  0.00    +0.000 N 
ATOM     15  H   UNL     1      43.719   3.215   9.246  0.00  0.00    +0.000 HD
BRANCH  14  16
ATOM     16  C   UNL     1      45.716   2.695   9.479  0.00  0.00    +0.000 C 
BRANCH  16  20
ATOM     17  C   UNL     1      46.892   1.359   5.515  0.00  0.00    +0.000 A 
ATOM     18  C   UNL     1      46.925   0.465   6.591  0.00  0.00    +0.000 A 
ATOM     19  C   UNL     1      46.565   0.887   7.875  0.00  0.00    +0.000 A 
ATOM     20  C   UNL     1      46.186   2.218   8.115  0.00  0.00    +0.000 A 
ATOM     21  C   UNL     1      46.146   3.104   7.025  0.00  0.00    +0.000 A 
ATOM     22  C   UNL     1      46.499   2.685   5.738  0.00  0.00    +0.000 A 
BRANCH  17  24
ATOM     23  N   UNL     1      47.527   0.563   3.125  0.00  0.00    +0.000 NA
ATOM     24  C   UNL     1      47.243   0.923   4.196  0.00  0.00    +0.000 C 
ENDBRANCH  17  24
ENDBRANCH  16  20
ENDBRANCH  14  16
ENDBRANCH   1  14
BRANCH   6  25
ATOM     25  O   UNL     1      42.768   3.084  11.427  0.00  0.00    +0.000 OA
ATOM     26  H   UNL     1      43.153   2.381  11.975  0.00  0.00    +0.000 HD
ENDBRANCH   6  25
TORSDOF 6
ENDMDL
MODEL 6
REMARK VINA RESULT:    -6.901      3.069      7.237
REMARK INTER + INTRA:         -10.049
REMARK INTER:                  -9.613
REMARK INTRA:                  -0.436
REMARK UNBOUND:                -0.930
REMARK  Name = 
REMARK  6 active torsions:
REMARK  status: ('A' for Active; 'I' for Inactive)
REMARK    1  A    between atoms: C_2  and  C_3
REMARK    2  A    between atoms: C_6  and  C_7
REMARK    3  A    between atoms: C_7  and  N_8
REMARK    4  A    between atoms: N_8  and  C_9
REMARK    5  A    between atoms: C_11  and  C_12
REMARK    6  A    between atoms: C_21  and  O_22
REMARK                            x       y       z     vdW  Elec       q    Type
REMARK                         _______ _______ _______ _____ _____    ______ ____
ROOT
ATOM      1  C   UNL     1      44.650   5.461  11.584  0.00  0.00    +0.000 A 
ATOM      2  N   UNL     1      45.248   4.815  10.560  0.00  0.00    +0.000 NA
ATOM      3  C   UNL     1      44.750   3.625  10.142  0.00  0.00    +0.000 A 
ATOM      4  C   UNL     1      43.667   3.018  10.770  0.00  0.00    +0.000 A 
ATOM      5  C   UNL     1      43.062   3.658  11.844  0.00  0.00    +0.000 A 
ATOM      6  C   UNL     1      43.547   4.898  12.246  0.00  0.00    +0.000 A 
ENDROOT
BRANCH   3   7
ATOM      7  C   UNL     1      45.397   3.054   8.949  0.00  0.00    +0.000 A 
ATOM      8  C   UNL     1      45.727   1.686   8.885  0.00  0.00    +0.000 A 
ATOM      9  C   UNL     1      46.402   1.150   7.785  0.00  0.00    +0.000 A 
ATOM     10  C   UNL     1      46.764   1.976   6.724  0.00  0.00    +0.000 A 
ATOM     11  C   UNL     1      46.428   3.322   6.766  0.00  0.00    +0.000 A 
ATOM     12  F   UNL     1      46.776   4.124   5.751  0.00  0.00    +0.000 F 
ATOM     13  C   UNL     1      45.751   3.860   7.854  0.00  0.00    +0.000 A 
ENDBRANCH   3   7
BRANCH   1  14
ATOM     14  N   UNL     1      45.151   6.718  11.989  0.00  0.00    +0.000 N 
ATOM     15  H   UNL     1      44.730   7.421  11.387  0.00  0.00    +0.000 HD
BRANCH  14  16
ATOM     16  C   UNL     1      46.610   6.790  12.006  0.00  0.00    +0.000 C 
BRANCH  16  20
ATOM     17  C   UNL     1      48.140   5.418  15.835  0.00  0.00    +0.000 A 
ATOM     18  C   UNL     1      48.592   6.628  15.296  0.00  0.00    +0.000 A 
ATOM     19  C   UNL     1      48.121   7.073  14.056  0.00  0.00    +0.000 A 
ATOM     20  C   UNL     1      47.203   6.307  13.319  0.00  0.00    +0.000 A 
ATOM     21  C   UNL     1      46.747   5.099  13.875  0.00  0.00    +0.000 A 
ATOM     22  C   UNL     1      47.211   4.654  15.117  0.00  0.00    +0.000 A 
BRANCH  17  24
ATOM     23  N   UNL     1      48.995   4.608  18.149  0.00  0.00    +0.000 NA
ATOM     24  C   UNL     1      48.608   4.971  17.113  0.00  0.00    +0.000 C 
ENDBRANCH  17  24
ENDBRANCH  16  20
ENDBRANCH  14  16
ENDBRANCH   1  14
BRANCH   6  25
ATOM     25  O   UNL     1      42.925   5.565  13.268  0.00  0.00    +0.000 OA
ATOM     26  H   UNL     1      43.028   5.047  14.083  0.00  0.00    +0.000 HD
ENDBRANCH   6  25
TORSDOF 6
ENDMDL
MODEL 7
REMARK VINA RESULT:    -6.825      2.438      3.313
REMARK INTER + INTRA:          -9.949
REMARK INTER:                  -9.815
REMARK INTRA:                  -0.134
REMARK UNBOUND:                -0.930
REMARK  Name = 
REMARK  6 active torsions:
REMARK  status: ('A' for Active; 'I' for Inactive)
REMARK    1  A    between atoms: C_2  and  C_3
REMARK    2  A    between atoms: C_6  and  C_7
REMARK    3  A    between atoms: C_7  and  N_8
REMARK    4  A    between atoms: N_8  and  C_9
REMARK    5  A    between atoms: C_11  and  C_12
REMARK    6  A    between atoms: C_21  and  O_22
REMARK                            x       y       z     vdW  Elec       q    Type
REMARK                         _______ _______ _______ _____ _____    ______ ____
ROOT
ATOM      1  C   UNL     1      44.953   5.760  11.682  0.00  0.00    +0.000 A 
ATOM      2  N   UNL     1      46.229   6.099  11.966  0.00  0.00    +0.000 NA
ATOM      3  C   UNL     1      46.570   7.409  12.037  0.00  0.00    +0.000 A 
ATOM      4  C   UNL     1      45.654   8.424  11.775  0.00  0.00    +0.000 A 
ATOM      5  C   UNL     1      44.346   8.088  11.453  0.00  0.00    +0.000 A 
ATOM      6  C   UNL     1      43.986   6.745  11.421  0.00  0.00    +0.000 A 
ENDROOT
BRANCH   3   7
ATOM      7  C   UNL     1      47.953   7.680  12.463  0.00  0.00    +0.000 A 
ATOM      8  C   UNL     1      48.842   8.395  11.637  0.00  0.00    +0.000 A 
ATOM      9  C   UNL     1      50.175   8.597  12.005  0.00  0.00    +0.000 A 
ATOM     10  C   UNL     1      50.648   8.083  13.210  0.00  0.00    +0.000 A 
ATOM     11  C   UNL     1      49.777   7.393  14.041  0.00  0.00    +0.000 A 
ATOM     12  F   UNL     1      50.225   6.892  15.200  0.00  0.00    +0.000 F 
ATOM     13  C   UNL     1      48.449   7.194  13.685  0.00  0.00    +0.000 A 
ENDBRANCH   3   7
BRANCH   1  14
ATOM     14  N   UNL     1      44.597   4.393  11.647  0.00  0.00    +0.000 N 
ATOM     15  H   UNL     1      45.448   3.855  11.782  0.00  0.00    +0.000 HD
BRANCH  14  16
ATOM     16  C   UNL     1      43.869   4.007  10.440  0.00  0.00    +0.000 C 
BRANCH  16  20
ATOM     17  C   UNL     1      46.607   2.443   7.451  0.00  0.00    +0.000 A 
ATOM     18  C   UNL     1      46.332   3.814   7.495  0.00  0.00    +0.000 A 
ATOM     19  C   UNL     1      45.439   4.329   8.441  0.00  0.00    +0.000 A 
ATOM     20  C   UNL     1      44.786   3.480   9.350  0.00  0.00    +0.000 A 
ATOM     21  C   UNL     1      45.079   2.105   9.303  0.00  0.00    +0.000 A 
ATOM     22  C   UNL     1      45.975   1.588   8.364  0.00  0.00    +0.000 A 
BRANCH  17  24
ATOM     23  N   UNL     1      48.294   1.493   5.720  0.00  0.00    +0.000 NA
ATOM     24  C   UNL     1      47.535   1.918   6.494  0.00  0.00    +0.000 C 
ENDBRANCH  17  24
ENDBRANCH  16  20
ENDBRANCH  14  16
ENDBRANCH   1  14
BRANCH   6  25
ATOM     25  O   UNL     1      42.686   6.402  11.159  0.00  0.00    +0.000 OA
ATOM     26  H   UNL     1      42.363   5.841  11.883  0.00  0.00    +0.000 HD
ENDBRANCH   6  25
TORSDOF 6
ENDMDL
MODEL 8
REMARK VINA RESULT:    -6.767      3.015      4.356
REMARK INTER + INTRA:          -9.872
REMARK INTER:                 -10.259
REMARK INTRA:                   0.387
REMARK UNBOUND:                -0.930
REMARK  Name = 
REMARK  6 active torsions:
REMARK  status: ('A' for Active; 'I' for Inactive)
REMARK    1  A    between atoms: C_2  and  C_3
REMARK    2  A    between atoms: C_6  and  C_7
REMARK    3  A    between atoms: C_7  and  N_8
REMARK    4  A    between atoms: N_8  and  C_9
REMARK    5  A    between atoms: C_11  and  C_12
REMARK    6  A    between atoms: C_21  and  O_22
REMARK                            x       y       z     vdW  Elec       q    Type
REMARK                         _______ _______ _______ _____ _____    ______ ____
ROOT
ATOM      1  C   UNL     1      45.191   5.025  12.196  0.00  0.00    +0.000 A 
ATOM      2  N   UNL     1      45.986   4.711  13.242  0.00  0.00    +0.000 NA
ATOM      3  C   UNL     1      46.741   5.679  13.818  0.00  0.00    +0.000 A 
ATOM      4  C   UNL     1      46.763   6.983  13.332  0.00  0.00    +0.000 A 
ATOM      5  C   UNL     1      45.973   7.311  12.238  0.00  0.00    +0.000 A 
ATOM      6  C   UNL     1      45.167   6.328  11.673  0.00  0.00    +0.000 A 
ENDROOT
BRANCH   3   7
ATOM      7  C   UNL     1      47.486   5.268  15.019  0.00  0.00    +0.000 A 
ATOM      8  C   UNL     1      48.471   6.101  15.584  0.00  0.00    +0.000 A 
ATOM      9  C   UNL     1      49.230   5.689  16.684  0.00  0.00    +0.000 A 
ATOM     10  C   UNL     1      49.018   4.430  17.240  0.00  0.00    +0.000 A 
ATOM     11  C   UNL     1      48.038   3.608  16.703  0.00  0.00    +0.000 A 
ATOM     12  F   UNL     1      47.830   2.393  17.230  0.00  0.00    +0.000 F 
ATOM     13  C   UNL     1      47.275   4.013  15.615  0.00  0.00    +0.000 A 
ENDBRANCH   3   7
BRANCH   1  14
ATOM     14  N   UNL     1      44.378   4.020  11.626  0.00  0.00    +0.000 N 
ATOM     15  H   UNL     1      44.851   3.131  11.765  0.00  0.00    +0.000 HD
BRANCH  14  16
ATOM     16  C   UNL     1      44.038   4.264  10.226  0.00  0.00    +0.000 C 
BRANCH  16  20
ATOM     17  C   UNL     1      46.663   2.351   7.339  0.00  0.00    +0.000 A 
ATOM     18  C   UNL     1      45.980   1.576   8.283  0.00  0.00    +0.000 A 
ATOM     19  C   UNL     1      45.145   2.180   9.229  0.00  0.00    +0.000 A 
ATOM     20  C   UNL     1      44.992   3.576   9.265  0.00  0.00    +0.000 A 
ATOM     21  C   UNL     1      45.674   4.344   8.305  0.00  0.00    +0.000 A 
ATOM     22  C   UNL     1      46.504   3.743   7.354  0.00  0.00    +0.000 A 
BRANCH  17  24
ATOM     23  N   UNL     1      48.191   1.231   5.563  0.00  0.00    +0.000 NA
ATOM     24  C   UNL     1      47.503   1.731   6.359  0.00  0.00    +0.000 C 
ENDBRANCH  17  24
ENDBRANCH  16  20
ENDBRANCH  14  16
ENDBRANCH   1  14
BRANCH   6  25
ATOM     25  O   UNL     1      44.341   6.652  10.630  0.00  0.00    +0.000 OA
ATOM     26  H   UNL     1      44.447   7.597  10.433  0.00  0.00    +0.000 HD
ENDBRANCH   6  25
TORSDOF 6
ENDMDL
MODEL 9
REMARK VINA RESULT:    -6.498      4.179      8.069
REMARK INTER + INTRA:          -9.518
REMARK INTER:                  -8.967
REMARK INTRA:                  -0.550
REMARK UNBOUND:                -0.930
REMARK  Name = 
REMARK  6 active torsions:
REMARK  status: ('A' for Active; 'I' for Inactive)
REMARK    1  A    between atoms: C_2  and  C_3
REMARK    2  A    between atoms: C_6  and  C_7
REMARK    3  A    between atoms: C_7  and  N_8
REMARK    4  A    between atoms: N_8  and  C_9
REMARK    5  A    between atoms: C_11  and  C_12
REMARK    6  A    between atoms: C_21  and  O_22
REMARK                            x       y       z     vdW  Elec       q    Type
REMARK                         _______ _______ _______ _____ _____    ______ ____
ROOT
ATOM      1  C   UNL     1      46.466   6.443  13.034  0.00  0.00    +0.000 A 
ATOM      2  N   UNL     1      46.153   5.455  12.168  0.00  0.00    +0.000 NA
ATOM      3  C   UNL     1      45.295   5.708  11.150  0.00  0.00    +0.000 A 
ATOM      4  C   UNL     1      44.681   6.948  10.994  0.00  0.00    +0.000 A 
ATOM      5  C   UNL     1      44.972   7.964  11.895  0.00  0.00    +0.000 A 
ATOM      6  C   UNL     1      45.884   7.716  12.915  0.00  0.00    +0.000 A 
ENDROOT
BRANCH   3   7
ATOM      7  C   UNL     1      45.104   4.604  10.195  0.00  0.00    +0.000 A 
ATOM      8  C   UNL     1      44.477   3.405  10.586  0.00  0.00    +0.000 A 
ATOM      9  C   UNL     1      44.354   2.327   9.704  0.00  0.00    +0.000 A 
ATOM     10  C   UNL     1      44.858   2.428   8.410  0.00  0.00    +0.000 A 
ATOM     11  C   UNL     1      45.461   3.611   8.007  0.00  0.00    +0.000 A 
ATOM     12  F   UNL     1      45.952   3.715   6.765  0.00  0.00    +0.000 F 
ATOM     13  C   UNL     1      45.581   4.689   8.876  0.00  0.00    +0.000 A 
ENDBRANCH   3   7
BRANCH   1  14
ATOM     14  N   UNL     1      47.390   6.182  14.070  0.00  0.00    +0.000 N 
ATOM     15  H   UNL     1      48.320   6.352  13.697  0.00  0.00    +0.000 HD
BRANCH  14  16
ATOM     16  C   UNL     1      47.252   4.851  14.657  0.00  0.00    +0.000 C 
BRANCH  16  20
ATOM     17  C   UNL     1      48.499   4.686  18.816  0.00  0.00    +0.000 A 
ATOM     18  C   UNL     1      48.859   5.781  18.022  0.00  0.00    +0.000 A 
ATOM     19  C   UNL     1      48.479   5.838  16.677  0.00  0.00    +0.000 A 
ATOM     20  C   UNL     1      47.748   4.791  16.091  0.00  0.00    +0.000 A 
ATOM     21  C   UNL     1      47.383   3.702  16.901  0.00  0.00    +0.000 A 
ATOM     22  C   UNL     1      47.755   3.644  18.247  0.00  0.00    +0.000 A 
BRANCH  17  24
ATOM     23  N   UNL     1      49.179   4.588  21.321  0.00  0.00    +0.000 NA
ATOM     24  C   UNL     1      48.873   4.635  20.198  0.00  0.00    +0.000 C 
ENDBRANCH  17  24
ENDBRANCH  16  20
ENDBRANCH  14  16
ENDBRANCH   1  14
BRANCH   6  25
ATOM     25  O   UNL     1      46.222   8.726  13.777  0.00  0.00    +0.000 OA
ATOM     26  H   UNL     1      45.468   9.333  13.852  0.00  0.00    +0.000 HD
ENDBRANCH   6  25
TORSDOF 6
ENDMDL
