MODEL 1
REMARK VINA RESULT:    -6.721      0.000      0.000
REMARK INTER + INTRA:         -10.403
REMARK INTER:                 -10.061
REMARK INTRA:                  -0.343
REMARK UNBOUND:                -0.343
REMARK  Name = 
REMARK  9 active torsions:
REMARK  status: ('A' for Active; 'I' for Inactive)
REMARK    1  A    between atoms: N_1  and  C_2
REMARK    2  A    between atoms: C_2  and  C_3
REMARK    3  A    between atoms: C_7  and  C_8
REMARK    4  A    between atoms: C_8  and  O_9
REMARK    5  A    between atoms: O_9  and  C_10
REMARK    6  A    between atoms: C_14  and  C_15
REMARK    7  A    between atoms: C_15  and  N_16
REMARK    8  A    between atoms: N_16  and  C_17
REMARK    9  A    between atoms: C_17  and  C_18
REMARK                            x       y       z     vdW  Elec       q    Type
REMARK                         _______ _______ _______ _____ _____    ______ ____
ROOT
ATOM      1  O   UNL     1      43.617   2.802  10.681  0.00  0.00    +0.000 OA
ENDROOT
BRANCH   1   2
ATOM      2  C   UNL     1      44.464   3.031   9.634  0.00  0.00    +0.000 A 
ATOM      3  C   UNL     1      44.736   4.273   9.064  0.00  0.00    +0.000 A 
ATOM      4  C   UNL     1      45.650   4.371   8.012  0.00  0.00    +0.000 A 
ATOM      5  C   UNL     1      46.306   3.230   7.542  0.00  0.00    +0.000 A 
ATOM      6  C   UNL     1      46.069   1.981   8.128  0.00  0.00    +0.000 A 
ATOM      7  C   UNL     1      45.136   1.896   9.171  0.00  0.00    +0.000 A 
BRANCH   6   8
ATOM      8  C   UNL     1      46.814   0.750   7.666  0.00  0.00    +0.000 C 
BRANCH   8   9
ATOM      9  N   UNL     1      47.708   1.077   6.557  0.00  0.00    +0.000 NA
ATOM     10  H   UNL     1      48.652   0.755   6.782  0.00  0.00    +0.000 HD
BRANCH   9  11
ATOM     11  C   UNL     1      47.283   0.443   5.305  0.00  0.00    +0.000 C 
BRANCH  11  12
ATOM     12  C   UNL     1      46.871   1.502   4.283  0.00  0.00    +0.000 C 
ATOM     13  F   UNL     1      47.365   2.712   4.667  0.00  0.00    +0.000 F 
ENDBRANCH  11  12
ENDBRANCH   9  11
ENDBRANCH   8   9
ENDBRANCH   6   8
ENDBRANCH   1   2
BRANCH   1  14
ATOM     14  C   UNL     1      43.277   3.929  11.492  0.00  0.00    +0.000 C 
BRANCH  14  19
ATOM     15  C   UNL     1      45.935   6.275  12.903  0.00  0.00    +0.000 A 
ATOM     16  C   UNL     1      46.720   5.337  13.578  0.00  0.00    +0.000 A 
ATOM     17  C   UNL     1      46.355   4.004  13.525  0.00  0.00    +0.000 A 
ATOM     18  N   UNL     1      45.271   3.541  12.864  0.00  0.00    +0.000 NA
ATOM     19  C   UNL     1      44.512   4.453  12.200  0.00  0.00    +0.000 A 
ATOM     20  C   UNL     1      44.804   5.817  12.223  0.00  0.00    +0.000 A 
BRANCH  15  21
ATOM     21  C   UNL     1      46.296   7.735  12.916  0.00  0.00    +0.000 C 
BRANCH  21  22
ATOM     22  N   UNL     1      45.102   8.574  12.910  0.00  0.00    +0.000 NA
ATOM     23  H   UNL     1      45.356   9.514  12.612  0.00  0.00    +0.000 HD
ATOM     24  H   UNL     1      44.761   8.660  13.868  0.00  0.00    +0.000 HD
ENDBRANCH  21  22
ENDBRANCH  15  21
ENDBRANCH  14  19
ENDBRANCH   1  14
TORSDOF 9
ENDMDL
MODEL 2
REMARK VINA RESULT:    -6.566      2.457      7.164
REMARK INTER + INTRA:         -10.171
REMARK INTER:                  -9.322
REMARK INTRA:                  -0.849
REMARK UNBOUND:                -0.343
REMARK  Name = 
REMARK  9 active torsions:
REMARK  status: ('A' for Active; 'I' for Inactive)
REMARK    1  A    between atoms: N_1  and  C_2
REMARK    2  A    between atoms: C_2  and  C_3
REMARK    3  A    between atoms: C_7  and  C_8
REMARK    4  A    between atoms: C_8  and  O_9
REMARK    5  A    between atoms: O_9  and  C_10
REMARK    6  A    between atoms: C_14  and  C_15
REMARK    7  A    between atoms: C_15  and  N_16
REMARK    8  A    between atoms: N_16  and  C_17
REMARK    9  A    between atoms: C_17  and  C_18
REMARK                            x       y       z     vdW  Elec       q    Type
REMARK                         _______ _______ _______ _____ _____    ______ ____
ROOT
ATOM      1  O   UNL     1      44.165   4.064   9.209  0.00  0.00    +0.000 OA
ENDROOT
BRANCH   1   2
ATOM      2  C   UNL     1      43.969   4.633  10.435  0.00  0.00    +0.000 A 
ATOM      3  C   UNL     1      42.951   4.311  11.329  0.00  0.00    +0.000 A 
ATOM      4  C   UNL     1      42.883   4.953  12.569  0.00  0.00    +0.000 A 
ATOM      5  C   UNL     1      43.844   5.905  12.921  0.00  0.00    +0.000 A 
ATOM      6  C   UNL     1      44.893   6.214  12.046  0.00  0.00    +0.000 A 
ATOM      7  C   UNL     1      44.937   5.574  10.800  0.00  0.00    +0.000 A 
BRANCH   6   8
ATOM      8  C   UNL     1      45.969   7.200  12.439  0.00  0.00    +0.000 C 
BRANCH   8   9
ATOM      9  N   UNL     1      46.646   6.761  13.658  0.00  0.00    +0.000 NA
ATOM     10  H   UNL     1      45.944   6.501  14.355  0.00  0.00    +0.000 HD
BRANCH   9  11
ATOM     11  C   UNL     1      47.516   5.606  13.417  0.00  0.00    +0.000 C 
BRANCH  11  12
ATOM     12  C   UNL     1      46.994   4.380  14.165  0.00  0.00    +0.000 C 
ATOM     13  F   UNL     1      46.407   3.530  13.277  0.00  0.00    +0.000 F 
ENDBRANCH  11  12
ENDBRANCH   9  11
ENDBRANCH   8   9
ENDBRANCH   6   8
ENDBRANCH   1   2
BRANCH   1  14
ATOM     14  C   UNL     1      45.391   4.376   8.544  0.00  0.00    +0.000 C 
BRANCH  14  19
ATOM     15  C   UNL     1      47.122   2.045   6.068  0.00  0.00    +0.000 A 
ATOM     16  C   UNL     1      47.037   0.853   6.791  0.00  0.00    +0.000 A 
ATOM     17  C   UNL     1      46.413   0.869   8.026  0.00  0.00    +0.000 A 
ATOM     18  N   UNL     1      45.881   1.975   8.593  0.00  0.00    +0.000 NA
ATOM     19  C   UNL     1      45.957   3.133   7.884  0.00  0.00    +0.000 A 
ATOM     20  C   UNL     1      46.588   3.202   6.642  0.00  0.00    +0.000 A 
BRANCH  15  21
ATOM     21  C   UNL     1      47.777   2.081   4.714  0.00  0.00    +0.000 C 
BRANCH  21  22
ATOM     22  N   UNL     1      47.474   0.875   3.950  0.00  0.00    +0.000 NA
ATOM     23  H   UNL     1      46.486   0.878   3.701  0.00  0.00    +0.000 HD
ATOM     24  H   UNL     1      47.613   0.064   4.553  0.00  0.00    +0.000 HD
ENDBRANCH  21  22
ENDBRANCH  15  21
ENDBRANCH  14  19
ENDBRANCH   1  14
TORSDOF 9
ENDMDL
MODEL 3
REMARK VINA RESULT:    -6.502      3.468      4.824
REMARK INTER + INTRA:         -10.076
REMARK INTER:                  -9.527
REMARK INTRA:                  -0.549
REMARK UNBOUND:                -0.343
REMARK  Name = 
REMARK  9 active torsions:
REMARK  status: ('A' for Active; 'I' for Inactive)
REMARK    1  A    between atoms: N_1  and  C_2
REMARK    2  A    between atoms: C_2  and  C_3
REMARK    3  A    between atoms: C_7  and  C_8
REMARK    4  A    between atoms: C_8  and  O_9
REMARK    5  A    between atoms: O_9  and  C_10
REMARK    6  A    between atoms: C_14  and  C_15
REMARK    7  A    between atoms: C_15  and  N_16
REMARK    8  A    between atoms: N_16  and  C_17
REMARK    9  A    between atoms: C_17  and  C_18
REMARK                            x       y       z     vdW  Elec       q    Type
REMARK                         _______ _______ _______ _____ _____    ______ ____
ROOT
ATOM      1  O   UNL     1      46.121   3.765  13.719  0.00  0.00    +0.000 OA
ENDROOT
BRANCH   1   2
ATOM      2  C   UNL     1      45.206   4.199  12.802  0.00  0.00    +0.000 A 
ATOM      3  C   UNL     1      44.390   5.321  12.933  0.00  0.00    +0.000 A 
ATOM      4  C   UNL     1      43.516   5.670  11.901  0.00  0.00    +0.000 A 
ATOM      5  C   UNL     1      43.469   4.909  10.730  0.00  0.00    +0.000 A 
ATOM      6  C   UNL     1      44.308   3.799  10.570  0.00  0.00    +0.000 A 
ATOM      7  C   UNL     1      45.168   3.451  11.621  0.00  0.00    +0.000 A 
BRANCH   6   8
ATOM      8  C   UNL     1      44.307   3.002   9.285  0.00  0.00    +0.000 C 
BRANCH   8   9
ATOM      9  N   UNL     1      45.385   2.015   9.294  0.00  0.00    +0.000 NA
ATOM     10  H   UNL     1      44.982   1.082   9.413  0.00  0.00    +0.000 HD
BRANCH   9  11
ATOM     11  C   UNL     1      46.157   2.035   8.047  0.00  0.00    +0.000 C 
BRANCH  11  12
ATOM     12  C   UNL     1      45.916   3.342   7.292  0.00  0.00    +0.000 C 
ATOM     13  F   UNL     1      46.863   4.251   7.657  0.00  0.00    +0.000 F 
ENDBRANCH  11  12
ENDBRANCH   9  11
ENDBRANCH   8   9
ENDBRANCH   6   8
ENDBRANCH   1   2
BRANCH   1  14
ATOM     14  C   UNL     1      46.641   4.745  14.620  0.00  0.00    +0.000 C 
BRANCH  14  19
ATOM     15  C   UNL     1      48.343   3.977  17.948  0.00  0.00    +0.000 A 
ATOM     16  C   UNL     1      48.927   2.751  17.619  0.00  0.00    +0.000 A 
ATOM     17  C   UNL     1      48.750   2.253  16.341  0.00  0.00    +0.000 A 
ATOM     18  N   UNL     1      48.034   2.875  15.378  0.00  0.00    +0.000 NA
ATOM     19  C   UNL     1      47.474   4.072  15.696  0.00  0.00    +0.000 A 
ATOM     20  C   UNL     1      47.590   4.630  16.969  0.00  0.00    +0.000 A 
BRANCH  15  21
ATOM     21  C   UNL     1      48.517   4.571  19.319  0.00  0.00    +0.000 C 
BRANCH  21  22
ATOM     22  N   UNL     1      48.308   3.568  20.359  0.00  0.00    +0.000 NA
ATOM     23  H   UNL     1      48.990   3.712  21.102  0.00  0.00    +0.000 HD
ATOM     24  H   UNL     1      48.504   2.647  19.966  0.00  0.00    +0.000 HD
ENDBRANCH  21  22
ENDBRANCH  15  21
ENDBRANCH  14  19
ENDBRANCH   1  14
TORSDOF 9
ENDMDL
MODEL 4
REMARK VINA RESULT:    -6.439      1.636      2.521
REMARK INTER + INTRA:          -9.981
REMARK INTER:                  -9.244
REMARK INTRA:                  -0.737
REMARK UNBOUND:                -0.343
REMARK  Name = 
REMARK  9 active torsions:
REMARK  status: ('A' for Active; 'I' for Inactive)
REMARK    1  A    between atoms: N_1  and  C_2
REMARK    2  A    between atoms: C_2  and  C_3
REMARK    3  A    between atoms: C_7  and  C_8
REMARK    4  A    between atoms: C_8  and  O_9
REMARK    5  A    between atoms: O_9  and  C_10
REMARK    6  A    between atoms: C_14  and  C_15
REMARK    7  A    between atoms: C_15  and  N_16
REMARK    8  A    between atoms: N_16  and  C_17
REMARK    9  A    between atoms: C_17  and  C_18
REMARK                            x       y       z     vdW  Elec       q    Type
REMARK                         _______ _______ _______ _____ _____    ______ ____
ROOT
ATOM      1  O   UNL     1      43.390   5.162  10.275  0.00  0.00    +0.000 OA
ENDROOT
BRANCH   1   2
ATOM      2  C   UNL     1      44.104   4.113   9.770  0.00  0.00    +0.000 A 
ATOM      3  C   UNL     1      43.989   2.783  10.169  0.00  0.00    +0.000 A 
ATOM      4  C   UNL     1      44.762   1.800   9.545  0.00  0.00    +0.000 A 
ATOM      5  C   UNL     1      45.636   2.143   8.511  0.00  0.00    +0.000 A 
ATOM      6  C   UNL     1      45.736   3.471   8.076  0.00  0.00    +0.000 A 
ATOM      7  C   UNL     1      44.967   4.449   8.723  0.00  0.00    +0.000 A 
BRANCH   6   8
ATOM      8  C   UNL     1      46.636   3.846   6.921  0.00  0.00    +0.000 C 
BRANCH   8   9
ATOM      9  N   UNL     1      47.656   2.820   6.711  0.00  0.00    +0.000 NA
ATOM     10  H   UNL     1      47.439   2.009   7.296  0.00  0.00    +0.000 HD
BRANCH   9  11
ATOM     11  C   UNL     1      47.716   2.384   5.312  0.00  0.00    +0.000 C 
BRANCH  11  12
ATOM     12  C   UNL     1      47.360   0.902   5.199  0.00  0.00    +0.000 C 
ATOM     13  F   UNL     1      47.095   0.409   6.440  0.00  0.00    +0.000 F 
ENDBRANCH  11  12
ENDBRANCH   9  11
ENDBRANCH   8   9
ENDBRANCH   6   8
ENDBRANCH   1   2
BRANCH   1  14
ATOM     14  C   UNL     1      43.303   5.255  11.699  0.00  0.00    +0.000 C 
BRANCH  14  19
ATOM     15  C   UNL     1      46.490   5.155  13.794  0.00  0.00    +0.000 A 
ATOM     16  C   UNL     1      47.161   6.241  13.227  0.00  0.00    +0.000 A 
ATOM     17  C   UNL     1      46.539   6.950  12.215  0.00  0.00    +0.000 A 
ATOM     18  N   UNL     1      45.315   6.654  11.723  0.00  0.00    +0.000 NA
ATOM     19  C   UNL     1      44.659   5.602  12.282  0.00  0.00    +0.000 A 
ATOM     20  C   UNL     1      45.228   4.827  13.293  0.00  0.00    +0.000 A 
BRANCH  15  21
ATOM     21  C   UNL     1      47.114   4.360  14.909  0.00  0.00    +0.000 C 
BRANCH  21  22
ATOM     22  N   UNL     1      47.881   5.219  15.805  0.00  0.00    +0.000 NA
ATOM     23  H   UNL     1      47.594   5.039  16.765  0.00  0.00    +0.000 HD
ATOM     24  H   UNL     1      47.637   6.190  15.610  0.00  0.00    +0.000 HD
ENDBRANCH  21  22
ENDBRANCH  15  21
ENDBRANCH  14  19
ENDBRANCH   1  14
TORSDOF 9
ENDMDL
MODEL 5
REMARK VINA RESULT:    -6.367      4.350      6.266
REMARK INTER + INTRA:          -9.874
REMARK INTER:                  -9.235
REMARK INTRA:                  -0.638
REMARK UNBOUND:                -0.343
REMARK  Name = 
REMARK  9 active torsions:
REMARK  status: ('A' for Active; 'I' for Inactive)
REMARK    1  A    between atoms: N_1  and  C_2
REMARK    2  A    between atoms: C_2  and  C_3
REMARK    3  A    between atoms: C_7  and  C_8
REMARK    4  A    between atoms: C_8  and  O_9
REMARK    5  A    between atoms: O_9  and  C_10
REMARK    6  A    between atoms: C_14  and  C_15
REMARK    7  A    between atoms: C_15  and  N_16
REMARK    8  A    between atoms: N_16  and  C_17
REMARK    9  A    between atoms: C_17  and  C_18
REMARK                            x       y       z     vdW  Elec       q    Type
REMARK                         _______ _______ _______ _____ _____    ______ ____
ROOT
ATOM      1  O   UNL     1      47.488   3.209  14.638  0.00  0.00    +0.000 OA
ENDROOT
BRANCH   1   2
ATOM      2  C   UNL     1      46.852   4.057  13.776  0.00  0.00    +0.000 A 
ATOM      3  C   UNL     1      47.092   5.424  13.653  0.00  0.00    +0.000 A 
ATOM      4  C   UNL     1      46.389   6.172  12.706  0.00  0.00    +0.000 A 
ATOM      5  C   UNL     1      45.458   5.552  11.869  0.00  0.00    +0.000 A 
ATOM      6  C   UNL     1      45.232   4.172  11.957  0.00  0.00    +0.000 A 
ATOM      7  C   UNL     1      45.932   3.438  12.924  0.00  0.00    +0.000 A 
BRANCH   6   8
ATOM      8  C   UNL     1      44.270   3.480  11.019  0.00  0.00    +0.000 C 
BRANCH   8   9
ATOM      9  N   UNL     1      44.953   2.429  10.267  0.00  0.00    +0.000 NA
ATOM     10  H   UNL     1      44.647   1.516  10.616  0.00  0.00    +0.000 HD
BRANCH   9  11
ATOM     11  C   UNL     1      44.661   2.502   8.833  0.00  0.00    +0.000 C 
BRANCH  11  12
ATOM     12  C   UNL     1      44.785   3.942   8.336  0.00  0.00    +0.000 C 
ATOM     13  F   UNL     1      46.082   4.344   8.444  0.00  0.00    +0.000 F 
ENDBRANCH  11  12
ENDBRANCH   9  11
ENDBRANCH   8   9
ENDBRANCH   6   8
ENDBRANCH   1   2
BRANCH   1  14
ATOM     14  C   UNL     1      47.412   3.531  16.028  0.00  0.00    +0.000 C 
BRANCH  14  19
ATOM     15  C   UNL     1      50.782   2.333  17.358  0.00  0.00    +0.000 A 
ATOM     16  C   UNL     1      51.343   3.571  17.683  0.00  0.00    +0.000 A 
ATOM     17  C   UNL     1      50.596   4.715  17.468  0.00  0.00    +0.000 A 
ATOM     18  N   UNL     1      49.347   4.719  16.950  0.00  0.00    +0.000 NA
ATOM     19  C   UNL     1      48.798   3.514  16.643  0.00  0.00    +0.000 A 
ATOM     20  C   UNL     1      49.496   2.317  16.812  0.00  0.00    +0.000 A 
BRANCH  15  21
ATOM     21  C   UNL     1      51.545   1.057  17.586  0.00  0.00    +0.000 C 
BRANCH  21  22
ATOM     22  N   UNL     1      52.710   1.283  18.434  0.00  0.00    +0.000 NA
ATOM     23  H   UNL     1      52.651   2.215  18.840  0.00  0.00    +0.000 HD
ATOM     24  H   UNL     1      53.545   1.281  17.847  0.00  0.00    +0.000 HD
ENDBRANCH  21  22
ENDBRANCH  15  21
ENDBRANCH  14  19
ENDBRANCH   1  14
TORSDOF 9
ENDMDL
MODEL 6
REMARK VINA RESULT:    -6.363      3.587      7.617
REMARK INTER + INTRA:          -9.867
REMARK INTER:                  -9.754
REMARK INTRA:                  -0.113
REMARK UNBOUND:                -0.343
REMARK  Name = 
REMARK  9 active torsions:
REMARK  status: ('A' for Active; 'I' for Inactive)
REMARK    1  A    between atoms: N_1  and  C_2
REMARK    2  A    between atoms: C_2  and  C_3
REMARK    3  A    between atoms: C_7  and  C_8
REMARK    4  A    between atoms: C_8  and  O_9
REMARK    5  A    between atoms: O_9  and  C_10
REMARK    6  A    between atoms: C_14  and  C_15
REMARK    7  A    between atoms: C_15  and  N_16
REMARK    8  A    between atoms: N_16  and  C_17
REMARK    9  A    between atoms: C_17  and  C_18
REMARK                            x       y       z     vdW  Elec       q    Type
REMARK                         _______ _______ _______ _____ _____    ______ ____
ROOT
ATOM      1  O   UNL     1      43.736   3.999  10.595  0.00  0.00    +0.000 OA
ENDROOT
BRANCH   1   2
ATOM      2  C   UNL     1      44.459   4.805  11.427  0.00  0.00    +0.000 A 
ATOM      3  C   UNL     1      44.376   6.194  11.490  0.00  0.00    +0.000 A 
ATOM      4  C   UNL     1      45.155   6.897  12.414  0.00  0.00    +0.000 A 
ATOM      5  C   UNL     1      46.004   6.210  13.286  0.00  0.00    +0.000 A 
ATOM      6  C   UNL     1      46.071   4.811  13.257  0.00  0.00    +0.000 A 
ATOM      7  C   UNL     1      45.297   4.121  12.314  0.00  0.00    +0.000 A 
BRANCH   6   8
ATOM      8  C   UNL     1      46.942   4.054  14.234  0.00  0.00    +0.000 C 
BRANCH   8   9
ATOM      9  N   UNL     1      47.107   4.814  15.471  0.00  0.00    +0.000 NA
ATOM     10  H   UNL     1      46.291   5.418  15.603  0.00  0.00    +0.000 HD
BRANCH   9  11
ATOM     11  C   UNL     1      47.234   3.939  16.640  0.00  0.00    +0.000 C 
BRANCH  11  12
ATOM     12  C   UNL     1      47.600   4.754  17.880  0.00  0.00    +0.000 C 
ATOM     13  F   UNL     1      46.468   5.297  18.409  0.00  0.00    +0.000 F 
ENDBRANCH  11  12
ENDBRANCH   9  11
ENDBRANCH   8   9
ENDBRANCH   6   8
ENDBRANCH   1   2
BRANCH   1  14
ATOM     14  C   UNL     1      44.328   2.748  10.238  0.00  0.00    +0.000 C 
BRANCH  14  19
ATOM     15  C   UNL     1      46.738   2.042   7.366  0.00  0.00    +0.000 A 
ATOM     16  C   UNL     1      46.918   3.347   6.903  0.00  0.00    +0.000 A 
ATOM     17  C   UNL     1      46.264   4.378   7.554  0.00  0.00    +0.000 A 
ATOM     18  N   UNL     1      45.445   4.206   8.615  0.00  0.00    +0.000 NA
ATOM     19  C   UNL     1      45.278   2.935   9.070  0.00  0.00    +0.000 A 
ATOM     20  C   UNL     1      45.887   1.841   8.455  0.00  0.00    +0.000 A 
BRANCH  15  21
ATOM     21  C   UNL     1      47.438   0.886   6.704  0.00  0.00    +0.000 C 
BRANCH  21  22
ATOM     22  N   UNL     1      48.238   1.333   5.569  0.00  0.00    +0.000 NA
ATOM     23  H   UNL     1      48.766   0.544   5.202  0.00  0.00    +0.000 HD
ATOM     24  H   UNL     1      48.928   2.007   5.903  0.00  0.00    +0.000 HD
ENDBRANCH  21  22
ENDBRANCH  15  21
ENDBRANCH  14  19
ENDBRANCH   1  14
TORSDOF 9
ENDMDL
MODEL 7
REMARK VINA RESULT:    -6.302      3.759      7.460
REMARK INTER + INTRA:          -9.776
REMARK INTER:                  -9.144
REMARK INTRA:                  -0.632
REMARK UNBOUND:                -0.343
REMARK  Name = 
REMARK  9 active torsions:
REMARK  status: ('A' for Active; 'I' for Inactive)
REMARK    1  A    between atoms: N_1  and  C_2
REMARK    2  A    between atoms: C_2  and  C_3
REMARK    3  A    between atoms: C_7  and  C_8
REMARK    4  A    between atoms: C_8  and  O_9
REMARK    5  A    between atoms: O_9  and  C_10
REMARK    6  A    between atoms: C_14  and  C_15
REMARK    7  A    between atoms: C_15  and  N_16
REMARK    8  A    between atoms: N_16  and  C_17
REMARK    9  A    between atoms: C_17  and  C_18
REMARK                            x       y       z     vdW  Elec       q    Type
REMARK                         _______ _______ _______ _____ _____    ______ ____
ROOT
ATOM      1  O   UNL     1      43.728   4.966  11.924  0.00  0.00    +0.000 OA
ENDROOT
BRANCH   1   2
ATOM      2  C   UNL     1      44.934   5.422  12.376  0.00  0.00    +0.000 A 
ATOM      3  C   UNL     1      45.587   6.570  11.934  0.00  0.00    +0.000 A 
ATOM      4  C   UNL     1      46.808   6.940  12.505  0.00  0.00    +0.000 A 
ATOM      5  C   UNL     1      47.367   6.171  13.529  0.00  0.00    +0.000 A 
ATOM      6  C   UNL     1      46.704   5.034  14.007  0.00  0.00    +0.000 A 
ATOM      7  C   UNL     1      45.489   4.666  13.413  0.00  0.00    +0.000 A 
BRANCH   6   8
ATOM      8  C   UNL     1      47.271   4.227  15.153  0.00  0.00    +0.000 C 
BRANCH   8   9
ATOM      9  N   UNL     1      47.441   5.066  16.337  0.00  0.00    +0.000 NA
ATOM     10  H   UNL     1      46.789   5.853  16.285  0.00  0.00    +0.000 HD
BRANCH   9  11
ATOM     11  C   UNL     1      47.181   4.326  17.576  0.00  0.00    +0.000 C 
BRANCH  11  12
ATOM     12  C   UNL     1      48.177   3.178  17.730  0.00  0.00    +0.000 C 
ATOM     13  F   UNL     1      48.876   3.343  18.888  0.00  0.00    +0.000 F 
ENDBRANCH  11  12
ENDBRANCH   9  11
ENDBRANCH   8   9
ENDBRANCH   6   8
ENDBRANCH   1   2
BRANCH   1  14
ATOM     14  C   UNL     1      43.458   5.134  10.531  0.00  0.00    +0.000 C 
BRANCH  14  19
ATOM     15  C   UNL     1      45.833   3.479   8.044  0.00  0.00    +0.000 A 
ATOM     16  C   UNL     1      45.593   2.141   8.368  0.00  0.00    +0.000 A 
ATOM     17  C   UNL     1      44.670   1.853   9.357  0.00  0.00    +0.000 A 
ATOM     18  N   UNL     1      43.981   2.789  10.047  0.00  0.00    +0.000 NA
ATOM     19  C   UNL     1      44.208   4.090   9.725  0.00  0.00    +0.000 A 
ATOM     20  C   UNL     1      45.138   4.462   8.754  0.00  0.00    +0.000 A 
BRANCH  15  21
ATOM     21  C   UNL     1      46.815   3.847   6.966  0.00  0.00    +0.000 C 
BRANCH  21  22
ATOM     22  N   UNL     1      47.903   2.879   6.891  0.00  0.00    +0.000 NA
ATOM     23  H   UNL     1      47.773   2.295   6.066  0.00  0.00    +0.000 HD
ATOM     24  H   UNL     1      47.839   2.254   7.695  0.00  0.00    +0.000 HD
ENDBRANCH  21  22
ENDBRANCH  15  21
ENDBRANCH  14  19
ENDBRANCH   1  14
TORSDOF 9
ENDMDL
MODEL 8
REMARK VINA RESULT:    -6.083      3.840      5.921
REMARK INTER + INTRA:          -9.448
REMARK INTER:                  -8.629
REMARK INTRA:                  -0.819
REMARK UNBOUND:                -0.343
REMARK  Name = 
REMARK  9 active torsions:
REMARK  status: ('A' for Active; 'I' for Inactive)
REMARK    1  A    between atoms: N_1  and  C_2
REMARK    2  A    between atoms: C_2  and  C_3
REMARK    3  A    between atoms: C_7  and  C_8
REMARK    4  A    between atoms: C_8  and  O_9
REMARK    5  A    between atoms: O_9  and  C_10
REMARK    6  A    between atoms: C_14  and  C_15
REMARK    7  A    between atoms: C_15  and  N_16
REMARK    8  A    between atoms: N_16  and  C_17
REMARK    9  A    between atoms: C_17  and  C_18
REMARK                            x       y       z     vdW  Elec       q    Type
REMARK                         _______ _______ _______ _____ _____    ______ ____
ROOT
ATOM      1  O   UNL     1      47.808   5.363  13.778  0.00  0.00    +0.000 OA
ENDROOT
BRANCH   1   2
ATOM      2  C   UNL     1      46.607   5.650  13.194  0.00  0.00    +0.000 A 
ATOM      3  C   UNL     1      46.224   6.889  12.685  0.00  0.00    +0.000 A 
ATOM      4  C   UNL     1      44.972   7.038  12.084  0.00  0.00    +0.000 A 
ATOM      5  C   UNL     1      44.108   5.944  11.975  0.00  0.00    +0.000 A 
ATOM      6  C   UNL     1      44.494   4.685  12.450  0.00  0.00    +0.000 A 
ATOM      7  C   UNL     1      45.746   4.555  13.067  0.00  0.00    +0.000 A 
BRANCH   6   8
ATOM      8  C   UNL     1      43.593   3.482  12.287  0.00  0.00    +0.000 C 
BRANCH   8   9
ATOM      9  N   UNL     1      43.254   3.282  10.879  0.00  0.00    +0.000 NA
ATOM     10  H   UNL     1      42.863   4.150  10.504  0.00  0.00    +0.000 HD
BRANCH   9  11
ATOM     11  C   UNL     1      44.425   2.913  10.080  0.00  0.00    +0.000 C 
BRANCH  11  12
ATOM     12  C   UNL     1      44.577   3.856   8.887  0.00  0.00    +0.000 C 
ATOM     13  F   UNL     1      45.500   4.812   9.186  0.00  0.00    +0.000 F 
ENDBRANCH  11  12
ENDBRANCH   9  11
ENDBRANCH   8   9
ENDBRANCH   6   8
ENDBRANCH   1   2
BRANCH   1  14
ATOM     14  C   UNL     1      48.103   6.036  15.004  0.00  0.00    +0.000 C 
BRANCH  14  19
ATOM     15  C   UNL     1      48.512   4.505  18.475  0.00  0.00    +0.000 A 
ATOM     16  C   UNL     1      48.313   3.161  18.148  0.00  0.00    +0.000 A 
ATOM     17  C   UNL     1      48.074   2.828  16.826  0.00  0.00    +0.000 A 
ATOM     18  N   UNL     1      48.011   3.726  15.818  0.00  0.00    +0.000 NA
ATOM     19  C   UNL     1      48.214   5.032  16.136  0.00  0.00    +0.000 A 
ATOM     20  C   UNL     1      48.439   5.449  17.448  0.00  0.00    +0.000 A 
BRANCH  15  21
ATOM     21  C   UNL     1      48.790   4.920  19.894  0.00  0.00    +0.000 C 
BRANCH  21  22
ATOM     22  N   UNL     1      48.392   3.879  20.836  0.00  0.00    +0.000 NA
ATOM     23  H   UNL     1      48.210   3.018  20.323  0.00  0.00    +0.000 HD
ATOM     24  H   UNL     1      47.506   4.149  21.264  0.00  0.00    +0.000 HD
ENDBRANCH  21  22
ENDBRANCH  15  21
ENDBRANCH  14  19
ENDBRANCH   1  14
TORSDOF 9
ENDMDL
MODEL 9
REMARK VINA RESULT:    -6.081      2.762      4.583
REMARK INTER + INTRA:          -9.445
REMARK INTER:                  -8.787
REMARK INTRA:                  -0.658
REMARK UNBOUND:                -0.343
REMARK  Name = 
REMARK  9 active torsions:
REMARK  status: ('A' for Active; 'I' for Inactive)
REMARK    1  A    between atoms: N_1  and  C_2
REMARK    2  A    between atoms: C_2  and  C_3
REMARK    3  A    between atoms: C_7  and  C_8
REMARK    4  A    between atoms: C_8  and  O_9
REMARK    5  A    between atoms: O_9  and  C_10
REMARK    6  A    between atoms: C_14  and  C_15
REMARK    7  A    between atoms: C_15  and  N_16
REMARK    8  A    between atoms: N_16  and  C_17
REMARK    9  A    between atoms: C_17  and  C_18
REMARK                            x       y       z     vdW  Elec       q    Type
REMARK                         _______ _______ _______ _____ _____    ______ ____
ROOT
ATOM      1  O   UNL     1      46.011   6.903  12.794  0.00  0.00    +0.000 OA
ENDROOT
BRANCH   1   2
ATOM      2  C   UNL     1      45.074   6.047  12.289  0.00  0.00    +0.000 A 
ATOM      3  C   UNL     1      43.873   5.699  12.904  0.00  0.00    +0.000 A 
ATOM      4  C   UNL     1      42.987   4.832  12.261  0.00  0.00    +0.000 A 
ATOM      5  C   UNL     1      43.292   4.325  10.995  0.00  0.00    +0.000 A 
ATOM      6  C   UNL     1      44.479   4.694  10.349  0.00  0.00    +0.000 A 
ATOM      7  C   UNL     1      45.366   5.552  11.015  0.00  0.00    +0.000 A 
BRANCH   6   8
ATOM      8  C   UNL     1      44.794   4.198   8.956  0.00  0.00    +0.000 C 
BRANCH   8   9
ATOM      9  N   UNL     1      44.346   2.817   8.790  0.00  0.00    +0.000 NA
ATOM     10  H   UNL     1      43.816   2.740   7.918  0.00  0.00    +0.000 HD
BRANCH   9  11
ATOM     11  C   UNL     1      45.471   1.879   8.737  0.00  0.00    +0.000 C 
BRANCH  11  12
ATOM     12  C   UNL     1      46.448   2.279   7.632  0.00  0.00    +0.000 C 
ATOM     13  F   UNL     1      47.487   1.397   7.611  0.00  0.00    +0.000 F 
ENDBRANCH  11  12
ENDBRANCH   9  11
ENDBRANCH   8   9
ENDBRANCH   6   8
ENDBRANCH   1   2
BRANCH   1  14
ATOM     14  C   UNL     1      47.362   6.436  12.815  0.00  0.00    +0.000 C 
BRANCH  14  19
ATOM     15  C   UNL     1      47.882   4.484  16.052  0.00  0.00    +0.000 A 
ATOM     16  C   UNL     1      48.601   5.440  16.773  0.00  0.00    +0.000 A 
ATOM     17  C   UNL     1      48.861   6.662  16.179  0.00  0.00    +0.000 A 
ATOM     18  N   UNL     1      48.471   6.995  14.928  0.00  0.00    +0.000 NA
ATOM     19  C   UNL     1      47.763   6.067  14.231  0.00  0.00    +0.000 A 
ATOM     20  C   UNL     1      47.478   4.806  14.753  0.00  0.00    +0.000 A 
BRANCH  15  21
ATOM     21  C   UNL     1      47.558   3.145  16.656  0.00  0.00    +0.000 C 
BRANCH  21  22
ATOM     22  N   UNL     1      46.592   3.276  17.742  0.00  0.00    +0.000 NA
ATOM     23  H   UNL     1      46.967   3.906  18.447  0.00  0.00    +0.000 HD
ATOM     24  H   UNL     1      46.489   2.368  18.196  0.00  0.00    +0.000 HD
ENDBRANCH  21  22
ENDBRANCH  15  21
ENDBRANCH  14  19
ENDBRANCH   1  14
TORSDOF 9
ENDMDL
